CHEMBL1507334
     RDKit          3D

  0  0  0  0  0  0  0  0  0  0999 V3000
M  V30 BEGIN CTAB
M  V30 COUNTS 41 42 0 0 0
M  V30 BEGIN ATOM
M  V30 1 C 0.785925 -4.275751 0.488467 0
M  V30 2 C 1.104531 -4.408440 1.954012 0
M  V30 3 O 0.069812 -3.921853 2.780243 0
M  V30 4 C -0.283700 -2.588809 2.670345 0
M  V30 5 C 0.182869 -1.550164 1.883503 0
M  V30 6 C -0.359920 -0.302540 1.979336 0
M  V30 7 C 0.303533 0.631226 1.046896 0
M  V30 8 C -0.061457 0.879795 -0.259121 0
M  V30 9 C -1.226239 0.142430 -0.758181 0
M  V30 10 C 0.666490 1.784118 -1.000365 0
M  V30 11 C 0.283798 2.052943 -2.410367 0
M  V30 12 C 0.770003 0.864470 -3.249038 0
M  V30 13 N 1.742526 2.444292 -0.479043 0
M  V30 14 C 2.149829 2.244247 0.793926 0
M  V30 15 N 3.282303 2.925013 1.376244 0
M  V30 16 C 1.412795 1.334852 1.529343 0
M  V30 17 C 1.845100 1.122680 2.880860 0
M  V30 18 N 2.178966 0.938044 3.973371 0
M  V30 19 C -1.387812 -0.026599 2.857274 0
M  V30 20 C -1.877980 -1.037318 3.657423 0
M  V30 21 C -1.327040 -2.317858 3.564911 0
M  V30 22 O -1.940545 -3.209588 4.441587 0
M  V30 23 H 1.626334 -3.761460 -0.062459 0
M  V30 24 H 0.678274 -5.305977 0.031592 0
M  V30 25 H -0.151058 -3.737340 0.269045 0
M  V30 26 H 1.279320 -5.476519 2.197241 0
M  V30 27 H 2.048332 -3.819709 2.148578 0
M  V30 28 H 0.974433 -1.877844 1.250397 0
M  V30 29 H -1.702111 0.538474 -1.656323 0
M  V30 30 H -1.015296 -0.940690 -0.919654 0
M  V30 31 H -2.026614 0.149966 0.032871 0
M  V30 32 H -0.803646 2.156555 -2.496262 0
M  V30 33 H 0.824513 2.969138 -2.776055 0
M  V30 34 H 1.841077 0.661317 -3.027977 0
M  V30 35 H 0.729595 1.104152 -4.348573 0
M  V30 36 H 0.203803 -0.033875 -2.983556 0
M  V30 37 H 3.932614 2.134837 1.067544 0
M  V30 38 H 2.676484 3.709992 1.690426 0
M  V30 39 H -1.729175 1.012134 2.832806 0
M  V30 40 H -2.681207 -0.757928 4.322708 0
M  V30 41 H -1.466622 -3.546462 5.261108 0
M  V30 END ATOM
M  V30 BEGIN BOND
M  V30 1 1 1 2
M  V30 2 1 2 3
M  V30 3 1 3 4
M  V30 4 2 4 5
M  V30 5 1 5 6
M  V30 6 1 6 7
M  V30 7 2 7 8
M  V30 8 1 8 9
M  V30 9 1 8 10
M  V30 10 1 10 11
M  V30 11 1 11 12
M  V30 12 2 10 13
M  V30 13 1 13 14
M  V30 14 1 14 15
M  V30 15 2 14 16
M  V30 16 1 16 17
M  V30 17 3 17 18
M  V30 18 2 6 19
M  V30 19 1 19 20
M  V30 20 2 20 21
M  V30 21 1 21 22
M  V30 22 1 21 4
M  V30 23 1 16 7
M  V30 24 1 1 23
M  V30 25 1 1 24
M  V30 26 1 1 25
M  V30 27 1 2 26
M  V30 28 1 2 27
M  V30 29 1 5 28
M  V30 30 1 9 29
M  V30 31 1 9 30
M  V30 32 1 9 31
M  V30 33 1 11 32
M  V30 34 1 11 33
M  V30 35 1 12 34
M  V30 36 1 12 35
M  V30 37 1 12 36
M  V30 38 1 15 37
M  V30 39 1 15 38
M  V30 40 1 19 39
M  V30 41 1 20 40
M  V30 42 1 22 41
M  V30 END BOND
M  V30 END CTAB
M  END
>  <Dataset>  (1) 
ChEMBL_Kinases

>  <Ligand_Instance>  (1) 
nan

>  <PDB_ID>  (1) 
nan

>  <Standardized_SMILES>  (1) 
CCOc1cc(-c2c(C)c(CC)nc(N)c2C#N)ccc1O

>  <Name>  (1) 
nan

>  <Pocket>  (1) 
nan

>  <ATP_Site>  (1) 
nan

>  <Peripheral>  (1) 
nan

>  <Num_H_Atoms_ProtBoundConf>  (1) 
nan

>  <Num_Resolved_Atoms>  (1) 
nan

>  <Num_Not_Resolved_Atoms>  (1) 
nan

$$$$
CHEMBL1507243
     RDKit          3D

  0  0  0  0  0  0  0  0  0  0999 V3000
M  V30 BEGIN CTAB
M  V30 COUNTS 56 59 0 0 0
M  V30 BEGIN ATOM
M  V30 1 C 0.575366 -1.492025 4.391543 0
M  V30 2 C -0.337766 -1.593931 3.188211 0
M  V30 3 C -1.199409 -2.845921 3.302318 0
M  V30 4 C -1.210616 -0.358538 3.191458 0
M  V30 5 N 0.386955 -1.637385 1.942737 0
M  V30 6 C 0.352125 -1.719930 0.531880 0
M  V30 7 N 0.279940 -0.606274 -0.211139 0
M  V30 8 C 0.254830 -0.641839 -1.561503 0
M  V30 9 O 0.179393 0.455902 -2.415973 0
M  V30 10 C 0.104802 1.734563 -1.879123 0
M  V30 11 C 0.032475 2.779840 -2.806599 0
M  V30 12 C -0.044668 4.074995 -2.338946 0
M  V30 13 C -0.051556 4.357753 -0.983313 0
M  V30 14 O -0.118002 5.503170 -0.461639 0
M  V30 15 N 0.020603 3.308671 -0.146330 0
M  V30 16 C 0.021716 3.495036 1.263267 0
M  V30 17 C -1.190852 3.310700 1.886042 0
M  V30 18 C -1.349020 3.453740 3.229755 0
M  V30 19 C -0.217401 3.801580 3.977195 0
M  V30 20 C 0.990558 3.980523 3.324229 0
M  V30 21 C 1.157496 3.833936 1.939518 0
M  V30 22 N 0.096707 2.036861 -0.568090 0
M  V30 23 N 0.307174 -1.865399 -2.103871 0
M  V30 24 C 0.379735 -3.015197 -1.422736 0
M  V30 25 N 0.438972 -4.300895 -2.023941 0
M  V30 26 C 0.404890 -5.517675 -1.208496 0
M  V30 27 C -0.384693 -6.541426 -1.972488 0
M  V30 28 O -1.218755 -6.012097 -2.940921 0
M  V30 29 C -0.567943 -5.325964 -3.935479 0
M  V30 30 C 0.539759 -4.436077 -3.465422 0
M  V30 31 N 0.402114 -2.933770 -0.078662 0
M  V30 32 H 0.176772 -2.149728 5.164633 0
M  V30 33 H 1.611682 -1.838330 4.123615 0
M  V30 34 H 0.634282 -0.453435 4.734635 0
M  V30 35 H -1.692626 -2.883193 4.291387 0
M  V30 36 H -1.962018 -2.767617 2.495397 0
M  V30 37 H -0.602677 -3.749225 3.097215 0
M  V30 38 H -1.509317 -0.145743 4.243384 0
M  V30 39 H -0.613991 0.487047 2.811451 0
M  V30 40 H -2.143034 -0.544276 2.607023 0
M  V30 41 H 1.445692 -1.591021 2.023286 0
M  V30 42 H 0.034467 2.612959 -3.875029 0
M  V30 43 H -0.105104 4.957522 -2.991469 0
M  V30 44 H -2.105481 3.036609 1.341475 0
M  V30 45 H -2.297696 3.310812 3.725928 0
M  V30 46 H -0.269732 3.931788 5.047101 0
M  V30 47 H 1.851856 4.251620 3.943914 0
M  V30 48 H 2.094261 3.974668 1.447218 0
M  V30 49 H 1.456119 -5.862781 -1.136056 0
M  V30 50 H -0.040632 -5.308066 -0.211985 0
M  V30 51 H -1.061224 -7.046585 -1.225626 0
M  V30 52 H 0.244489 -7.362016 -2.369329 0
M  V30 53 H -0.242618 -5.946050 -4.797258 0
M  V30 54 H -1.344588 -4.634416 -4.378502 0
M  V30 55 H 0.522336 -3.433667 -3.924561 0
M  V30 56 H 1.507357 -4.935666 -3.708484 0
M  V30 END ATOM
M  V30 BEGIN BOND
M  V30 1 1 1 2
M  V30 2 1 2 3
M  V30 3 1 2 4
M  V30 4 1 2 5
M  V30 5 1 5 6
M  V30 6 2 6 7
M  V30 7 1 7 8
M  V30 8 1 8 9
M  V30 9 1 9 10
M  V30 10 1 10 11
M  V30 11 2 11 12
M  V30 12 1 12 13
M  V30 13 2 13 14
M  V30 14 1 13 15
M  V30 15 1 15 16
M  V30 16 2 16 17
M  V30 17 1 17 18
M  V30 18 2 18 19
M  V30 19 1 19 20
M  V30 20 2 20 21
M  V30 21 1 15 22
M  V30 22 2 8 23
M  V30 23 1 23 24
M  V30 24 1 24 25
M  V30 25 1 25 26
M  V30 26 1 26 27
M  V30 27 1 27 28
M  V30 28 1 28 29
M  V30 29 1 29 30
M  V30 30 2 24 31
M  V30 31 1 31 6
M  V30 32 2 22 10
M  V30 33 1 30 25
M  V30 34 1 21 16
M  V30 35 1 1 32
M  V30 36 1 1 33
M  V30 37 1 1 34
M  V30 38 1 3 35
M  V30 39 1 3 36
M  V30 40 1 3 37
M  V30 41 1 4 38
M  V30 42 1 4 39
M  V30 43 1 4 40
M  V30 44 1 5 41
M  V30 45 1 11 42
M  V30 46 1 12 43
M  V30 47 1 17 44
M  V30 48 1 18 45
M  V30 49 1 19 46
M  V30 50 1 20 47
M  V30 51 1 21 48
M  V30 52 1 26 49
M  V30 53 1 26 50
M  V30 54 1 27 51
M  V30 55 1 27 52
M  V30 56 1 29 53
M  V30 57 1 29 54
M  V30 58 1 30 55
M  V30 59 1 30 56
M  V30 END BOND
M  V30 END CTAB
M  END
>  <Dataset>  (2) 
ChEMBL_Kinases

>  <Ligand_Instance>  (2) 
nan

>  <PDB_ID>  (2) 
nan

>  <Standardized_SMILES>  (2) 
CC(C)(C)Nc1nc(Oc2ccc(=O)n(-c3ccccc3)n2)nc(N2CCOCC2)n1

>  <Name>  (2) 
nan

>  <Pocket>  (2) 
nan

>  <ATP_Site>  (2) 
nan

>  <Peripheral>  (2) 
nan

>  <Num_H_Atoms_ProtBoundConf>  (2) 
nan

>  <Num_Resolved_Atoms>  (2) 
nan

>  <Num_Not_Resolved_Atoms>  (2) 
nan

$$$$
CHEMBL1507227
     RDKit          3D

  0  0  0  0  0  0  0  0  0  0999 V3000
M  V30 BEGIN CTAB
M  V30 COUNTS 58 61 0 0 0
M  V30 BEGIN ATOM
M  V30 1 C 1.435523 -0.071535 6.498259 0
M  V30 2 O 0.415940 0.678679 5.820753 0
M  V30 3 C 0.295832 0.456417 4.449249 0
M  V30 4 C -0.692571 1.196891 3.833238 0
M  V30 5 C -0.857584 1.020405 2.478135 0
M  V30 6 C -0.036137 0.126017 1.824105 0
M  V30 7 N -0.258674 -0.002634 0.422836 0
M  V30 8 C 0.596822 0.399243 -0.533845 0
M  V30 9 C 1.922599 1.046239 -0.433065 0
M  V30 10 C 1.820350 2.529618 -0.369499 0
M  V30 11 C 1.684952 3.369744 -1.477857 0
M  V30 12 C 1.629790 4.665093 -1.009959 0
M  V30 13 C 1.730204 4.631214 0.368869 0
M  V30 14 N 1.841729 3.334655 0.702862 0
M  V30 15 C 1.968981 2.937524 2.074711 0
M  V30 16 N 0.002878 0.093868 -1.686821 0
M  V30 17 N -1.161243 -0.468314 -1.422437 0
M  V30 18 C -1.373006 -0.551610 -0.092103 0
M  V30 19 S -2.773596 -1.203894 0.803091 0
M  V30 20 C -3.970854 -1.828333 -0.424667 0
M  V30 21 C -3.287960 -3.019775 -1.056554 0
M  V30 22 O -2.471281 -2.581240 -0.157929 0
M  V30 23 N -3.363616 -4.085463 -2.048963 0
M  V30 24 C -2.081666 -4.689475 -1.777829 0
M  V30 25 C -2.082706 -5.667660 -0.804661 0
M  V30 26 C -0.883359 -6.280756 -0.512849 0
M  V30 27 C 0.200629 -5.841548 -1.237120 0
M  V30 28 C 0.195691 -4.862547 -2.209596 0
M  V30 29 C -0.999651 -4.247474 -2.504405 0
M  V30 30 O -1.166835 -3.253683 -3.449473 0
M  V30 31 C -0.069916 -2.765947 -4.225465 0
M  V30 32 C 0.973456 -0.638081 2.418432 0
M  V30 33 C 1.104650 -0.431613 3.775748 0
M  V30 34 H 2.384224 0.236593 5.981860 0
M  V30 35 H 1.446271 0.122597 7.574846 0
M  V30 36 H 1.292095 -1.141830 6.243638 0
M  V30 37 H -1.340447 1.892138 4.314665 0
M  V30 38 H -1.611763 1.573904 1.959100 0
M  V30 39 H 2.532805 0.668508 0.410163 0
M  V30 40 H 2.495122 0.793099 -1.344158 0
M  V30 41 H 1.630807 3.100195 -2.518841 0
M  V30 42 H 1.527701 5.585891 -1.584976 0
M  V30 43 H 1.714346 5.521410 1.000418 0
M  V30 44 H 2.356206 1.905211 2.205224 0
M  V30 45 H 2.777193 3.583775 2.534017 0
M  V30 46 H 1.071322 3.160898 2.697876 0
M  V30 47 H -4.104851 -1.045136 -1.202013 0
M  V30 48 H -4.925163 -2.140140 0.021258 0
M  V30 49 H -4.291906 -3.748057 -2.336277 0
M  V30 50 H -2.992837 -5.937427 -0.296705 0
M  V30 51 H -0.793209 -7.047577 0.225582 0
M  V30 52 H 1.155561 -6.307947 -1.026411 0
M  V30 53 H 1.083621 -4.561568 -2.742529 0
M  V30 54 H 0.574031 -3.611217 -4.567350 0
M  V30 55 H -0.444114 -2.291998 -5.169324 0
M  V30 56 H 0.510055 -2.051317 -3.612096 0
M  V30 57 H 1.540186 -1.294981 1.801260 0
M  V30 58 H 1.867980 -0.996900 4.282847 0
M  V30 END ATOM
M  V30 BEGIN BOND
M  V30 1 1 1 2
M  V30 2 1 2 3
M  V30 3 2 3 4
M  V30 4 1 4 5
M  V30 5 2 5 6
M  V30 6 1 6 7
M  V30 7 1 7 8
M  V30 8 1 8 9
M  V30 9 1 9 10
M  V30 10 2 10 11
M  V30 11 1 11 12
M  V30 12 2 12 13
M  V30 13 1 13 14
M  V30 14 1 14 15
M  V30 15 2 8 16
M  V30 16 1 16 17
M  V30 17 2 17 18
M  V30 18 1 18 19
M  V30 19 1 19 20
M  V30 20 1 20 21
M  V30 21 2 21 22
M  V30 22 1 21 23
M  V30 23 1 23 24
M  V30 24 2 24 25
M  V30 25 1 25 26
M  V30 26 2 26 27
M  V30 27 1 27 28
M  V30 28 2 28 29
M  V30 29 1 29 30
M  V30 30 1 30 31
M  V30 31 1 6 32
M  V30 32 2 32 33
M  V30 33 1 33 3
M  V30 34 1 18 7
M  V30 35 1 29 24
M  V30 36 1 14 10
M  V30 37 1 1 34
M  V30 38 1 1 35
M  V30 39 1 1 36
M  V30 40 1 4 37
M  V30 41 1 5 38
M  V30 42 1 9 39
M  V30 43 1 9 40
M  V30 44 1 11 41
M  V30 45 1 12 42
M  V30 46 1 13 43
M  V30 47 1 15 44
M  V30 48 1 15 45
M  V30 49 1 15 46
M  V30 50 1 20 47
M  V30 51 1 20 48
M  V30 52 1 23 49
M  V30 53 1 25 50
M  V30 54 1 26 51
M  V30 55 1 27 52
M  V30 56 1 28 53
M  V30 57 1 31 54
M  V30 58 1 31 55
M  V30 59 1 31 56
M  V30 60 1 32 57
M  V30 61 1 33 58
M  V30 END BOND
M  V30 END CTAB
M  END
>  <Dataset>  (3) 
ChEMBL_Kinases

>  <Ligand_Instance>  (3) 
nan

>  <PDB_ID>  (3) 
nan

>  <Standardized_SMILES>  (3) 
COc1ccc(-n2c(Cc3cccn3C)nnc2SCC(=O)Nc2ccccc2OC)cc1

>  <Name>  (3) 
nan

>  <Pocket>  (3) 
nan

>  <ATP_Site>  (3) 
nan

>  <Peripheral>  (3) 
nan

>  <Num_H_Atoms_ProtBoundConf>  (3) 
nan

>  <Num_Resolved_Atoms>  (3) 
nan

>  <Num_Not_Resolved_Atoms>  (3) 
nan

$$$$
CHEMBL1507091
     RDKit          3D

  0  0  0  0  0  0  0  0  0  0999 V3000
M  V30 BEGIN CTAB
M  V30 COUNTS 52 55 0 0 0
M  V30 BEGIN ATOM
M  V30 1 O -0.238412 -4.189634 0.803543 0
M  V30 2 C -1.149672 -4.752982 1.462454 0
M  V30 3 N -2.264075 -4.010728 1.912047 0
M  V30 4 C -2.130016 -2.633743 1.493080 0
M  V30 5 C -1.480364 -1.721787 2.321382 0
M  V30 6 C -1.320887 -0.391631 1.975738 0
M  V30 7 C -1.816694 0.060802 0.773545 0
M  V30 8 N -1.643726 1.427739 0.429330 0
M  V30 9 C -0.898156 2.363697 1.245063 0
M  V30 10 C -0.244798 3.344762 0.259838 0
M  V30 11 N 0.139593 2.575194 -0.872358 0
M  V30 12 C 1.347644 2.898100 -1.523351 0
M  V30 13 C 2.556293 2.791889 -0.670453 0
M  V30 14 C 3.144643 3.783326 0.087836 0
M  V30 15 C 4.273071 3.527369 0.839373 0
M  V30 16 C 4.876698 2.290553 0.882858 0
M  V30 17 C 4.332980 1.259673 0.144563 0
M  V30 18 C 3.205027 1.553034 -0.594361 0
M  V30 19 C -1.011841 2.455861 -1.704842 0
M  V30 20 C -2.157368 2.111645 -0.740309 0
M  V30 21 C -2.459471 -0.838668 -0.047405 0
M  V30 22 C -2.624622 -2.169285 0.287421 0
M  V30 23 C -0.980054 -6.179091 1.720933 0
M  V30 24 C 0.151377 -6.801519 1.230594 0
M  V30 25 C 0.354627 -8.168525 1.455052 0
M  V30 26 C -0.578376 -8.915880 2.173299 0
M  V30 27 N -1.678603 -8.260671 2.637707 0
M  V30 28 C -1.882328 -6.947908 2.427002 0
M  V30 29 H -3.018730 -4.478942 2.458322 0
M  V30 30 H -1.106888 -2.131366 3.260594 0
M  V30 31 H -0.807803 0.183483 2.704911 0
M  V30 32 H -1.593412 2.941314 1.904534 0
M  V30 33 H -0.141276 1.900001 1.881253 0
M  V30 34 H 0.541728 3.935771 0.749941 0
M  V30 35 H -1.052339 4.091704 0.019730 0
M  V30 36 H 1.332404 3.909866 -2.023259 0
M  V30 37 H 1.483119 2.170051 -2.365489 0
M  V30 38 H 2.663687 4.749986 0.042770 0
M  V30 39 H 4.704365 4.345694 1.425456 0
M  V30 40 H 5.754523 2.053988 1.455211 0
M  V30 41 H 4.748662 0.280366 0.132819 0
M  V30 42 H 2.783946 0.720284 -1.177383 0
M  V30 43 H -1.269422 3.470677 -2.115332 0
M  V30 44 H -0.944760 1.769932 -2.546394 0
M  V30 45 H -2.720298 3.020826 -0.431581 0
M  V30 46 H -2.842331 1.453754 -1.281463 0
M  V30 47 H -2.867913 -0.545827 -0.999715 0
M  V30 48 H -3.132864 -2.853567 -0.374481 0
M  V30 49 H 0.921218 -6.278036 0.661327 0
M  V30 50 H 1.262719 -8.626526 1.051324 0
M  V30 51 H -0.388660 -9.969055 2.327357 0
M  V30 52 H -2.767827 -6.472515 2.813659 0
M  V30 END ATOM
M  V30 BEGIN BOND
M  V30 1 2 1 2
M  V30 2 1 2 3
M  V30 3 1 3 4
M  V30 4 2 4 5
M  V30 5 1 5 6
M  V30 6 2 6 7
M  V30 7 1 7 8
M  V30 8 1 8 9
M  V30 9 1 9 10
M  V30 10 1 10 11
M  V30 11 1 11 12
M  V30 12 1 12 13
M  V30 13 2 13 14
M  V30 14 1 14 15
M  V30 15 2 15 16
M  V30 16 1 16 17
M  V30 17 2 17 18
M  V30 18 1 11 19
M  V30 19 1 19 20
M  V30 20 1 7 21
M  V30 21 2 21 22
M  V30 22 1 2 23
M  V30 23 2 23 24
M  V30 24 1 24 25
M  V30 25 2 25 26
M  V30 26 1 26 27
M  V30 27 2 27 28
M  V30 28 1 22 4
M  V30 29 1 28 23
M  V30 30 1 20 8
M  V30 31 1 18 13
M  V30 32 1 3 29
M  V30 33 1 5 30
M  V30 34 1 6 31
M  V30 35 1 9 32
M  V30 36 1 9 33
M  V30 37 1 10 34
M  V30 38 1 10 35
M  V30 39 1 12 36
M  V30 40 1 12 37
M  V30 41 1 14 38
M  V30 42 1 15 39
M  V30 43 1 16 40
M  V30 44 1 17 41
M  V30 45 1 18 42
M  V30 46 1 19 43
M  V30 47 1 19 44
M  V30 48 1 20 45
M  V30 49 1 20 46
M  V30 50 1 21 47
M  V30 51 1 22 48
M  V30 52 1 24 49
M  V30 53 1 25 50
M  V30 54 1 26 51
M  V30 55 1 28 52
M  V30 END BOND
M  V30 END CTAB
M  END
>  <Dataset>  (4) 
ChEMBL_Kinases

>  <Ligand_Instance>  (4) 
nan

>  <PDB_ID>  (4) 
nan

>  <Standardized_SMILES>  (4) 
O=C(Nc1ccc(N2CCN(Cc3ccccc3)CC2)cc1)c1cccnc1

>  <Name>  (4) 
nan

>  <Pocket>  (4) 
nan

>  <ATP_Site>  (4) 
nan

>  <Peripheral>  (4) 
nan

>  <Num_H_Atoms_ProtBoundConf>  (4) 
nan

>  <Num_Resolved_Atoms>  (4) 
nan

>  <Num_Not_Resolved_Atoms>  (4) 
nan

$$$$
CHEMBL1506932
     RDKit          3D

  0  0  0  0  0  0  0  0  0  0999 V3000
M  V30 BEGIN CTAB
M  V30 COUNTS 60 62 0 0 0
M  V30 BEGIN ATOM
M  V30 1 C -1.146632 -2.329034 5.270303 0
M  V30 2 C 0.197705 -2.040609 4.662050 0
M  V30 3 O 0.253707 -2.326942 3.276577 0
M  V30 4 C -0.568026 -1.704634 2.390689 0
M  V30 5 O -1.119309 -1.034317 3.299666 0
M  V30 6 C -0.727559 -1.797776 0.947463 0
M  V30 7 C 0.012885 -2.617577 0.202527 0
M  V30 8 C 0.994190 -3.411190 0.954618 0
M  V30 9 N -0.269148 -2.579642 -1.193163 0
M  V30 10 C -1.283505 -1.691931 -1.620953 0
M  V30 11 C -1.995964 -0.894712 -0.852646 0
M  V30 12 C -3.011766 -0.024054 -1.396770 0
M  V30 13 N -3.829381 0.668231 -1.853040 0
M  V30 14 C -1.803012 -0.849024 0.579609 0 CFG=2
M  V30 15 C -1.586005 0.494377 1.152566 0
M  V30 16 C -0.498693 1.220260 0.727446 0
M  V30 17 C -0.203769 2.484047 1.196817 0
M  V30 18 C -1.022420 3.072733 2.138979 0
M  V30 19 C -0.880045 4.391666 2.754425 0
M  V30 20 O -1.638526 4.912938 3.612501 0
M  V30 21 O 0.130204 5.282325 2.480308 0
M  V30 22 C 0.247648 6.555869 3.089536 0
M  V30 23 C -2.137029 2.361128 2.592544 0
M  V30 24 C -2.395980 1.096225 2.095349 0
M  V30 25 S -1.392177 -1.870830 -3.399228 0
M  V30 26 C -0.621505 -3.520558 -3.385012 0
M  V30 27 C 0.351491 -3.335468 -2.211556 0 CFG=2
M  V30 28 O 0.591812 -4.628819 -1.754613 0
M  V30 29 C 1.596869 -2.794228 -2.794352 0
M  V30 30 C 2.114066 -3.732795 -3.862991 0
M  V30 31 C 1.389283 -1.442183 -3.478612 0
M  V30 32 C 2.720543 -2.577561 -1.813982 0
M  V30 33 H -1.009801 -2.864218 6.245749 0
M  V30 34 H -1.735721 -1.419212 5.522109 0
M  V30 35 H -1.804342 -2.935057 4.593009 0
M  V30 36 H 0.989116 -2.579417 5.221923 0
M  V30 37 H 0.411068 -0.959315 4.801782 0
M  V30 38 H 0.469270 -4.048768 1.726740 0
M  V30 39 H 1.708070 -2.787207 1.533179 0
M  V30 40 H 1.476383 -4.127904 0.295898 0
M  V30 41 H -2.737347 -1.223405 1.101866 0
M  V30 42 H 0.183137 0.809074 -0.013963 0
M  V30 43 H 0.636208 3.092036 0.894221 0
M  V30 44 H 0.927405 7.221531 2.561490 0
M  V30 45 H 0.469423 6.539647 4.154540 0
M  V30 46 H -0.782149 7.008287 2.980314 0
M  V30 47 H -2.834160 2.767279 3.342855 0
M  V30 48 H -3.251818 0.478823 2.404648 0
M  V30 49 H -1.348497 -4.321579 -3.170941 0
M  V30 50 H -0.102361 -3.621380 -4.335361 0
M  V30 51 H 1.474647 -4.983030 -1.938701 0
M  V30 52 H 3.193995 -3.998490 -3.712487 0
M  V30 53 H 1.588116 -4.681486 -3.944287 0
M  V30 54 H 2.092231 -3.280513 -4.883250 0
M  V30 55 H 0.906225 -1.544284 -4.454838 0
M  V30 56 H 2.438668 -1.095620 -3.713553 0
M  V30 57 H 0.983070 -0.681355 -2.807062 0
M  V30 58 H 3.580234 -2.204691 -2.446459 0
M  V30 59 H 2.460072 -1.751348 -1.156081 0
M  V30 60 H 3.105580 -3.489275 -1.345526 0
M  V30 END ATOM
M  V30 BEGIN BOND
M  V30 1 1 1 2
M  V30 2 1 2 3
M  V30 3 1 3 4
M  V30 4 2 4 5
M  V30 5 1 4 6
M  V30 6 2 6 7
M  V30 7 1 7 8
M  V30 8 1 7 9
M  V30 9 1 9 10
M  V30 10 2 10 11
M  V30 11 1 11 12
M  V30 12 3 12 13
M  V30 13 1 11 14
M  V30 14 1 14 15
M  V30 15 2 15 16
M  V30 16 1 16 17
M  V30 17 2 17 18
M  V30 18 1 18 19
M  V30 19 2 19 20
M  V30 20 1 19 21
M  V30 21 1 21 22
M  V30 22 1 18 23
M  V30 23 2 23 24
M  V30 24 1 10 25
M  V30 25 1 25 26
M  V30 26 1 26 27
M  V30 27 1 27 28 CFG=1
M  V30 28 1 27 29
M  V30 29 1 29 30
M  V30 30 1 29 31
M  V30 31 1 29 32
M  V30 32 1 14 6
M  V30 33 1 24 15
M  V30 34 1 27 9
M  V30 35 1 1 33
M  V30 36 1 1 34
M  V30 37 1 1 35
M  V30 38 1 2 36
M  V30 39 1 2 37
M  V30 40 1 8 38
M  V30 41 1 8 39
M  V30 42 1 8 40
M  V30 43 1 14 41 CFG=1
M  V30 44 1 16 42
M  V30 45 1 17 43
M  V30 46 1 22 44
M  V30 47 1 22 45
M  V30 48 1 22 46
M  V30 49 1 23 47
M  V30 50 1 24 48
M  V30 51 1 26 49
M  V30 52 1 26 50
M  V30 53 1 28 51
M  V30 54 1 30 52
M  V30 55 1 30 53
M  V30 56 1 30 54
M  V30 57 1 31 55
M  V30 58 1 31 56
M  V30 59 1 31 57
M  V30 60 1 32 58
M  V30 61 1 32 59
M  V30 62 1 32 60
M  V30 END BOND
M  V30 END CTAB
M  END
>  <Dataset>  (5) 
ChEMBL_Kinases

>  <Ligand_Instance>  (5) 
nan

>  <PDB_ID>  (5) 
nan

>  <Standardized_SMILES>  (5) 
CCOC(=O)C1=C(C)N2C(=C(C#N)[C@@H]1c1ccc(C(=O)OC)cc1)SC[C@@]2(O)C(C)(C)C

>  <Name>  (5) 
nan

>  <Pocket>  (5) 
nan

>  <ATP_Site>  (5) 
nan

>  <Peripheral>  (5) 
nan

>  <Num_H_Atoms_ProtBoundConf>  (5) 
nan

>  <Num_Resolved_Atoms>  (5) 
nan

>  <Num_Not_Resolved_Atoms>  (5) 
nan

$$$$
CHEMBL1506861
     RDKit          3D

  0  0  0  0  0  0  0  0  0  0999 V3000
M  V30 BEGIN CTAB
M  V30 COUNTS 39 41 0 0 0
M  V30 BEGIN ATOM
M  V30 1 O 0.121445 -0.845352 1.576196 0
M  V30 2 C -0.647486 -1.276698 0.650245 0
M  V30 3 C -1.204589 -2.536582 0.038309 0
M  V30 4 N -0.701046 -3.703587 0.734580 0
M  V30 5 C -1.202547 -4.938389 0.189364 0
M  V30 6 C -0.366225 -6.092407 0.709803 0
M  V30 7 O 0.945071 -6.020804 0.268105 0
M  V30 8 C 1.305511 -4.743674 -0.135326 0
M  V30 9 C 0.723801 -3.727993 0.823487 0
M  V30 10 N -1.122674 -0.086577 -0.012669 0
M  V30 11 C -0.608056 1.143614 0.548343 0
M  V30 12 C -1.353590 1.725088 1.571898 0
M  V30 13 C -0.882564 2.900641 2.124477 0
M  V30 14 C 0.286654 3.500026 1.693882 0
M  V30 15 C 1.015223 2.912893 0.678916 0
M  V30 16 C 0.563002 1.721973 0.099986 0
M  V30 17 C 2.230565 3.753409 0.400886 0
M  V30 18 C 2.445184 4.356777 1.784728 0
M  V30 19 C 0.996879 4.743119 2.115171 0
M  V30 20 H -0.906674 -2.506116 -1.029753 0
M  V30 21 H -2.299084 -2.434751 0.124577 0
M  V30 22 H -1.137740 -4.940244 -0.914728 0
M  V30 23 H -2.255865 -5.158002 0.464709 0
M  V30 24 H -0.438549 -6.199230 1.802833 0
M  V30 25 H -0.794182 -7.039253 0.275506 0
M  V30 26 H 2.406874 -4.615702 -0.106798 0
M  V30 27 H 0.948438 -4.596218 -1.171444 0
M  V30 28 H 1.040162 -3.973640 1.838402 0
M  V30 29 H 1.125290 -2.714183 0.595336 0
M  V30 30 H -1.780511 0.032604 -0.834965 0
M  V30 31 H -2.279616 1.244878 1.908729 0
M  V30 32 H -1.453327 3.348285 2.910180 0
M  V30 33 H 1.129352 1.247830 -0.702764 0
M  V30 34 H 2.054891 4.531651 -0.345500 0
M  V30 35 H 3.056586 3.054422 0.139037 0
M  V30 36 H 2.793963 3.538023 2.449589 0
M  V30 37 H 3.111062 5.235576 1.775541 0
M  V30 38 H 0.970136 4.902006 3.201802 0
M  V30 39 H 0.751201 5.615783 1.505443 0
M  V30 END ATOM
M  V30 BEGIN BOND
M  V30 1 2 1 2
M  V30 2 1 2 3
M  V30 3 1 3 4
M  V30 4 1 4 5
M  V30 5 1 5 6
M  V30 6 1 6 7
M  V30 7 1 7 8
M  V30 8 1 8 9
M  V30 9 1 2 10
M  V30 10 1 10 11
M  V30 11 2 11 12
M  V30 12 1 12 13
M  V30 13 2 13 14
M  V30 14 1 14 15
M  V30 15 2 15 16
M  V30 16 1 15 17
M  V30 17 1 17 18
M  V30 18 1 18 19
M  V30 19 1 9 4
M  V30 20 1 16 11
M  V30 21 1 19 14
M  V30 22 1 3 20
M  V30 23 1 3 21
M  V30 24 1 5 22
M  V30 25 1 5 23
M  V30 26 1 6 24
M  V30 27 1 6 25
M  V30 28 1 8 26
M  V30 29 1 8 27
M  V30 30 1 9 28
M  V30 31 1 9 29
M  V30 32 1 10 30
M  V30 33 1 12 31
M  V30 34 1 13 32
M  V30 35 1 16 33
M  V30 36 1 17 34
M  V30 37 1 17 35
M  V30 38 1 18 36
M  V30 39 1 18 37
M  V30 40 1 19 38
M  V30 41 1 19 39
M  V30 END BOND
M  V30 END CTAB
M  END
>  <Dataset>  (6) 
ChEMBL_Kinases

>  <Ligand_Instance>  (6) 
nan

>  <PDB_ID>  (6) 
nan

>  <Standardized_SMILES>  (6) 
O=C(CN1CCOCC1)Nc1ccc2c(c1)CCC2

>  <Name>  (6) 
nan

>  <Pocket>  (6) 
nan

>  <ATP_Site>  (6) 
nan

>  <Peripheral>  (6) 
nan

>  <Num_H_Atoms_ProtBoundConf>  (6) 
nan

>  <Num_Resolved_Atoms>  (6) 
nan

>  <Num_Not_Resolved_Atoms>  (6) 
nan

$$$$
CHEMBL1506761
     RDKit          3D

  0  0  0  0  0  0  0  0  0  0999 V3000
M  V30 BEGIN CTAB
M  V30 COUNTS 31 32 0 0 0
M  V30 BEGIN ATOM
M  V30 1 C 0.337821 -5.763324 0.120814 0
M  V30 2 O 0.442360 -4.759083 1.126790 0
M  V30 3 C 0.247971 -3.440157 0.733078 0
M  V30 4 O 0.003776 -3.377476 -0.500357 0
M  V30 5 C 0.338528 -2.351948 1.705626 0
M  V30 6 C 0.612441 -2.508597 3.049306 0
M  V30 7 N 0.601937 -1.267665 3.569973 0
M  V30 8 C 0.331495 -0.400541 2.573484 0
M  V30 9 N 0.162055 -1.050512 1.396228 0
M  V30 10 C -0.140267 -0.409241 0.130288 0
M  V30 11 C -1.578049 -0.516875 -0.251243 0
M  V30 12 C 0.219798 1.030193 0.215472 0
M  V30 13 C 1.505177 1.439280 -0.142565 0
M  V30 14 C 1.879719 2.775798 -0.076461 0
M  V30 15 C 0.972146 3.723647 0.349482 0
M  V30 16 C -0.306316 3.353108 0.710673 0
M  V30 17 C -0.643235 2.022312 0.633218 0
M  V30 18 H 1.076751 -5.660153 -0.674606 0
M  V30 19 H 0.339821 -6.781707 0.567937 0
M  V30 20 H -0.684970 -5.643518 -0.335885 0
M  V30 21 H 0.795753 -3.449125 3.561443 0
M  V30 22 H 0.270239 0.678678 2.756805 0
M  V30 23 H 0.486822 -0.833881 -0.697405 0
M  V30 24 H -1.929202 0.426618 -0.683925 0
M  V30 25 H -2.215358 -0.873681 0.594388 0
M  V30 26 H -1.696488 -1.284764 -1.040994 0
M  V30 27 H 2.264231 0.726175 -0.487662 0
M  V30 28 H 2.891288 3.086543 -0.359792 0
M  V30 29 H 1.255917 4.777793 0.405384 0
M  V30 30 H -1.033602 4.079529 1.047363 0
M  V30 31 H -1.653918 1.728262 0.918605 0
M  V30 END ATOM
M  V30 BEGIN BOND
M  V30 1 1 1 2
M  V30 2 1 2 3
M  V30 3 2 3 4
M  V30 4 1 3 5
M  V30 5 2 5 6
M  V30 6 1 6 7
M  V30 7 2 7 8
M  V30 8 1 8 9
M  V30 9 1 9 10
M  V30 10 1 10 11
M  V30 11 1 10 12
M  V30 12 2 12 13
M  V30 13 1 13 14
M  V30 14 2 14 15
M  V30 15 1 15 16
M  V30 16 2 16 17
M  V30 17 1 9 5
M  V30 18 1 17 12
M  V30 19 1 1 18
M  V30 20 1 1 19
M  V30 21 1 1 20
M  V30 22 1 6 21
M  V30 23 1 8 22
M  V30 24 1 10 23
M  V30 25 1 11 24
M  V30 26 1 11 25
M  V30 27 1 11 26
M  V30 28 1 13 27
M  V30 29 1 14 28
M  V30 30 1 15 29
M  V30 31 1 16 30
M  V30 32 1 17 31
M  V30 END BOND
M  V30 END CTAB
M  END
>  <Dataset>  (7) 
ChEMBL_Kinases

>  <Ligand_Instance>  (7) 
nan

>  <PDB_ID>  (7) 
nan

>  <Standardized_SMILES>  (7) 
COC(=O)c1cncn1C(C)c1ccccc1

>  <Name>  (7) 
nan

>  <Pocket>  (7) 
nan

>  <ATP_Site>  (7) 
nan

>  <Peripheral>  (7) 
nan

>  <Num_H_Atoms_ProtBoundConf>  (7) 
nan

>  <Num_Resolved_Atoms>  (7) 
nan

>  <Num_Not_Resolved_Atoms>  (7) 
nan

$$$$
CHEMBL1506628
     RDKit          3D

  0  0  0  0  0  0  0  0  0  0999 V3000
M  V30 BEGIN CTAB
M  V30 COUNTS 35 37 0 0 0
M  V30 BEGIN ATOM
M  V30 1 O 0.250759 -1.703202 2.529350 0
M  V30 2 C 0.803027 -0.863179 1.810912 0
M  V30 3 C 2.090908 -0.947204 1.337633 0
M  V30 4 C 2.779833 -2.093037 1.722199 0
M  V30 5 C 4.083791 -2.185615 1.246734 0
M  V30 6 C 4.668951 -1.224175 0.452281 0
M  V30 7 N 6.000259 -1.317912 -0.033268 0 CHG=1 VAL=4
M  V30 8 O 6.840721 -2.213804 0.145159 0
M  V30 9 O 6.508760 -0.314301 -0.819758 0 CHG=-1 VAL=1
M  V30 10 C 3.957040 -0.098323 0.088850 0
M  V30 11 C 2.666428 0.016795 0.545788 0
M  V30 12 N 1.877001 1.074031 0.253176 0
M  V30 13 C 0.605136 1.126082 0.737574 0
M  V30 14 N 0.007536 0.180228 1.526805 0
M  V30 15 C -1.350237 0.544630 1.795542 0
M  V30 16 C -2.351444 0.326733 0.775303 0
M  V30 17 C -2.739329 1.500650 0.111006 0
M  V30 18 C -3.692274 1.621769 -0.892251 0
M  V30 19 C -4.350860 0.488910 -1.308432 0
M  V30 20 C -4.001462 -0.685614 -0.684556 0
M  V30 21 C -3.030947 -0.749956 0.322755 0
M  V30 22 C -2.675145 -2.038167 0.915084 0
M  V30 23 F -3.582757 -2.983080 0.381626 0
M  V30 24 F -2.737774 -2.156404 2.251157 0
M  V30 25 F -1.468584 -2.519104 0.346601 0
M  V30 26 H 2.347293 -2.861894 2.342676 0
M  V30 27 H 4.690748 -3.051105 1.502566 0
M  V30 28 H 4.366696 0.679068 -0.528732 0
M  V30 29 H 0.156334 2.062781 0.377748 0
M  V30 30 H -1.606895 0.012271 2.765121 0
M  V30 31 H -1.352129 1.623823 2.113190 0
M  V30 32 H -2.303200 2.476070 0.336079 0
M  V30 33 H -3.954688 2.549585 -1.373228 0
M  V30 34 H -5.106151 0.449992 -2.071798 0
M  V30 35 H -4.503181 -1.598795 -0.991601 0
M  V30 END ATOM
M  V30 BEGIN BOND
M  V30 1 2 1 2
M  V30 2 1 2 3
M  V30 3 2 3 4
M  V30 4 1 4 5
M  V30 5 2 5 6
M  V30 6 1 6 7
M  V30 7 2 7 8
M  V30 8 1 7 9
M  V30 9 1 6 10
M  V30 10 2 10 11
M  V30 11 1 11 12
M  V30 12 2 12 13
M  V30 13 1 13 14
M  V30 14 1 14 15
M  V30 15 1 15 16
M  V30 16 2 16 17
M  V30 17 1 17 18
M  V30 18 2 18 19
M  V30 19 1 19 20
M  V30 20 2 20 21
M  V30 21 1 21 22
M  V30 22 1 22 23
M  V30 23 1 22 24
M  V30 24 1 22 25
M  V30 25 1 14 2
M  V30 26 1 21 16
M  V30 27 1 11 3
M  V30 28 1 4 26
M  V30 29 1 5 27
M  V30 30 1 10 28
M  V30 31 1 13 29
M  V30 32 1 15 30
M  V30 33 1 15 31
M  V30 34 1 17 32
M  V30 35 1 18 33
M  V30 36 1 19 34
M  V30 37 1 20 35
M  V30 END BOND
M  V30 END CTAB
M  END
>  <Dataset>  (8) 
ChEMBL_Kinases

>  <Ligand_Instance>  (8) 
nan

>  <PDB_ID>  (8) 
nan

>  <Standardized_SMILES>  (8) 
O=c1c2ccc([N+](=O)[O-])cc2ncn1Cc1ccccc1C(F)(F)F

>  <Name>  (8) 
nan

>  <Pocket>  (8) 
nan

>  <ATP_Site>  (8) 
nan

>  <Peripheral>  (8) 
nan

>  <Num_H_Atoms_ProtBoundConf>  (8) 
nan

>  <Num_Resolved_Atoms>  (8) 
nan

>  <Num_Not_Resolved_Atoms>  (8) 
nan

$$$$
CHEMBL1506312
     RDKit          3D

  0  0  0  0  0  0  0  0  0  0999 V3000
M  V30 BEGIN CTAB
M  V30 COUNTS 67 70 0 0 0
M  V30 BEGIN ATOM
M  V30 1 C 0.103585 5.522490 2.836094 0
M  V30 2 C 0.271160 4.996303 1.449736 0
M  V30 3 O 1.631622 4.594715 1.217397 0
M  V30 4 C 1.961757 4.081260 -0.021897 0
M  V30 5 O 0.799048 4.173172 -0.546532 0
M  V30 6 N 3.120678 3.586528 -0.648691 0
M  V30 7 C 4.530130 3.386061 -0.264955 0
M  V30 8 C 4.876221 1.974474 -0.649787 0
M  V30 9 N 3.675484 1.150255 -0.816859 0
M  V30 10 C 3.378053 0.132402 0.141783 0
M  V30 11 O 4.283478 0.139593 1.010675 0
M  V30 12 C 2.195485 -0.706951 0.024765 0
M  V30 13 O 1.289220 -0.425125 0.934991 0
M  V30 14 C 0.236179 -1.204780 0.798618 0
M  V30 15 C -0.978380 -1.369942 1.435167 0
M  V30 16 C -1.884499 -2.327129 1.011209 0
M  V30 17 C -1.600439 -3.150261 -0.067858 0
M  V30 18 S -2.675786 -4.402727 -0.687557 0
M  V30 19 O -3.436630 -5.002303 0.485948 0
M  V30 20 O -1.840167 -5.569124 -1.208818 0
M  V30 21 N -3.687955 -3.828263 -1.894004 0
M  V30 22 C -3.122870 -3.338292 -3.048840 0
M  V30 23 C -3.475745 -1.946332 -3.488779 0
M  V30 24 C -2.241968 -1.296019 -4.064108 0
M  V30 25 C -3.965789 -1.082981 -2.358302 0
M  V30 26 C -4.986825 -1.785698 -1.503219 0
M  V30 27 C -4.952685 -1.225393 -0.097193 0
M  V30 28 C -4.880682 -3.263404 -1.450276 0
M  V30 29 C -0.385362 -3.024969 -0.748202 0
M  V30 30 C 0.472815 -2.046416 -0.268580 0
M  V30 31 C 1.720702 -1.730982 -0.763176 0
M  V30 32 C 2.564681 -2.218648 -1.852357 0
M  V30 33 C 3.020030 1.628970 -2.039827 0
M  V30 34 C 2.912336 3.136835 -2.035051 0
M  V30 35 H -0.702830 6.314485 2.851575 0
M  V30 36 H 1.043697 6.002430 3.217914 0
M  V30 37 H -0.276263 4.715345 3.482808 0
M  V30 38 H 0.036653 5.762392 0.710564 0
M  V30 39 H -0.410077 4.131437 1.249885 0
M  V30 40 H 4.655729 3.497973 0.818140 0
M  V30 41 H 5.131010 4.086273 -0.857758 0
M  V30 42 H 5.454871 1.522643 0.176925 0
M  V30 43 H 5.481345 1.936417 -1.583653 0
M  V30 44 H -1.217554 -0.733930 2.278902 0
M  V30 45 H -2.841363 -2.472036 1.500929 0
M  V30 46 H -3.428390 -4.011702 -3.914733 0
M  V30 47 H -1.991337 -3.458216 -3.059747 0
M  V30 48 H -4.245474 -1.958453 -4.295729 0
M  V30 49 H -1.520939 -2.068706 -4.440764 0
M  V30 50 H -1.668283 -0.725537 -3.288870 0
M  V30 51 H -2.487757 -0.549147 -4.843873 0
M  V30 52 H -4.454695 -0.191377 -2.798192 0
M  V30 53 H -3.125258 -0.712169 -1.735638 0
M  V30 54 H -6.028718 -1.525425 -1.875141 0
M  V30 55 H -4.001744 -0.677168 0.015354 0
M  V30 56 H -5.016888 -2.033377 0.638343 0
M  V30 57 H -5.792825 -0.492765 0.091314 0
M  V30 58 H -5.713339 -3.697680 -2.103417 0
M  V30 59 H -5.054531 -3.612128 -0.394703 0
M  V30 60 H -0.114853 -3.639239 -1.592315 0
M  V30 61 H 2.266531 -3.268574 -2.139019 0
M  V30 62 H 3.631153 -2.297897 -1.565677 0
M  V30 63 H 2.432541 -1.614833 -2.782833 0
M  V30 64 H 2.007572 1.189712 -2.116708 0
M  V30 65 H 3.599534 1.311540 -2.920410 0
M  V30 66 H 3.685001 3.641845 -2.638272 0
M  V30 67 H 1.907476 3.404072 -2.404010 0
M  V30 END ATOM
M  V30 BEGIN BOND
M  V30 1 1 1 2
M  V30 2 1 2 3
M  V30 3 1 3 4
M  V30 4 2 4 5
M  V30 5 1 4 6
M  V30 6 1 6 7
M  V30 7 1 7 8
M  V30 8 1 8 9
M  V30 9 1 9 10
M  V30 10 2 10 11
M  V30 11 1 10 12
M  V30 12 1 12 13
M  V30 13 1 13 14
M  V30 14 2 14 15
M  V30 15 1 15 16
M  V30 16 2 16 17
M  V30 17 1 17 18
M  V30 18 2 18 19
M  V30 19 2 18 20
M  V30 20 1 18 21
M  V30 21 1 21 22
M  V30 22 1 22 23
M  V30 23 1 23 24
M  V30 24 1 23 25
M  V30 25 1 25 26
M  V30 26 1 26 27
M  V30 27 1 26 28
M  V30 28 1 17 29
M  V30 29 2 29 30
M  V30 30 1 30 31
M  V30 31 1 31 32
M  V30 32 1 9 33
M  V30 33 1 33 34
M  V30 34 1 34 6
M  V30 35 2 31 12
M  V30 36 1 30 14
M  V30 37 1 28 21
M  V30 38 1 1 35
M  V30 39 1 1 36
M  V30 40 1 1 37
M  V30 41 1 2 38
M  V30 42 1 2 39
M  V30 43 1 7 40
M  V30 44 1 7 41
M  V30 45 1 8 42
M  V30 46 1 8 43
M  V30 47 1 15 44
M  V30 48 1 16 45
M  V30 49 1 22 46
M  V30 50 1 22 47
M  V30 51 1 23 48
M  V30 52 1 24 49
M  V30 53 1 24 50
M  V30 54 1 24 51
M  V30 55 1 25 52
M  V30 56 1 25 53
M  V30 57 1 26 54
M  V30 58 1 27 55
M  V30 59 1 27 56
M  V30 60 1 27 57
M  V30 61 1 28 58
M  V30 62 1 28 59
M  V30 63 1 29 60
M  V30 64 1 32 61
M  V30 65 1 32 62
M  V30 66 1 32 63
M  V30 67 1 33 64
M  V30 68 1 33 65
M  V30 69 1 34 66
M  V30 70 1 34 67
M  V30 END BOND
M  V30 END CTAB
M  END
>  <Dataset>  (9) 
ChEMBL_Kinases

>  <Ligand_Instance>  (9) 
nan

>  <PDB_ID>  (9) 
nan

>  <Standardized_SMILES>  (9) 
CCOC(=O)N1CCN(C(=O)c2oc3ccc(S(=O)(=O)N4CC(C)CC(C)C4)cc3c2C)CC1

>  <Name>  (9) 
nan

>  <Pocket>  (9) 
nan

>  <ATP_Site>  (9) 
nan

>  <Peripheral>  (9) 
nan

>  <Num_H_Atoms_ProtBoundConf>  (9) 
nan

>  <Num_Resolved_Atoms>  (9) 
nan

>  <Num_Not_Resolved_Atoms>  (9) 
nan

$$$$
CHEMBL1506188
     RDKit          3D

  0  0  0  0  0  0  0  0  0  0999 V3000
M  V30 BEGIN CTAB
M  V30 COUNTS 31 32 0 0 0
M  V30 BEGIN ATOM
M  V30 1 C 0.288977 -4.855919 4.966098 0
M  V30 2 O 0.286038 -4.269953 3.654103 0
M  V30 3 C -0.344106 -3.051070 3.481165 0
M  V30 4 O -0.879443 -2.534794 4.504733 0
M  V30 5 C -0.401311 -2.375886 2.191402 0
M  V30 6 C 0.148829 -2.852453 1.020707 0
M  V30 7 N 0.086776 -2.214685 -0.161058 0
M  V30 8 C -0.550870 -1.022310 -0.246166 0
M  V30 9 N -0.743322 -0.173148 -1.368940 0
M  V30 10 C 0.278504 0.778984 -1.638350 0
M  V30 11 C 1.404494 0.801138 -0.836846 0
M  V30 12 C 2.436767 1.697449 -1.038280 0
M  V30 13 C 2.364160 2.621287 -2.077407 0
M  V30 14 Cl 3.615328 3.791942 -2.415177 0
M  V30 15 C 1.244266 2.619193 -2.894282 0
M  V30 16 C 0.236944 1.710555 -2.661972 0
M  V30 17 C -1.135376 -0.474376 0.900680 0
M  V30 18 N -1.838038 0.768153 0.955846 0 CHG=1 VAL=4
M  V30 19 O -2.437760 1.039106 -0.124948 0
M  V30 20 O -1.802208 1.508770 2.103258 0 CHG=-1 VAL=1
M  V30 21 C -1.051480 -1.160596 2.104681 0
M  V30 22 H -0.460223 -5.651177 5.077996 0
M  V30 23 H 1.324017 -5.272315 5.091067 0
M  V30 24 H 0.146155 -4.095312 5.754527 0
M  V30 25 H 0.663163 -3.801888 1.057512 0
M  V30 26 H -1.552512 -0.134551 -2.059202 0
M  V30 27 H 1.550516 0.112270 0.006040 0
M  V30 28 H 3.319182 1.708537 -0.407678 0
M  V30 29 H 1.096467 3.306396 -3.735981 0
M  V30 30 H -0.642933 1.711388 -3.302680 0
M  V30 31 H -1.496365 -0.759047 3.014613 0
M  V30 END ATOM
M  V30 BEGIN BOND
M  V30 1 1 1 2
M  V30 2 1 2 3
M  V30 3 2 3 4
M  V30 4 1 3 5
M  V30 5 2 5 6
M  V30 6 1 6 7
M  V30 7 2 7 8
M  V30 8 1 8 9
M  V30 9 1 9 10
M  V30 10 2 10 11
M  V30 11 1 11 12
M  V30 12 2 12 13
M  V30 13 1 13 14
M  V30 14 1 13 15
M  V30 15 2 15 16
M  V30 16 1 8 17
M  V30 17 1 17 18
M  V30 18 2 18 19
M  V30 19 1 18 20
M  V30 20 2 17 21
M  V30 21 1 21 5
M  V30 22 1 16 10
M  V30 23 1 1 22
M  V30 24 1 1 23
M  V30 25 1 1 24
M  V30 26 1 6 25
M  V30 27 1 9 26
M  V30 28 1 11 27
M  V30 29 1 12 28
M  V30 30 1 15 29
M  V30 31 1 16 30
M  V30 32 1 21 31
M  V30 END BOND
M  V30 END CTAB
M  END
>  <Dataset>  (10) 
ChEMBL_Kinases

>  <Ligand_Instance>  (10) 
nan

>  <PDB_ID>  (10) 
nan

>  <Standardized_SMILES>  (10) 
COC(=O)c1cnc(Nc2ccc(Cl)cc2)c([N+](=O)[O-])c1

>  <Name>  (10) 
nan

>  <Pocket>  (10) 
nan

>  <ATP_Site>  (10) 
nan

>  <Peripheral>  (10) 
nan

>  <Num_H_Atoms_ProtBoundConf>  (10) 
nan

>  <Num_Resolved_Atoms>  (10) 
nan

>  <Num_Not_Resolved_Atoms>  (10) 
nan

$$$$
CHEMBL1506160
     RDKit          3D

  0  0  0  0  0  0  0  0  0  0999 V3000
M  V30 BEGIN CTAB
M  V30 COUNTS 39 41 0 0 0
M  V30 BEGIN ATOM
M  V30 1 C -0.787808 -5.028243 4.005735 0
M  V30 2 O -0.468884 -5.492177 2.729209 0
M  V30 3 C -0.044370 -4.711387 1.664567 0
M  V30 4 C 0.215414 -5.384323 0.490883 0
M  V30 5 C 0.642291 -4.725460 -0.636984 0
M  V30 6 C 0.821422 -3.345516 -0.609561 0
M  V30 7 C 0.561133 -2.668198 0.567801 0
M  V30 8 N 0.741968 -1.259189 0.602739 0
M  V30 9 C -0.340906 -0.413364 0.269543 0
M  V30 10 O -1.367359 -1.119423 -0.038979 0
M  V30 11 N -0.480189 0.995606 0.216208 0
M  V30 12 C -1.666863 1.597152 -0.378801 0
M  V30 13 C -1.345288 2.843907 -1.138543 0
M  V30 14 C 0.113669 3.132193 -1.278636 0
M  V30 15 C 0.905441 2.974594 -0.039056 0
M  V30 16 C 1.917249 3.777517 0.467769 0
M  V30 17 C 2.515698 3.432595 1.664197 0
M  V30 18 C 2.154013 2.316199 2.390647 0
M  V30 19 C 1.144524 1.491072 1.911561 0
M  V30 20 C 0.560218 1.858294 0.708743 0
M  V30 21 C 0.132923 -3.343292 1.692760 0
M  V30 22 H 0.074020 -5.161958 4.721943 0
M  V30 23 H -1.658808 -5.631039 4.359427 0
M  V30 24 H -1.043358 -3.960537 4.056752 0
M  V30 25 H 0.109217 -6.441353 0.366201 0
M  V30 26 H 0.860693 -5.194828 -1.579948 0
M  V30 27 H 1.153182 -2.784155 -1.463740 0
M  V30 28 H 1.625230 -0.759718 0.838914 0
M  V30 29 H -2.374861 1.791807 0.448983 0
M  V30 30 H -2.126090 0.820388 -1.021151 0
M  V30 31 H -1.775687 2.757405 -2.155785 0
M  V30 32 H -1.848663 3.700933 -0.648856 0
M  V30 33 H 0.252559 4.189345 -1.587383 0
M  V30 34 H 0.579389 2.508941 -2.069540 0
M  V30 35 H 2.136984 4.625567 -0.158958 0
M  V30 36 H 3.290425 4.112045 1.981095 0
M  V30 37 H 2.660247 2.096108 3.324495 0
M  V30 38 H 0.821572 0.603209 2.461817 0
M  V30 39 H -0.073382 -2.841523 2.610043 0
M  V30 END ATOM
M  V30 BEGIN BOND
M  V30 1 1 1 2
M  V30 2 1 2 3
M  V30 3 2 3 4
M  V30 4 1 4 5
M  V30 5 2 5 6
M  V30 6 1 6 7
M  V30 7 1 7 8
M  V30 8 1 8 9
M  V30 9 2 9 10
M  V30 10 1 9 11
M  V30 11 1 11 12
M  V30 12 1 12 13
M  V30 13 1 13 14
M  V30 14 1 14 15
M  V30 15 2 15 16
M  V30 16 1 16 17
M  V30 17 2 17 18
M  V30 18 1 18 19
M  V30 19 2 19 20
M  V30 20 2 7 21
M  V30 21 1 21 3
M  V30 22 1 20 11
M  V30 23 1 20 15
M  V30 24 1 1 22
M  V30 25 1 1 23
M  V30 26 1 1 24
M  V30 27 1 4 25
M  V30 28 1 5 26
M  V30 29 1 6 27
M  V30 30 1 8 28
M  V30 31 1 12 29
M  V30 32 1 12 30
M  V30 33 1 13 31
M  V30 34 1 13 32
M  V30 35 1 14 33
M  V30 36 1 14 34
M  V30 37 1 16 35
M  V30 38 1 17 36
M  V30 39 1 18 37
M  V30 40 1 19 38
M  V30 41 1 21 39
M  V30 END BOND
M  V30 END CTAB
M  END
>  <Dataset>  (11) 
ChEMBL_Kinases

>  <Ligand_Instance>  (11) 
nan

>  <PDB_ID>  (11) 
nan

>  <Standardized_SMILES>  (11) 
COc1cccc(NC(=O)N2CCCc3ccccc32)c1

>  <Name>  (11) 
nan

>  <Pocket>  (11) 
nan

>  <ATP_Site>  (11) 
nan

>  <Peripheral>  (11) 
nan

>  <Num_H_Atoms_ProtBoundConf>  (11) 
nan

>  <Num_Resolved_Atoms>  (11) 
nan

>  <Num_Not_Resolved_Atoms>  (11) 
nan

$$$$
CHEMBL1511011
     RDKit          3D

  0  0  0  0  0  0  0  0  0  0999 V3000
M  V30 BEGIN CTAB
M  V30 COUNTS 37 39 0 0 0
M  V30 BEGIN ATOM
M  V30 1 O 0.567693 -2.466604 -0.157134 0
M  V30 2 C -0.124667 -3.293685 0.457153 0
M  V30 3 C 0.432951 -4.516605 1.029596 0
M  V30 4 C 1.932350 -4.470010 1.078758 0
M  V30 5 S 2.678562 -3.269275 2.151684 0
M  V30 6 C 2.549834 -1.585708 1.646154 0
M  V30 7 N 3.218365 -1.166594 2.740167 0
M  V30 8 N 3.316005 0.174982 2.684581 0
M  V30 9 C 2.720648 0.590191 1.577911 0
M  V30 10 C 2.554498 1.939951 1.061111 0
M  V30 11 C 3.072132 2.981532 1.804566 0
M  V30 12 C 2.915790 4.274764 1.308662 0
M  V30 13 N 2.281613 4.504221 0.143557 0
M  V30 14 C 1.783756 3.483062 -0.568455 0
M  V30 15 C 1.907124 2.186078 -0.130332 0
M  V30 16 O 2.287722 -0.476830 1.003406 0
M  V30 17 N -1.503691 -3.000572 0.584086 0
M  V30 18 C -2.258676 -1.906741 0.126195 0
M  V30 19 C -3.614300 -1.837862 0.374323 0
M  V30 20 C -4.408996 -0.798600 -0.044173 0
M  V30 21 C -3.890732 0.263261 -0.753257 0
M  V30 22 C -2.537276 0.239096 -1.026151 0
M  V30 23 C -1.789162 -0.828234 -0.582034 0
M  V30 24 H 0.026256 -4.731275 2.056173 0
M  V30 25 H 0.148195 -5.373587 0.352785 0
M  V30 26 H 2.328912 -4.330581 0.007572 0
M  V30 27 H 2.345997 -5.510609 1.299439 0
M  V30 28 H 3.583765 2.791908 2.745175 0
M  V30 29 H 3.311512 5.125738 1.868957 0
M  V30 30 H 1.261775 3.606680 -1.517637 0
M  V30 31 H 1.533961 1.295064 -0.643222 0
M  V30 32 H -2.047743 -3.743374 1.119385 0
M  V30 33 H -4.103955 -2.636656 0.929232 0
M  V30 34 H -5.464863 -0.810335 0.186221 0
M  V30 35 H -4.549396 1.040716 -1.052745 0
M  V30 36 H -2.114711 1.064247 -1.581339 0
M  V30 37 H -0.753603 -0.764177 -0.837400 0
M  V30 END ATOM
M  V30 BEGIN BOND
M  V30 1 2 1 2
M  V30 2 1 2 3
M  V30 3 1 3 4
M  V30 4 1 4 5
M  V30 5 1 5 6
M  V30 6 2 6 7
M  V30 7 1 7 8
M  V30 8 2 8 9
M  V30 9 1 9 10
M  V30 10 2 10 11
M  V30 11 1 11 12
M  V30 12 2 12 13
M  V30 13 1 13 14
M  V30 14 2 14 15
M  V30 15 1 9 16
M  V30 16 1 2 17
M  V30 17 1 17 18
M  V30 18 2 18 19
M  V30 19 1 19 20
M  V30 20 2 20 21
M  V30 21 1 21 22
M  V30 22 2 22 23
M  V30 23 1 16 6
M  V30 24 1 23 18
M  V30 25 1 15 10
M  V30 26 1 3 24
M  V30 27 1 3 25
M  V30 28 1 4 26
M  V30 29 1 4 27
M  V30 30 1 11 28
M  V30 31 1 12 29
M  V30 32 1 14 30
M  V30 33 1 15 31
M  V30 34 1 17 32
M  V30 35 1 19 33
M  V30 36 1 20 34
M  V30 37 1 21 35
M  V30 38 1 22 36
M  V30 39 1 23 37
M  V30 END BOND
M  V30 END CTAB
M  END
>  <Dataset>  (12) 
ChEMBL_Kinases

>  <Ligand_Instance>  (12) 
nan

>  <PDB_ID>  (12) 
nan

>  <Standardized_SMILES>  (12) 
O=C(CCSc1nnc(-c2ccncc2)o1)Nc1ccccc1

>  <Name>  (12) 
nan

>  <Pocket>  (12) 
nan

>  <ATP_Site>  (12) 
nan

>  <Peripheral>  (12) 
nan

>  <Num_H_Atoms_ProtBoundConf>  (12) 
nan

>  <Num_Resolved_Atoms>  (12) 
nan

>  <Num_Not_Resolved_Atoms>  (12) 
nan

$$$$
CHEMBL1505493
     RDKit          3D

  0  0  0  0  0  0  0  0  0  0999 V3000
M  V30 BEGIN CTAB
M  V30 COUNTS 50 52 0 0 0
M  V30 BEGIN ATOM
M  V30 1 C 0.782730 -2.771909 6.950182 0
M  V30 2 C 2.213509 -2.718675 6.505155 0
M  V30 3 O 2.398892 -2.850523 5.125670 0
M  V30 4 C 1.868905 -1.982607 4.184244 0
M  V30 5 C 1.099270 -0.889675 4.504632 0
M  V30 6 C 0.632048 -0.102933 3.444662 0
M  V30 7 C 0.966148 -0.463724 2.154034 0
M  V30 8 C 0.441925 0.392419 1.095672 0
M  V30 9 C 1.160708 0.662016 0.029521 0
M  V30 10 S 2.815797 0.188073 -0.515502 0
M  V30 11 C 2.431023 0.341294 -2.282128 0
M  V30 12 S 3.048157 -0.387649 -3.595180 0
M  V30 13 N 1.391758 1.309133 -2.302626 0
M  V30 14 N 1.054361 2.044720 -3.472214 0
M  V30 15 S -0.143079 1.199767 -4.388187 0
M  V30 16 O -0.391898 2.041796 -5.618037 0
M  V30 17 O 0.351487 -0.127106 -4.870034 0
M  V30 18 C -1.615093 0.990287 -3.475315 0
M  V30 19 C -2.722061 1.805152 -3.373797 0
M  V30 20 C -3.783721 1.440792 -2.580358 0
M  V30 21 C -3.797824 0.283394 -1.869852 0
M  V30 22 C -4.944966 -0.104342 -1.013039 0
M  V30 23 C -2.726255 -0.550375 -1.941183 0
M  V30 24 C -1.653857 -0.198077 -2.733097 0
M  V30 25 C 0.681781 1.510656 -1.068793 0
M  V30 26 O -0.275609 2.344221 -0.927825 0
M  V30 27 C 1.749623 -1.576682 1.837294 0
M  V30 28 C 2.210656 -2.355369 2.905364 0
M  V30 29 O 2.983185 -3.447329 2.540147 0
M  V30 30 C 3.268709 -3.730333 1.198932 0
M  V30 31 H 0.529910 -1.872552 7.546820 0
M  V30 32 H 0.066581 -2.867822 6.129428 0
M  V30 33 H 0.615069 -3.626998 7.658709 0
M  V30 34 H 2.776445 -3.510541 7.044345 0
M  V30 35 H 2.633213 -1.712462 6.781208 0
M  V30 36 H 0.875850 -0.660191 5.518989 0
M  V30 37 H 0.021504 0.767890 3.635727 0
M  V30 38 H -0.552399 0.801248 1.206235 0
M  V30 39 H 0.750743 3.003749 -3.269451 0
M  V30 40 H -2.612314 2.704764 -3.979143 0
M  V30 41 H -4.601301 2.135577 -2.561205 0
M  V30 42 H -5.060753 0.732509 -0.265112 0
M  V30 43 H -4.687795 -0.994967 -0.377627 0
M  V30 44 H -5.865133 -0.254843 -1.601931 0
M  V30 45 H -2.734900 -1.481076 -1.372044 0
M  V30 46 H -0.833845 -0.933860 -2.729123 0
M  V30 47 H 1.982685 -1.816407 0.809128 0
M  V30 48 H 2.343913 -3.844297 0.578390 0
M  V30 49 H 3.902224 -4.636904 1.162340 0
M  V30 50 H 3.855514 -2.870665 0.805237 0
M  V30 END ATOM
M  V30 BEGIN BOND
M  V30 1 1 1 2
M  V30 2 1 2 3
M  V30 3 1 3 4
M  V30 4 2 4 5
M  V30 5 1 5 6
M  V30 6 2 6 7
M  V30 7 1 7 8
M  V30 8 2 8 9
M  V30 9 1 9 10
M  V30 10 1 10 11
M  V30 11 2 11 12
M  V30 12 1 11 13
M  V30 13 1 13 14
M  V30 14 1 14 15
M  V30 15 2 15 16
M  V30 16 2 15 17
M  V30 17 1 15 18
M  V30 18 2 18 19
M  V30 19 1 19 20
M  V30 20 2 20 21
M  V30 21 1 21 22
M  V30 22 1 21 23
M  V30 23 2 23 24
M  V30 24 1 13 25
M  V30 25 2 25 26
M  V30 26 1 7 27
M  V30 27 2 27 28
M  V30 28 1 28 29
M  V30 29 1 29 30
M  V30 30 1 28 4
M  V30 31 1 25 9
M  V30 32 1 24 18
M  V30 33 1 1 31
M  V30 34 1 1 32
M  V30 35 1 1 33
M  V30 36 1 2 34
M  V30 37 1 2 35
M  V30 38 1 5 36
M  V30 39 1 6 37
M  V30 40 1 8 38
M  V30 41 1 14 39
M  V30 42 1 19 40
M  V30 43 1 20 41
M  V30 44 1 22 42
M  V30 45 1 22 43
M  V30 46 1 22 44
M  V30 47 1 23 45
M  V30 48 1 24 46
M  V30 49 1 27 47
M  V30 50 1 30 48
M  V30 51 1 30 49
M  V30 52 1 30 50
M  V30 END BOND
M  V30 END CTAB
M  END
>  <Dataset>  (13) 
ChEMBL_Kinases

>  <Ligand_Instance>  (13) 
nan

>  <PDB_ID>  (13) 
nan

>  <Standardized_SMILES>  (13) 
CCOc1ccc(/C=C2\SC(=S)N(NS(=O)(=O)c3ccc(C)cc3)C2=O)cc1OC

>  <Name>  (13) 
nan

>  <Pocket>  (13) 
nan

>  <ATP_Site>  (13) 
nan

>  <Peripheral>  (13) 
nan

>  <Num_H_Atoms_ProtBoundConf>  (13) 
nan

>  <Num_Resolved_Atoms>  (13) 
nan

>  <Num_Not_Resolved_Atoms>  (13) 
nan

$$$$
CHEMBL1505620
     RDKit          3D

  0  0  0  0  0  0  0  0  0  0999 V3000
M  V30 BEGIN CTAB
M  V30 COUNTS 38 41 0 0 0
M  V30 BEGIN ATOM
M  V30 1 Cl 2.019694 -6.289623 2.032751 0
M  V30 2 C 1.647493 -4.601100 1.869191 0
M  V30 3 C 1.385587 -3.723836 2.897078 0
M  V30 4 C 1.108385 -2.414608 2.584636 0
M  V30 5 C 1.075033 -1.916480 1.294379 0
M  V30 6 C 1.339228 -2.805439 0.272554 0
M  V30 7 C 1.618834 -4.122648 0.575191 0
M  V30 8 C 1.243128 -2.065374 -0.887733 0
M  V30 9 C 1.402581 -2.403103 -2.216175 0
M  V30 10 C 1.238773 -1.415706 -3.166223 0
M  V30 11 Cl 1.433688 -1.807171 -4.867722 0
M  V30 12 C 0.919412 -0.097455 -2.825215 0
M  V30 13 C 0.775284 0.168197 -1.481589 0
M  V30 14 C 0.928104 -0.780345 -0.496968 0
M  V30 15 N 0.817374 -0.654867 0.838451 0
M  V30 16 C 0.511144 0.453053 1.686816 0
M  V30 17 N -0.862987 0.634064 1.982779 0
M  V30 18 C -1.754357 0.860628 0.899384 0
M  V30 19 C -1.801136 2.296360 0.438190 0
M  V30 20 O -0.921869 3.105403 1.150645 0
M  V30 21 C -1.104499 3.004787 2.523716 0
M  V30 22 C -1.137950 1.575884 3.019689 0
M  V30 23 H 1.415872 -4.128586 3.893308 0
M  V30 24 H 0.911143 -1.777618 3.445551 0
M  V30 25 H 1.814430 -4.745951 -0.309581 0
M  V30 26 H 1.651692 -3.430311 -2.485953 0
M  V30 27 H 0.793611 0.672657 -3.596918 0
M  V30 28 H 0.530285 1.183001 -1.225365 0
M  V30 29 H 1.040182 0.304976 2.660275 0
M  V30 30 H 0.988513 1.391451 1.277586 0
M  V30 31 H -1.664306 0.143240 0.069703 0
M  V30 32 H -2.790787 0.659873 1.309023 0
M  V30 33 H -1.486258 2.331561 -0.625152 0
M  V30 34 H -2.819637 2.736525 0.448294 0
M  V30 35 H -1.956402 3.573297 2.916978 0
M  V30 36 H -0.190949 3.473503 2.969338 0
M  V30 37 H -0.453386 1.415725 3.851927 0
M  V30 38 H -2.190225 1.374903 3.359340 0
M  V30 END ATOM
M  V30 BEGIN BOND
M  V30 1 1 1 2
M  V30 2 2 2 3
M  V30 3 1 3 4
M  V30 4 2 4 5
M  V30 5 1 5 6
M  V30 6 2 6 7
M  V30 7 1 6 8
M  V30 8 2 8 9
M  V30 9 1 9 10
M  V30 10 1 10 11
M  V30 11 2 10 12
M  V30 12 1 12 13
M  V30 13 2 13 14
M  V30 14 1 14 15
M  V30 15 1 15 16
M  V30 16 1 16 17
M  V30 17 1 17 18
M  V30 18 1 18 19
M  V30 19 1 19 20
M  V30 20 1 20 21
M  V30 21 1 21 22
M  V30 22 1 7 2
M  V30 23 1 14 8
M  V30 24 1 22 17
M  V30 25 1 15 5
M  V30 26 1 3 23
M  V30 27 1 4 24
M  V30 28 1 7 25
M  V30 29 1 9 26
M  V30 30 1 12 27
M  V30 31 1 13 28
M  V30 32 1 16 29
M  V30 33 1 16 30
M  V30 34 1 18 31
M  V30 35 1 18 32
M  V30 36 1 19 33
M  V30 37 1 19 34
M  V30 38 1 21 35
M  V30 39 1 21 36
M  V30 40 1 22 37
M  V30 41 1 22 38
M  V30 END BOND
M  V30 END CTAB
M  END
>  <Dataset>  (14) 
ChEMBL_Kinases

>  <Ligand_Instance>  (14) 
nan

>  <PDB_ID>  (14) 
nan

>  <Standardized_SMILES>  (14) 
Clc1ccc2c(c1)c1cc(Cl)ccc1n2CN1CCOCC1

>  <Name>  (14) 
nan

>  <Pocket>  (14) 
nan

>  <ATP_Site>  (14) 
nan

>  <Peripheral>  (14) 
nan

>  <Num_H_Atoms_ProtBoundConf>  (14) 
nan

>  <Num_Resolved_Atoms>  (14) 
nan

>  <Num_Not_Resolved_Atoms>  (14) 
nan

$$$$
CHEMBL1505668
     RDKit          3D

  0  0  0  0  0  0  0  0  0  0999 V3000
M  V30 BEGIN CTAB
M  V30 COUNTS 23 24 0 0 0
M  V30 BEGIN ATOM
M  V30 1 C 3.385851 0.910238 3.755187 0
M  V30 2 C 2.330502 0.536638 2.784140 0
M  V30 3 N 1.355695 -0.362057 2.972571 0
M  V30 4 C 0.410426 -0.692852 2.095170 0
M  V30 5 O -0.446366 -1.653443 2.595766 0
M  V30 6 C 0.376950 -0.091838 0.862619 0
M  V30 7 C -0.510679 -0.302535 -0.156455 0
M  V30 8 C -1.658696 -1.244171 -0.169493 0
M  V30 9 C -0.388759 0.391478 -1.319185 0
M  V30 10 C -1.056332 0.490048 -2.589800 0
M  V30 11 S 1.092356 1.456823 -1.017220 0
M  V30 12 C 1.394755 0.855784 0.647769 0
M  V30 13 N 2.313190 1.133894 1.585156 0
M  V30 14 H 3.348083 0.312173 4.660827 0
M  V30 15 H 4.370567 0.913979 3.251016 0
M  V30 16 H 3.200052 1.989251 4.017426 0
M  V30 17 H -1.276770 -1.343478 3.088366 0
M  V30 18 H -1.597528 -1.944590 -1.050218 0
M  V30 19 H -1.720254 -1.895676 0.702665 0
M  V30 20 H -2.607620 -0.675046 -0.323443 0
M  V30 21 H -1.046469 1.544465 -2.936887 0
M  V30 22 H -0.599006 -0.119215 -3.382349 0
M  V30 23 H -2.155302 0.266974 -2.464515 0
M  V30 END ATOM
M  V30 BEGIN BOND
M  V30 1 1 1 2
M  V30 2 2 2 3
M  V30 3 1 3 4
M  V30 4 1 4 5
M  V30 5 2 4 6
M  V30 6 1 6 7
M  V30 7 1 7 8
M  V30 8 2 7 9
M  V30 9 1 9 10
M  V30 10 1 9 11
M  V30 11 1 11 12
M  V30 12 2 12 13
M  V30 13 1 13 2
M  V30 14 1 12 6
M  V30 15 1 1 14
M  V30 16 1 1 15
M  V30 17 1 1 16
M  V30 18 1 5 17
M  V30 19 1 8 18
M  V30 20 1 8 19
M  V30 21 1 8 20
M  V30 22 1 10 21
M  V30 23 1 10 22
M  V30 24 1 10 23
M  V30 END BOND
M  V30 END CTAB
M  END
>  <Dataset>  (15) 
ChEMBL_Kinases

>  <Ligand_Instance>  (15) 
nan

>  <PDB_ID>  (15) 
nan

>  <Standardized_SMILES>  (15) 
Cc1nc(O)c2c(C)c(C)sc2n1

>  <Name>  (15) 
nan

>  <Pocket>  (15) 
nan

>  <ATP_Site>  (15) 
nan

>  <Peripheral>  (15) 
nan

>  <Num_H_Atoms_ProtBoundConf>  (15) 
nan

>  <Num_Resolved_Atoms>  (15) 
nan

>  <Num_Not_Resolved_Atoms>  (15) 
nan

$$$$
CHEMBL1505683
     RDKit          3D

  0  0  0  0  0  0  0  0  0  0999 V3000
M  V30 BEGIN CTAB
M  V30 COUNTS 45 48 0 0 0
M  V30 BEGIN ATOM
M  V30 1 O 0.817466 -1.805600 2.792032 0
M  V30 2 C 0.092695 -1.205326 1.946643 0
M  V30 3 N 0.114052 -1.799578 0.662079 0
M  V30 4 C 0.885699 -2.989174 0.297948 0
M  V30 5 C 2.362857 -2.812065 0.475519 0
M  V30 6 N 3.076663 -3.992438 0.111616 0
M  V30 7 C 3.093006 -4.342466 -1.264461 0
M  V30 8 C 4.112188 -3.548824 -2.057091 0
M  V30 9 O 4.639607 -2.529520 -1.268832 0
M  V30 10 C 5.327572 -3.056397 -0.176301 0
M  V30 11 C 4.439398 -3.948686 0.634807 0
M  V30 12 C -0.641955 -0.030086 2.377211 0
M  V30 13 N -0.515938 0.373994 3.670717 0
M  V30 14 O -1.240865 1.433405 3.866479 0
M  V30 15 C -1.871714 1.798006 2.779044 0
M  V30 16 C -1.504549 0.873193 1.803936 0
M  V30 17 C -1.985296 0.903926 0.424418 0
M  V30 18 C -2.917886 2.022456 0.093695 0
M  V30 19 C -3.243485 2.934781 1.188671 0
M  V30 20 C -4.121131 3.941829 0.815925 0
M  V30 21 C -4.526687 4.895268 1.752483 0
M  V30 22 C -4.018043 4.778582 3.029631 0
M  V30 23 C -3.144758 3.801456 3.457275 0
M  V30 24 C -2.786517 2.896393 2.487459 0
M  V30 25 H -0.473303 -1.336958 -0.064762 0
M  V30 26 H 0.631207 -3.244356 -0.747613 0
M  V30 27 H 0.532141 -3.871326 0.902371 0
M  V30 28 H 2.595090 -2.571201 1.546822 0
M  V30 29 H 2.696046 -1.921641 -0.128836 0
M  V30 30 H 2.119034 -4.143491 -1.734935 0
M  V30 31 H 3.319762 -5.433971 -1.340023 0
M  V30 32 H 4.963377 -4.177880 -2.384839 0
M  V30 33 H 3.698944 -3.082838 -2.972485 0
M  V30 34 H 5.692175 -2.199466 0.410068 0
M  V30 35 H 6.228535 -3.621301 -0.498091 0
M  V30 36 H 4.818593 -4.969326 0.742431 0
M  V30 37 H 4.353690 -3.512841 1.662468 0
M  V30 38 H -1.109594 0.930792 -0.281923 0
M  V30 39 H -2.471914 -0.096595 0.240842 0
M  V30 40 H -2.503255 2.661074 -0.740892 0
M  V30 41 H -3.844428 1.583056 -0.355656 0
M  V30 42 H -4.551388 4.082509 -0.169390 0
M  V30 43 H -5.213138 5.698173 1.496458 0
M  V30 44 H -4.331700 5.524187 3.771456 0
M  V30 45 H -2.763423 3.737268 4.465771 0
M  V30 END ATOM
M  V30 BEGIN BOND
M  V30 1 2 1 2
M  V30 2 1 2 3
M  V30 3 1 3 4
M  V30 4 1 4 5
M  V30 5 1 5 6
M  V30 6 1 6 7
M  V30 7 1 7 8
M  V30 8 1 8 9
M  V30 9 1 9 10
M  V30 10 1 10 11
M  V30 11 1 2 12
M  V30 12 2 12 13
M  V30 13 1 13 14
M  V30 14 1 14 15
M  V30 15 2 15 16
M  V30 16 1 16 17
M  V30 17 1 17 18
M  V30 18 1 18 19
M  V30 19 2 19 20
M  V30 20 1 20 21
M  V30 21 2 21 22
M  V30 22 1 22 23
M  V30 23 2 23 24
M  V30 24 1 11 6
M  V30 25 1 16 12
M  V30 26 1 24 19
M  V30 27 1 24 15
M  V30 28 1 3 25
M  V30 29 1 4 26
M  V30 30 1 4 27
M  V30 31 1 5 28
M  V30 32 1 5 29
M  V30 33 1 7 30
M  V30 34 1 7 31
M  V30 35 1 8 32
M  V30 36 1 8 33
M  V30 37 1 10 34
M  V30 38 1 10 35
M  V30 39 1 11 36
M  V30 40 1 11 37
M  V30 41 1 17 38
M  V30 42 1 17 39
M  V30 43 1 18 40
M  V30 44 1 18 41
M  V30 45 1 20 42
M  V30 46 1 21 43
M  V30 47 1 22 44
M  V30 48 1 23 45
M  V30 END BOND
M  V30 END CTAB
M  END
>  <Dataset>  (16) 
ChEMBL_Kinases

>  <Ligand_Instance>  (16) 
nan

>  <PDB_ID>  (16) 
nan

>  <Standardized_SMILES>  (16) 
O=C(NCCN1CCOCC1)c1noc2c1CCc1ccccc1-2

>  <Name>  (16) 
nan

>  <Pocket>  (16) 
nan

>  <ATP_Site>  (16) 
nan

>  <Peripheral>  (16) 
nan

>  <Num_H_Atoms_ProtBoundConf>  (16) 
nan

>  <Num_Resolved_Atoms>  (16) 
nan

>  <Num_Not_Resolved_Atoms>  (16) 
nan

$$$$
CHEMBL1505696
     RDKit          3D

  0  0  0  0  0  0  0  0  0  0999 V3000
M  V30 BEGIN CTAB
M  V30 COUNTS 58 62 0 0 0
M  V30 BEGIN ATOM
M  V30 1 O 3.518214 -1.341793 0.777046 0
M  V30 2 C 3.107255 -1.275652 -0.421452 0
M  V30 3 C 3.314993 -2.522451 -1.092802 0
M  V30 4 C 2.373039 -3.376905 -1.563627 0
M  V30 5 C 3.052714 -4.443184 -2.134563 0
M  V30 6 C 4.377154 -4.145920 -1.959702 0
M  V30 7 O 4.520818 -3.011781 -1.344952 0
M  V30 8 N 2.626114 0.045030 -0.516435 0
M  V30 9 C 2.802780 0.720496 0.748114 0
M  V30 10 C 1.997629 1.960307 0.916193 0
M  V30 11 N 1.078721 2.230976 -0.190509 0
M  V30 12 C -0.337796 2.532829 -0.200445 0
M  V30 13 O -1.010076 2.762043 -1.255651 0
M  V30 14 C -0.723377 2.497049 1.230437 0
M  V30 15 C -0.612113 3.571679 2.083210 0
M  V30 16 C -0.975664 3.342591 3.388363 0
M  V30 17 C -1.434034 2.111885 3.860948 0
M  V30 18 C -1.532242 1.049793 2.965143 0
M  V30 19 C -1.175026 1.274122 1.672077 0
M  V30 20 C -1.445617 0.003693 1.028773 0
M  V30 21 O -1.254382 -0.247743 -0.197087 0
M  V30 22 N -1.963963 -0.976080 1.921228 0
M  V30 23 C -2.426187 -2.313587 1.574679 0
M  V30 24 C -3.735552 -2.218833 0.813779 0
M  V30 25 C -3.906164 -3.544452 0.097419 0
M  V30 26 C -2.921702 -3.454842 -1.068719 0
M  V30 27 C -1.535154 -3.474186 -0.503616 0
M  V30 28 C -1.401830 -3.169841 0.945052 0
M  V30 29 C -1.957150 -0.333838 3.250022 0
M  V30 30 C 1.819200 2.149426 -1.429417 0
M  V30 31 C 2.050812 0.669041 -1.687269 0
M  V30 32 H 1.304251 -3.348304 -1.560812 0
M  V30 33 H 2.793470 -5.354386 -2.634534 0
M  V30 34 H 5.266882 -4.693232 -2.246581 0
M  V30 35 H 2.548364 0.043107 1.606919 0
M  V30 36 H 3.904885 0.928817 0.890139 0
M  V30 37 H 1.464408 1.981644 1.884860 0
M  V30 38 H 2.674981 2.844810 0.938917 0
M  V30 39 H -0.256280 4.514491 1.695829 0
M  V30 40 H -0.886755 4.200486 4.065500 0
M  V30 41 H -1.676670 2.107983 4.923889 0
M  V30 42 H -2.734127 -2.782027 2.555947 0
M  V30 43 H -4.597007 -2.103866 1.490780 0
M  V30 44 H -3.757678 -1.348012 0.109261 0
M  V30 45 H -4.928685 -3.736191 -0.214383 0
M  V30 46 H -3.487922 -4.348375 0.756000 0
M  V30 47 H -3.106970 -2.433758 -1.519746 0
M  V30 48 H -3.137134 -4.186401 -1.843102 0
M  V30 49 H -1.113398 -4.489299 -0.694884 0
M  V30 50 H -0.920600 -2.773557 -1.136313 0
M  V30 51 H -0.406909 -2.675533 1.091362 0
M  V30 52 H -1.278245 -4.137931 1.513183 0
M  V30 53 H -1.126184 -0.851485 3.797387 0
M  V30 54 H -2.908063 -0.425017 3.770197 0
M  V30 55 H 1.257418 2.596170 -2.268912 0
M  V30 56 H 2.800241 2.635255 -1.352029 0
M  V30 57 H 2.693571 0.529835 -2.586947 0
M  V30 58 H 1.067352 0.197056 -1.850897 0
M  V30 END ATOM
M  V30 BEGIN BOND
M  V30 1 2 1 2
M  V30 2 1 2 3
M  V30 3 2 3 4
M  V30 4 1 4 5
M  V30 5 2 5 6
M  V30 6 1 6 7
M  V30 7 1 2 8
M  V30 8 1 8 9
M  V30 9 1 9 10
M  V30 10 1 10 11
M  V30 11 1 11 12
M  V30 12 2 12 13
M  V30 13 1 12 14
M  V30 14 2 14 15
M  V30 15 1 15 16
M  V30 16 2 16 17
M  V30 17 1 17 18
M  V30 18 2 18 19
M  V30 19 1 19 20
M  V30 20 2 20 21
M  V30 21 1 20 22
M  V30 22 1 22 23
M  V30 23 1 23 24
M  V30 24 1 24 25
M  V30 25 1 25 26
M  V30 26 1 26 27
M  V30 27 1 27 28
M  V30 28 1 22 29
M  V30 29 1 11 30
M  V30 30 1 30 31
M  V30 31 1 7 3
M  V30 32 1 31 8
M  V30 33 1 19 14
M  V30 34 1 28 23
M  V30 35 1 29 18
M  V30 36 1 4 32
M  V30 37 1 5 33
M  V30 38 1 6 34
M  V30 39 1 9 35
M  V30 40 1 9 36
M  V30 41 1 10 37
M  V30 42 1 10 38
M  V30 43 1 15 39
M  V30 44 1 16 40
M  V30 45 1 17 41
M  V30 46 1 23 42
M  V30 47 1 24 43
M  V30 48 1 24 44
M  V30 49 1 25 45
M  V30 50 1 25 46
M  V30 51 1 26 47
M  V30 52 1 26 48
M  V30 53 1 27 49
M  V30 54 1 27 50
M  V30 55 1 28 51
M  V30 56 1 28 52
M  V30 57 1 29 53
M  V30 58 1 29 54
M  V30 59 1 30 55
M  V30 60 1 30 56
M  V30 61 1 31 57
M  V30 62 1 31 58
M  V30 END BOND
M  V30 END CTAB
M  END
>  <Dataset>  (17) 
ChEMBL_Kinases

>  <Ligand_Instance>  (17) 
nan

>  <PDB_ID>  (17) 
nan

>  <Standardized_SMILES>  (17) 
O=C(c1ccco1)N1CCN(C(=O)c2cccc3c2C(=O)N(C2CCCCC2)C3)CC1

>  <Name>  (17) 
nan

>  <Pocket>  (17) 
nan

>  <ATP_Site>  (17) 
nan

>  <Peripheral>  (17) 
nan

>  <Num_H_Atoms_ProtBoundConf>  (17) 
nan

>  <Num_Resolved_Atoms>  (17) 
nan

>  <Num_Not_Resolved_Atoms>  (17) 
nan

$$$$
CHEMBL1505698
     RDKit          3D

  0  0  0  0  0  0  0  0  0  0999 V3000
M  V30 BEGIN CTAB
M  V30 COUNTS 43 45 0 0 0
M  V30 BEGIN ATOM
M  V30 1 C -0.411963 -5.237906 2.548970 0
M  V30 2 O 0.830696 -4.919649 1.959287 0
M  V30 3 C 0.829663 -4.114547 0.831054 0
M  V30 4 C -0.266388 -3.570203 0.195221 0
M  V30 5 C -0.017351 -2.796498 -0.917878 0
M  V30 6 C 1.234062 -2.535960 -1.428304 0
M  V30 7 C 1.422631 -1.688733 -2.636879 0
M  V30 8 S 1.608771 0.024284 -2.067544 0
M  V30 9 C 0.096882 0.652199 -1.323553 0
M  V30 10 C 0.397404 2.087490 -0.883372 0
M  V30 11 C 1.512418 2.063147 0.097774 0
M  V30 12 N 2.846979 2.141054 -0.062541 0
M  V30 13 N 3.451161 2.073953 1.118520 0
M  V30 14 C 2.458675 1.951590 2.028929 0
M  V30 15 S 2.694776 1.817257 3.813329 0
M  V30 16 N 1.239480 1.941995 1.422053 0
M  V30 17 C -0.028220 1.826353 2.086515 0
M  V30 18 C -0.675298 0.646937 2.435937 0
M  V30 19 C -1.889783 0.769550 3.068837 0
M  V30 20 C -2.461086 2.005081 3.355478 0
M  V30 21 C -1.804570 3.175037 3.001618 0
M  V30 22 C -0.576426 3.059540 2.361184 0
M  V30 23 C 2.328359 -3.084776 -0.786154 0
M  V30 24 C 2.101262 -3.862376 0.330075 0
M  V30 25 H -0.322318 -6.135644 3.210012 0
M  V30 26 H -0.720086 -4.352898 3.177838 0
M  V30 27 H -1.177232 -5.476103 1.782716 0
M  V30 28 H -1.226812 -3.798535 0.625900 0
M  V30 29 H -0.898392 -2.382410 -1.396367 0
M  V30 30 H 0.623240 -1.819747 -3.368018 0
M  V30 31 H 2.390268 -1.973089 -3.093636 0
M  V30 32 H -0.324240 0.041372 -0.525624 0
M  V30 33 H -0.667236 0.715525 -2.137278 0
M  V30 34 H 0.768130 2.610103 -1.792310 0
M  V30 35 H -0.488708 2.616481 -0.530493 0
M  V30 36 H 3.139830 0.494221 4.070563 0
M  V30 37 H -0.155467 -0.258015 2.173153 0
M  V30 38 H -2.390314 -0.147625 3.338466 0
M  V30 39 H -3.418320 2.052035 3.854763 0
M  V30 40 H -2.273682 4.124218 3.238046 0
M  V30 41 H -0.142251 4.022325 2.125015 0
M  V30 42 H 3.318147 -2.884252 -1.182598 0
M  V30 43 H 3.018277 -4.252161 0.770085 0
M  V30 END ATOM
M  V30 BEGIN BOND
M  V30 1 1 1 2
M  V30 2 1 2 3
M  V30 3 2 3 4
M  V30 4 1 4 5
M  V30 5 2 5 6
M  V30 6 1 6 7
M  V30 7 1 7 8
M  V30 8 1 8 9
M  V30 9 1 9 10
M  V30 10 1 10 11
M  V30 11 2 11 12
M  V30 12 1 12 13
M  V30 13 2 13 14
M  V30 14 1 14 15
M  V30 15 1 14 16
M  V30 16 1 16 17
M  V30 17 2 17 18
M  V30 18 1 18 19
M  V30 19 2 19 20
M  V30 20 1 20 21
M  V30 21 2 21 22
M  V30 22 1 6 23
M  V30 23 2 23 24
M  V30 24 1 24 3
M  V30 25 1 16 11
M  V30 26 1 22 17
M  V30 27 1 1 25
M  V30 28 1 1 26
M  V30 29 1 1 27
M  V30 30 1 4 28
M  V30 31 1 5 29
M  V30 32 1 7 30
M  V30 33 1 7 31
M  V30 34 1 9 32
M  V30 35 1 9 33
M  V30 36 1 10 34
M  V30 37 1 10 35
M  V30 38 1 15 36
M  V30 39 1 18 37
M  V30 40 1 19 38
M  V30 41 1 20 39
M  V30 42 1 21 40
M  V30 43 1 22 41
M  V30 44 1 23 42
M  V30 45 1 24 43
M  V30 END BOND
M  V30 END CTAB
M  END
>  <Dataset>  (18) 
ChEMBL_Kinases

>  <Ligand_Instance>  (18) 
nan

>  <PDB_ID>  (18) 
nan

>  <Standardized_SMILES>  (18) 
COc1ccc(CSCCc2nnc(S)n2-c2ccccc2)cc1

>  <Name>  (18) 
nan

>  <Pocket>  (18) 
nan

>  <ATP_Site>  (18) 
nan

>  <Peripheral>  (18) 
nan

>  <Num_H_Atoms_ProtBoundConf>  (18) 
nan

>  <Num_Resolved_Atoms>  (18) 
nan

>  <Num_Not_Resolved_Atoms>  (18) 
nan

$$$$
CHEMBL1505711
     RDKit          3D

  0  0  0  0  0  0  0  0  0  0999 V3000
M  V30 BEGIN CTAB
M  V30 COUNTS 40 43 0 0 0
M  V30 BEGIN ATOM
M  V30 1 C 3.117850 -3.136897 0.663848 0
M  V30 2 C 4.168130 -2.222311 0.110925 0
M  V30 3 O 3.586204 -0.991722 -0.269399 0
M  V30 4 C 2.587304 -0.896464 -1.225794 0
M  V30 5 C 1.976801 -1.884592 -1.968233 0
M  V30 6 C 0.995273 -1.558498 -2.872927 0
M  V30 7 C 0.592047 -0.257399 -3.068502 0
M  V30 8 C 1.193252 0.764205 -2.330052 0
M  V30 9 C 2.187461 0.419038 -1.415881 0
M  V30 10 N 2.732089 1.555859 -0.714238 0
M  V30 11 N 3.917553 2.149459 -0.861001 0
M  V30 12 N 4.023496 3.152968 -0.027624 0
M  V30 13 N 2.908406 3.250044 0.694153 0
M  V30 14 C 2.103079 2.260461 0.271665 0
M  V30 15 S 0.448003 1.838638 0.838280 0
M  V30 16 C 0.525553 0.648132 2.189509 0
M  V30 17 C -0.897455 0.373487 2.573889 0
M  V30 18 N -1.764291 0.705010 3.253841 0
M  V30 19 C -2.985330 0.230469 3.371325 0
M  V30 20 C -4.046668 0.599489 4.170872 0
M  V30 21 C -5.240736 -0.069798 4.102511 0
M  V30 22 C -5.498390 -1.138931 3.262453 0
M  V30 23 C -4.490204 -1.572146 2.429174 0
M  V30 24 C -3.299812 -0.874335 2.524602 0
M  V30 25 S -1.655372 -1.078629 1.613679 0
M  V30 26 H 2.086639 -2.728232 0.632922 0
M  V30 27 H 3.141767 -4.130157 0.175214 0
M  V30 28 H 3.423445 -3.345862 1.728472 0
M  V30 29 H 5.058765 -2.100904 0.729024 0
M  V30 30 H 4.526769 -2.680669 -0.854910 0
M  V30 31 H 2.358067 -2.871588 -1.746744 0
M  V30 32 H 0.562977 -2.402920 -3.420470 0
M  V30 33 H -0.196098 -0.068412 -3.805930 0
M  V30 34 H 0.866880 1.785808 -2.493174 0
M  V30 35 H 1.074602 -0.274325 1.915174 0
M  V30 36 H 1.078144 1.119629 3.026652 0
M  V30 37 H -3.989554 1.412450 4.871240 0
M  V30 38 H -6.078601 0.238074 4.748354 0
M  V30 39 H -6.415642 -1.695924 3.171649 0
M  V30 40 H -4.478922 -2.370949 1.711279 0
M  V30 END ATOM
M  V30 BEGIN BOND
M  V30 1 1 1 2
M  V30 2 1 2 3
M  V30 3 1 3 4
M  V30 4 2 4 5
M  V30 5 1 5 6
M  V30 6 2 6 7
M  V30 7 1 7 8
M  V30 8 2 8 9
M  V30 9 1 9 10
M  V30 10 1 10 11
M  V30 11 2 11 12
M  V30 12 1 12 13
M  V30 13 2 13 14
M  V30 14 1 14 15
M  V30 15 1 15 16
M  V30 16 1 16 17
M  V30 17 2 17 18
M  V30 18 1 18 19
M  V30 19 2 19 20
M  V30 20 1 20 21
M  V30 21 2 21 22
M  V30 22 1 22 23
M  V30 23 2 23 24
M  V30 24 1 24 25
M  V30 25 1 9 4
M  V30 26 1 14 10
M  V30 27 1 25 17
M  V30 28 1 24 19
M  V30 29 1 1 26
M  V30 30 1 1 27
M  V30 31 1 1 28
M  V30 32 1 2 29
M  V30 33 1 2 30
M  V30 34 1 5 31
M  V30 35 1 6 32
M  V30 36 1 7 33
M  V30 37 1 8 34
M  V30 38 1 16 35
M  V30 39 1 16 36
M  V30 40 1 20 37
M  V30 41 1 21 38
M  V30 42 1 22 39
M  V30 43 1 23 40
M  V30 END BOND
M  V30 END CTAB
M  END
>  <Dataset>  (19) 
ChEMBL_Kinases

>  <Ligand_Instance>  (19) 
nan

>  <PDB_ID>  (19) 
nan

>  <Standardized_SMILES>  (19) 
CCOc1ccccc1-n1nnnc1SCc1nc2ccccc2s1

>  <Name>  (19) 
nan

>  <Pocket>  (19) 
nan

>  <ATP_Site>  (19) 
nan

>  <Peripheral>  (19) 
nan

>  <Num_H_Atoms_ProtBoundConf>  (19) 
nan

>  <Num_Resolved_Atoms>  (19) 
nan

>  <Num_Not_Resolved_Atoms>  (19) 
nan

$$$$
CHEMBL1506121
     RDKit          3D

  0  0  0  0  0  0  0  0  0  0999 V3000
M  V30 BEGIN CTAB
M  V30 COUNTS 49 52 0 0 0
M  V30 BEGIN ATOM
M  V30 1 C -0.135607 -4.053145 2.608393 0
M  V30 2 C -0.203608 -4.108633 1.108931 0
M  V30 3 C -0.634776 -5.181080 0.392095 0
M  V30 4 C -0.657321 -5.134628 -0.983457 0
M  V30 5 C -0.252379 -4.019862 -1.706173 0
M  V30 6 C 0.196770 -2.899542 -1.013857 0
M  V30 7 N 0.659768 -1.675910 -1.624581 0
M  V30 8 C 0.976674 -0.566368 -0.762917 0
M  V30 9 N 2.178757 -0.532009 -0.125262 0
M  V30 10 C 2.264934 0.585467 0.620009 0
M  V30 11 C 1.059760 1.220315 0.399658 0
M  V30 12 C 0.863364 2.417145 1.044083 0
M  V30 13 O -0.176136 3.070689 0.917067 0
M  V30 14 N 1.782302 2.962545 1.854104 0
M  V30 15 C 1.589167 4.231027 2.543490 0
M  V30 16 C 2.956644 2.340722 2.068154 0
M  V30 17 O 3.899327 2.768153 2.817704 0
M  V30 18 N 3.162431 1.161997 1.439015 0
M  V30 19 C 4.415645 0.409048 1.613213 0
M  V30 20 N 0.238653 0.539393 -0.447975 0
M  V30 21 C -1.067899 0.827815 -0.925334 0
M  V30 22 C -2.174629 0.252237 -0.129471 0
M  V30 23 C -2.809759 0.747748 0.985498 0
M  V30 24 C -3.831172 0.121573 1.629765 0
M  V30 25 C -4.280415 -1.086524 1.160247 0
M  V30 26 C -3.719471 -1.683616 0.046649 0
M  V30 27 C -2.692669 -0.983014 -0.544029 0
M  V30 28 C 0.196049 -3.008128 0.381849 0
M  V30 29 H -0.024640 -2.971117 2.906762 0
M  V30 30 H 0.799821 -4.538853 2.984182 0
M  V30 31 H -1.035284 -4.470543 3.083281 0
M  V30 32 H -0.958977 -6.071087 0.940510 0
M  V30 33 H -1.007649 -6.005060 -1.535952 0
M  V30 34 H -0.257695 -3.949421 -2.782278 0
M  V30 35 H 0.710130 -1.752116 -2.678230 0
M  V30 36 H 2.484002 4.882589 2.488999 0
M  V30 37 H 1.354343 4.006026 3.603889 0
M  V30 38 H 0.690371 4.705911 2.109576 0
M  V30 39 H 4.968386 0.769118 2.503986 0
M  V30 40 H 4.989944 0.349557 0.691706 0
M  V30 41 H 4.098930 -0.628286 1.873128 0
M  V30 42 H -1.291446 1.909378 -1.017970 0
M  V30 43 H -1.159752 0.451154 -1.988237 0
M  V30 44 H -2.455700 1.686328 1.340955 0
M  V30 45 H -4.254505 0.610656 2.500389 0
M  V30 46 H -5.100850 -1.585165 1.680855 0
M  V30 47 H -4.047248 -2.627241 -0.345133 0
M  V30 48 H -2.257083 -1.457146 -1.427123 0
M  V30 49 H 0.543397 -2.145547 0.945440 0
M  V30 END ATOM
M  V30 BEGIN BOND
M  V30 1 1 1 2
M  V30 2 2 2 3
M  V30 3 1 3 4
M  V30 4 2 4 5
M  V30 5 1 5 6
M  V30 6 1 6 7
M  V30 7 1 7 8
M  V30 8 2 8 9
M  V30 9 1 9 10
M  V30 10 2 10 11
M  V30 11 1 11 12
M  V30 12 2 12 13
M  V30 13 1 12 14
M  V30 14 1 14 15
M  V30 15 1 14 16
M  V30 16 2 16 17
M  V30 17 1 16 18
M  V30 18 1 18 19
M  V30 19 1 11 20
M  V30 20 1 20 21
M  V30 21 1 21 22
M  V30 22 2 22 23
M  V30 23 1 23 24
M  V30 24 2 24 25
M  V30 25 1 25 26
M  V30 26 2 26 27
M  V30 27 2 6 28
M  V30 28 1 28 2
M  V30 29 1 20 8
M  V30 30 1 27 22
M  V30 31 1 18 10
M  V30 32 1 1 29
M  V30 33 1 1 30
M  V30 34 1 1 31
M  V30 35 1 3 32
M  V30 36 1 4 33
M  V30 37 1 5 34
M  V30 38 1 7 35
M  V30 39 1 15 36
M  V30 40 1 15 37
M  V30 41 1 15 38
M  V30 42 1 19 39
M  V30 43 1 19 40
M  V30 44 1 19 41
M  V30 45 1 21 42
M  V30 46 1 21 43
M  V30 47 1 23 44
M  V30 48 1 24 45
M  V30 49 1 25 46
M  V30 50 1 26 47
M  V30 51 1 27 48
M  V30 52 1 28 49
M  V30 END BOND
M  V30 END CTAB
M  END
>  <Dataset>  (20) 
ChEMBL_Kinases

>  <Ligand_Instance>  (20) 
nan

>  <PDB_ID>  (20) 
nan

>  <Standardized_SMILES>  (20) 
Cc1cccc(Nc2nc3c(c(=O)n(C)c(=O)n3C)n2Cc2ccccc2)c1

>  <Name>  (20) 
nan

>  <Pocket>  (20) 
nan

>  <ATP_Site>  (20) 
nan

>  <Peripheral>  (20) 
nan

>  <Num_H_Atoms_ProtBoundConf>  (20) 
nan

>  <Num_Resolved_Atoms>  (20) 
nan

>  <Num_Not_Resolved_Atoms>  (20) 
nan

$$$$
CHEMBL1505760
     RDKit          3D

  0  0  0  0  0  0  0  0  0  0999 V3000
M  V30 BEGIN CTAB
M  V30 COUNTS 47 51 0 0 0
M  V30 BEGIN ATOM
M  V30 1 C 3.118447 -0.750249 3.219513 0
M  V30 2 C 3.911190 -1.112607 2.015783 0
M  V30 3 C 5.206724 -1.582023 2.197021 0
M  V30 4 C 6.021850 -1.943295 1.157417 0
M  V30 5 C 5.502228 -1.822885 -0.102895 0
M  V30 6 C 4.237105 -1.369184 -0.362052 0
M  V30 7 C 3.430714 -1.009456 0.707112 0
M  V30 8 N 2.075099 -0.510292 0.656587 0
M  V30 9 N 1.905189 0.820204 0.668693 0
M  V30 10 C 0.672891 1.365925 0.624089 0
M  V30 11 C 0.680806 2.804662 0.645345 0
M  V30 12 O 1.774158 3.387468 0.700630 0
M  V30 13 C -0.594411 3.649603 0.603024 0
M  V30 14 C -0.503711 4.973564 0.626287 0
M  V30 15 C -1.625270 5.710779 0.588930 0
M  V30 16 C -2.886053 4.936526 0.523484 0
M  V30 17 S -2.224996 3.164073 0.525931 0
M  V30 18 C -0.353642 0.461306 0.567166 0
M  V30 19 C -0.182519 -0.896458 0.554714 0
M  V30 20 C -1.348520 -1.758697 0.492431 0
M  V30 21 N -1.525555 -3.081834 0.465602 0
M  V30 22 C -2.810767 -3.438677 0.405570 0
M  V30 23 C -3.352059 -4.713795 0.363893 0
M  V30 24 C -4.742914 -4.801344 0.303273 0
M  V30 25 C -5.500445 -3.638722 0.287894 0
M  V30 26 C -4.897359 -2.385300 0.331891 0
M  V30 27 C -3.528287 -2.265648 0.392049 0
M  V30 28 N -2.607321 -1.294220 0.445496 0
M  V30 29 C 1.082870 -1.410383 0.601192 0
M  V30 30 N 1.380873 -2.652609 0.595834 0
M  V30 31 H 2.563447 -1.613299 3.635055 0
M  V30 32 H 2.352476 0.011721 2.980741 0
M  V30 33 H 3.789758 -0.317609 3.968395 0
M  V30 34 H 5.592363 -1.667236 3.204968 0
M  V30 35 H 7.027893 -2.306333 1.324082 0
M  V30 36 H 6.108597 -2.096960 -0.969496 0
M  V30 37 H 3.761800 -1.248010 -1.321791 0
M  V30 38 H 0.395652 5.615183 0.674284 0
M  V30 39 H -1.805397 6.778332 0.596813 0
M  V30 40 H -3.981306 5.513469 0.484899 0
M  V30 41 H -1.339545 0.881088 0.531251 0
M  V30 42 H -2.725109 -5.582880 0.377979 0
M  V30 43 H -5.194842 -5.788664 0.269607 0
M  V30 44 H -6.579001 -3.707199 0.240869 0
M  V30 45 H -5.473977 -1.473058 0.320573 0
M  V30 46 H -2.981997 -0.311251 0.443832 0
M  V30 47 H 0.762962 -3.467998 0.557631 0
M  V30 END ATOM
M  V30 BEGIN BOND
M  V30 1 1 1 2
M  V30 2 2 2 3
M  V30 3 1 3 4
M  V30 4 2 4 5
M  V30 5 1 5 6
M  V30 6 2 6 7
M  V30 7 1 7 8
M  V30 8 1 8 9
M  V30 9 2 9 10
M  V30 10 1 10 11
M  V30 11 2 11 12
M  V30 12 1 11 13
M  V30 13 2 13 14
M  V30 14 1 14 15
M  V30 15 2 15 16
M  V30 16 1 16 17
M  V30 17 1 10 18
M  V30 18 2 18 19
M  V30 19 1 19 20
M  V30 20 2 20 21
M  V30 21 1 21 22
M  V30 22 2 22 23
M  V30 23 1 23 24
M  V30 24 2 24 25
M  V30 25 1 25 26
M  V30 26 2 26 27
M  V30 27 1 27 28
M  V30 28 1 19 29
M  V30 29 2 29 30 CFG=2
M  V30 30 1 7 2
M  V30 31 1 29 8
M  V30 32 1 17 13
M  V30 33 1 28 20
M  V30 34 1 27 22
M  V30 35 1 1 31
M  V30 36 1 1 32
M  V30 37 1 1 33
M  V30 38 1 3 34
M  V30 39 1 4 35
M  V30 40 1 5 36
M  V30 41 1 6 37
M  V30 42 1 14 38
M  V30 43 1 15 39
M  V30 44 1 16 40
M  V30 45 1 18 41
M  V30 46 1 23 42
M  V30 47 1 24 43
M  V30 48 1 25 44
M  V30 49 1 26 45
M  V30 50 1 28 46
M  V30 51 1 30 47
M  V30 END BOND
M  V30 END CTAB
M  END
>  <Dataset>  (21) 
ChEMBL_Kinases

>  <Ligand_Instance>  (21) 
nan

>  <PDB_ID>  (21) 
nan

>  <Standardized_SMILES>  (21) 
Cc1ccccc1-n1nc(C(=O)c2cccs2)cc(-c2nc3ccccc3[nH]2)c1=N

>  <Name>  (21) 
nan

>  <Pocket>  (21) 
nan

>  <ATP_Site>  (21) 
nan

>  <Peripheral>  (21) 
nan

>  <Num_H_Atoms_ProtBoundConf>  (21) 
nan

>  <Num_Resolved_Atoms>  (21) 
nan

>  <Num_Not_Resolved_Atoms>  (21) 
nan

$$$$
CHEMBL1505799
     RDKit          3D

  0  0  0  0  0  0  0  0  0  0999 V3000
M  V30 BEGIN CTAB
M  V30 COUNTS 54 57 0 0 0
M  V30 BEGIN ATOM
M  V30 1 C 0.795744 -5.007947 -0.220067 0
M  V30 2 O 0.299870 -3.702145 -0.235532 0
M  V30 3 C 1.038851 -2.576572 0.041323 0
M  V30 4 O 2.236453 -2.868119 0.315562 0
M  V30 5 C 0.608084 -1.185472 0.049151 0
M  V30 6 C 1.501366 -0.258260 0.347029 0
M  V30 7 N 1.019635 1.075872 0.337424 0
M  V30 8 C 1.956903 2.141976 0.648488 0
M  V30 9 C 2.600899 2.005958 1.963409 0
M  V30 10 C 3.935540 2.649000 2.150490 0
M  V30 11 C 4.754627 2.738891 0.895988 0
M  V30 12 C 4.216664 1.861441 -0.206376 0
M  V30 13 C 2.840260 2.346899 -0.545178 0
M  V30 14 C -0.364337 1.337826 0.016967 0
M  V30 15 C -1.199294 0.354739 -0.270422 0
M  V30 16 C -2.587264 0.677541 -0.587124 0
M  V30 17 O -2.930358 1.908596 -0.571758 0
M  V30 18 O -3.532551 -0.275837 -0.898186 0
M  V30 19 C -4.855113 0.107172 -1.194384 0
M  V30 20 C -0.813073 -1.049112 -0.292557 0
M  V30 21 C -1.693649 -1.959816 0.461928 0
M  V30 22 C -1.824004 -1.834289 1.830325 0
M  V30 23 C -2.614910 -2.624833 2.639551 0
M  V30 24 C -3.347324 -3.639857 2.023236 0
M  V30 25 C -3.245405 -3.799974 0.654696 0
M  V30 26 C -2.442707 -2.988406 -0.122592 0
M  V30 27 O -4.065533 -4.865420 0.308505 0
M  V30 28 C -4.357232 -5.633812 1.485928 0
M  V30 29 O -4.230592 -4.613828 2.488736 0
M  V30 30 H 0.122299 -5.704807 -0.778309 0
M  V30 31 H 1.776220 -5.069727 -0.741212 0
M  V30 32 H 0.930540 -5.439983 0.779757 0
M  V30 33 H 2.490638 -0.562537 0.569648 0
M  V30 34 H 1.293741 3.075359 0.660722 0
M  V30 35 H 2.690416 0.931837 2.225544 0
M  V30 36 H 1.878571 2.416309 2.733060 0
M  V30 37 H 4.546493 2.144694 2.924794 0
M  V30 38 H 3.776577 3.685934 2.511255 0
M  V30 39 H 4.780196 3.773080 0.497244 0
M  V30 40 H 5.803612 2.438852 1.076896 0
M  V30 41 H 4.865997 2.096894 -1.102587 0
M  V30 42 H 4.329782 0.793489 -0.052077 0
M  V30 43 H 2.453345 1.740389 -1.395162 0
M  V30 44 H 2.929854 3.423332 -0.826742 0
M  V30 45 H -0.696269 2.371167 0.020106 0
M  V30 46 H -5.325263 0.613342 -0.320706 0
M  V30 47 H -4.943481 0.714175 -2.105632 0
M  V30 48 H -5.419693 -0.829510 -1.391448 0
M  V30 49 H -0.896691 -1.382298 -1.370574 0
M  V30 50 H -1.257269 -1.042881 2.333099 0
M  V30 51 H -2.675223 -2.477110 3.706378 0
M  V30 52 H -2.341630 -3.090070 -1.200107 0
M  V30 53 H -5.355524 -6.071305 1.469061 0
M  V30 54 H -3.567832 -6.394294 1.671131 0
M  V30 END ATOM
M  V30 BEGIN BOND
M  V30 1 1 1 2
M  V30 2 1 2 3
M  V30 3 2 3 4
M  V30 4 1 3 5
M  V30 5 2 5 6
M  V30 6 1 6 7
M  V30 7 1 7 8
M  V30 8 1 8 9
M  V30 9 1 9 10
M  V30 10 1 10 11
M  V30 11 1 11 12
M  V30 12 1 12 13
M  V30 13 1 7 14
M  V30 14 2 14 15
M  V30 15 1 15 16
M  V30 16 2 16 17
M  V30 17 1 16 18
M  V30 18 1 18 19
M  V30 19 1 15 20
M  V30 20 1 20 21
M  V30 21 2 21 22
M  V30 22 1 22 23
M  V30 23 2 23 24
M  V30 24 1 24 25
M  V30 25 2 25 26
M  V30 26 1 25 27
M  V30 27 1 27 28
M  V30 28 1 28 29
M  V30 29 1 20 5
M  V30 30 1 26 21
M  V30 31 1 13 8
M  V30 32 1 29 24
M  V30 33 1 1 30
M  V30 34 1 1 31
M  V30 35 1 1 32
M  V30 36 1 6 33
M  V30 37 1 8 34
M  V30 38 1 9 35
M  V30 39 1 9 36
M  V30 40 1 10 37
M  V30 41 1 10 38
M  V30 42 1 11 39
M  V30 43 1 11 40
M  V30 44 1 12 41
M  V30 45 1 12 42
M  V30 46 1 13 43
M  V30 47 1 13 44
M  V30 48 1 14 45
M  V30 49 1 19 46
M  V30 50 1 19 47
M  V30 51 1 19 48
M  V30 52 1 20 49
M  V30 53 1 22 50
M  V30 54 1 23 51
M  V30 55 1 26 52
M  V30 56 1 28 53
M  V30 57 1 28 54
M  V30 END BOND
M  V30 END CTAB
M  END
>  <Dataset>  (22) 
ChEMBL_Kinases

>  <Ligand_Instance>  (22) 
nan

>  <PDB_ID>  (22) 
nan

>  <Standardized_SMILES>  (22) 
COC(=O)C1=CN(C2CCCCC2)C=C(C(=O)OC)C1c1ccc2c(c1)OCO2

>  <Name>  (22) 
nan

>  <Pocket>  (22) 
nan

>  <ATP_Site>  (22) 
nan

>  <Peripheral>  (22) 
nan

>  <Num_H_Atoms_ProtBoundConf>  (22) 
nan

>  <Num_Resolved_Atoms>  (22) 
nan

>  <Num_Not_Resolved_Atoms>  (22) 
nan

$$$$
CHEMBL1505824
     RDKit          3D

  0  0  0  0  0  0  0  0  0  0999 V3000
M  V30 BEGIN CTAB
M  V30 COUNTS 56 58 0 0 0
M  V30 BEGIN ATOM
M  V30 1 C 4.124690 -4.913148 2.184971 0
M  V30 2 C 2.793244 -4.298354 1.953579 0
M  V30 3 N 2.531400 -3.825726 0.617267 0
M  V30 4 C 2.371350 -4.871310 -0.364788 0
M  V30 5 C 3.616892 -5.622898 -0.709081 0
M  V30 6 C 2.448564 -2.435440 0.292725 0
M  V30 7 C 2.626090 -1.486144 1.271628 0
M  V30 8 C 2.556790 -0.130081 1.028112 0
M  V30 9 C 2.291584 0.244048 -0.291443 0
M  V30 10 N 2.200685 1.601539 -0.631790 0
M  V30 11 C 0.863250 2.001604 -0.479214 0
M  V30 12 O -0.293057 1.574813 -0.142694 0
M  V30 13 C -0.013888 3.195018 -0.626547 0
M  V30 14 N -1.373468 2.765837 -0.245415 0
M  V30 15 C -1.782813 2.871134 1.048307 0
M  V30 16 C -3.079009 2.390881 1.090521 0
M  V30 17 C -3.425055 2.003517 -0.190147 0
M  V30 18 N -2.343488 2.252141 -0.982996 0
M  V30 19 C -4.752403 1.434335 -0.510955 0
M  V30 20 C -5.303946 0.510476 0.519323 0
M  V30 21 C -4.605787 0.677633 1.825110 0
M  V30 22 C -5.383404 0.145840 2.994891 0
M  V30 23 C -4.235222 2.139252 2.003937 0
M  V30 24 C 2.105758 -0.665346 -1.310533 0
M  V30 25 C 1.825473 -0.208145 -2.699397 0
M  V30 26 C 2.190060 -2.015818 -0.990408 0
M  V30 27 H 4.037398 -6.029263 2.339834 0
M  V30 28 H 4.873334 -4.755873 1.402872 0
M  V30 29 H 4.511573 -4.547578 3.176421 0
M  V30 30 H 2.024330 -5.113231 2.147455 0
M  V30 31 H 2.574649 -3.563309 2.754256 0
M  V30 32 H 1.819081 -4.522987 -1.254353 0
M  V30 33 H 1.673474 -5.670075 0.073352 0
M  V30 34 H 3.854979 -6.401390 0.009802 0
M  V30 35 H 4.476533 -4.939881 -0.916621 0
M  V30 36 H 3.483775 -6.159041 -1.702521 0
M  V30 37 H 2.835327 -1.683771 2.305369 0
M  V30 38 H 2.688539 0.649997 1.765800 0
M  V30 39 H 2.686205 2.456328 -0.951528 0
M  V30 40 H 0.303213 4.058221 -0.026227 0
M  V30 41 H -0.070120 3.509801 -1.683241 0
M  V30 42 H -1.346645 3.217702 1.962796 0
M  V30 43 H -5.464928 2.251327 -0.675007 0
M  V30 44 H -4.674639 0.908143 -1.493443 0
M  V30 45 H -5.236097 -0.553609 0.194630 0
M  V30 46 H -6.399049 0.682650 0.722069 0
M  V30 47 H -3.635373 0.140137 1.791761 0
M  V30 48 H -4.672969 -0.263370 3.729832 0
M  V30 49 H -5.994083 -0.694952 2.615548 0
M  V30 50 H -6.045989 0.926074 3.424036 0
M  V30 51 H -5.061947 2.818700 1.719453 0
M  V30 52 H -3.962676 2.261028 3.077781 0
M  V30 53 H 0.741160 -0.270254 -2.935955 0
M  V30 54 H 2.332279 -0.948699 -3.355922 0
M  V30 55 H 2.276676 0.761377 -2.931634 0
M  V30 56 H 2.041206 -2.665726 -1.818733 0
M  V30 END ATOM
M  V30 BEGIN BOND
M  V30 1 1 1 2
M  V30 2 1 2 3
M  V30 3 1 3 4
M  V30 4 1 4 5
M  V30 5 1 3 6
M  V30 6 2 6 7
M  V30 7 1 7 8
M  V30 8 2 8 9
M  V30 9 1 9 10
M  V30 10 1 10 11
M  V30 11 2 11 12
M  V30 12 1 11 13
M  V30 13 1 13 14
M  V30 14 1 14 15
M  V30 15 2 15 16
M  V30 16 1 16 17
M  V30 17 2 17 18
M  V30 18 1 17 19
M  V30 19 1 19 20
M  V30 20 1 20 21
M  V30 21 1 21 22
M  V30 22 1 21 23
M  V30 23 1 9 24
M  V30 24 1 24 25
M  V30 25 2 24 26
M  V30 26 1 26 6
M  V30 27 1 18 14
M  V30 28 1 23 16
M  V30 29 1 1 27
M  V30 30 1 1 28
M  V30 31 1 1 29
M  V30 32 1 2 30
M  V30 33 1 2 31
M  V30 34 1 4 32
M  V30 35 1 4 33
M  V30 36 1 5 34
M  V30 37 1 5 35
M  V30 38 1 5 36
M  V30 39 1 7 37
M  V30 40 1 8 38
M  V30 41 1 10 39
M  V30 42 1 13 40
M  V30 43 1 13 41
M  V30 44 1 15 42
M  V30 45 1 19 43
M  V30 46 1 19 44
M  V30 47 1 20 45
M  V30 48 1 20 46
M  V30 49 1 21 47
M  V30 50 1 22 48
M  V30 51 1 22 49
M  V30 52 1 22 50
M  V30 53 1 23 51
M  V30 54 1 23 52
M  V30 55 1 25 53
M  V30 56 1 25 54
M  V30 57 1 25 55
M  V30 58 1 26 56
M  V30 END BOND
M  V30 END CTAB
M  END
>  <Dataset>  (23) 
ChEMBL_Kinases

>  <Ligand_Instance>  (23) 
nan

>  <PDB_ID>  (23) 
nan

>  <Standardized_SMILES>  (23) 
CCN(CC)c1ccc(NC(=O)Cn2cc3c(n2)CCC(C)C3)c(C)c1

>  <Name>  (23) 
nan

>  <Pocket>  (23) 
nan

>  <ATP_Site>  (23) 
nan

>  <Peripheral>  (23) 
nan

>  <Num_H_Atoms_ProtBoundConf>  (23) 
nan

>  <Num_Resolved_Atoms>  (23) 
nan

>  <Num_Not_Resolved_Atoms>  (23) 
nan

$$$$
CHEMBL1505835
     RDKit          3D

  0  0  0  0  0  0  0  0  0  0999 V3000
M  V30 BEGIN CTAB
M  V30 COUNTS 34 36 0 0 0
M  V30 BEGIN ATOM
M  V30 1 C 0.544098 -1.523416 3.799340 0
M  V30 2 C -0.352299 -1.904476 2.670229 0
M  V30 3 C 0.269275 -1.760339 1.340792 0
M  V30 4 C 1.199842 -2.569965 0.723480 0
M  V30 5 C 1.778426 -3.782829 1.289546 0
M  V30 6 C 2.770399 -4.580891 0.543901 0
M  V30 7 O 1.387130 -4.119545 2.455958 0
M  V30 8 O 1.490483 -2.082542 -0.460498 0
M  V30 9 C 0.819883 -0.982073 -0.707726 0
M  V30 10 C 0.834969 -0.164812 -1.829263 0
M  V30 11 C 0.014551 0.945258 -1.815395 0
M  V30 12 C -0.772649 1.202405 -0.720492 0
M  V30 13 C -1.570239 2.322921 -0.762547 0
M  V30 14 C -1.599215 3.242687 -1.940617 0
M  V30 15 C -2.357342 2.564064 0.353362 0
M  V30 16 C -2.314498 1.704107 1.426303 0
M  V30 17 O -3.008504 1.878892 2.460911 0
M  V30 18 O -1.535653 0.625876 1.446034 0
M  V30 19 C -0.772737 0.366315 0.398898 0
M  V30 20 C 0.042506 -0.760851 0.417339 0
M  V30 21 H 1.559066 -1.217483 3.474401 0
M  V30 22 H 0.707064 -2.370434 4.529180 0
M  V30 23 H 0.025388 -0.749297 4.419765 0
M  V30 24 H -0.621975 -2.976996 2.804954 0
M  V30 25 H -1.341896 -1.370269 2.698761 0
M  V30 26 H 2.620685 -4.539397 -0.550511 0
M  V30 27 H 3.825029 -4.263275 0.760864 0
M  V30 28 H 2.640358 -5.652268 0.857304 0
M  V30 29 H 1.486243 -0.438638 -2.653316 0
M  V30 30 H 0.019316 1.581572 -2.675985 0
M  V30 31 H -2.122154 4.169813 -1.658220 0
M  V30 32 H -0.549571 3.501307 -2.213591 0
M  V30 33 H -2.117156 2.734649 -2.798863 0
M  V30 34 H -3.000430 3.426447 0.373945 0
M  V30 END ATOM
M  V30 BEGIN BOND
M  V30 1 1 1 2
M  V30 2 1 2 3
M  V30 3 2 3 4
M  V30 4 1 4 5
M  V30 5 1 5 6
M  V30 6 2 5 7
M  V30 7 1 4 8
M  V30 8 1 8 9
M  V30 9 2 9 10
M  V30 10 1 10 11
M  V30 11 2 11 12
M  V30 12 1 12 13
M  V30 13 1 13 14
M  V30 14 2 13 15
M  V30 15 1 15 16
M  V30 16 2 16 17
M  V30 17 1 16 18
M  V30 18 1 18 19
M  V30 19 2 19 20
M  V30 20 1 20 3
M  V30 21 1 20 9
M  V30 22 1 19 12
M  V30 23 1 1 21
M  V30 24 1 1 22
M  V30 25 1 1 23
M  V30 26 1 2 24
M  V30 27 1 2 25
M  V30 28 1 6 26
M  V30 29 1 6 27
M  V30 30 1 6 28
M  V30 31 1 10 29
M  V30 32 1 11 30
M  V30 33 1 14 31
M  V30 34 1 14 32
M  V30 35 1 14 33
M  V30 36 1 15 34
M  V30 END BOND
M  V30 END CTAB
M  END
>  <Dataset>  (24) 
ChEMBL_Kinases

>  <Ligand_Instance>  (24) 
nan

>  <PDB_ID>  (24) 
nan

>  <Standardized_SMILES>  (24) 
CCc1c(C(C)=O)oc2ccc3c(C)cc(=O)oc3c12

>  <Name>  (24) 
nan

>  <Pocket>  (24) 
nan

>  <ATP_Site>  (24) 
nan

>  <Peripheral>  (24) 
nan

>  <Num_H_Atoms_ProtBoundConf>  (24) 
nan

>  <Num_Resolved_Atoms>  (24) 
nan

>  <Num_Not_Resolved_Atoms>  (24) 
nan

$$$$
CHEMBL1505916
     RDKit          3D

  0  0  0  0  0  0  0  0  0  0999 V3000
M  V30 BEGIN CTAB
M  V30 COUNTS 46 50 0 0 0
M  V30 BEGIN ATOM
M  V30 1 O 2.420416 1.379432 1.845853 0
M  V30 2 C 1.964083 0.306064 2.337955 0
M  V30 3 N 2.200321 -0.902347 1.653378 0
M  V30 4 C 2.930821 -0.955227 0.434236 0
M  V30 5 C 4.283548 -1.125254 0.312403 0
M  V30 6 C 4.892046 -1.161413 -0.927718 0
M  V30 7 C 4.108517 -1.022013 -2.059231 0
M  V30 8 C 2.729305 -0.848332 -1.944352 0
M  V30 9 C 2.132506 -0.814164 -0.690569 0
M  V30 10 O 2.223095 -0.738818 -3.243912 0
M  V30 11 C 3.336403 -0.455913 -4.098522 0
M  V30 12 O 4.459938 -1.020935 -3.420149 0
M  V30 13 C 1.188372 0.153438 3.581785 0
M  V30 14 C 1.020134 1.521711 4.191231 0
M  V30 15 C -0.279362 2.189737 3.878635 0
M  V30 16 C -0.846627 1.756496 2.529990 0
M  V30 17 N -0.928419 0.330636 2.547762 0
M  V30 18 C -1.858398 -0.432412 1.679051 0
M  V30 19 N -2.158826 -1.509220 1.457091 0
M  V30 20 C -3.033190 -2.016986 0.625819 0
M  V30 21 C -3.436510 -3.295389 0.316170 0
M  V30 22 C -4.402073 -3.515867 -0.625758 0
M  V30 23 C -5.056270 -2.566155 -1.341612 0
M  V30 24 C -4.774646 -1.244792 -1.155664 0
M  V30 25 C -3.727680 -1.018007 -0.133421 0
M  V30 26 S -2.947067 0.566981 0.528847 0
M  V30 27 C -0.139724 -0.504078 3.388746 0
M  V30 28 H 1.886773 -1.879846 1.933142 0
M  V30 29 H 4.788986 -1.222572 1.259539 0
M  V30 30 H 5.974250 -1.299772 -0.956916 0
M  V30 31 H 1.044989 -0.675413 -0.652445 0
M  V30 32 H 3.397931 0.652633 -4.151217 0
M  V30 33 H 3.205583 -0.904194 -5.099476 0
M  V30 34 H 1.804816 -0.444415 4.315050 0
M  V30 35 H 1.846962 2.216278 3.868913 0
M  V30 36 H 1.116336 1.494170 5.297453 0
M  V30 37 H -0.109765 3.281656 3.808535 0
M  V30 38 H -1.040470 2.016045 4.681340 0
M  V30 39 H -0.212230 2.171468 1.734335 0
M  V30 40 H -1.868058 2.167025 2.454383 0
M  V30 41 H -3.001249 -4.151593 0.808274 0
M  V30 42 H -4.713587 -4.547645 -0.861647 0
M  V30 43 H -5.818403 -2.639469 -2.092230 0
M  V30 44 H -5.080869 -0.291108 -1.526661 0
M  V30 45 H -0.001111 -1.538915 3.003816 0
M  V30 46 H -0.633300 -0.507975 4.395667 0
M  V30 END ATOM
M  V30 BEGIN BOND
M  V30 1 2 1 2
M  V30 2 1 2 3
M  V30 3 1 3 4
M  V30 4 2 4 5
M  V30 5 1 5 6
M  V30 6 2 6 7
M  V30 7 1 7 8
M  V30 8 2 8 9
M  V30 9 1 8 10
M  V30 10 1 10 11
M  V30 11 1 11 12
M  V30 12 1 2 13
M  V30 13 1 13 14
M  V30 14 1 14 15
M  V30 15 1 15 16
M  V30 16 1 16 17
M  V30 17 1 17 18
M  V30 18 2 18 19
M  V30 19 1 19 20
M  V30 20 2 20 21
M  V30 21 1 21 22
M  V30 22 2 22 23
M  V30 23 1 23 24
M  V30 24 2 24 25
M  V30 25 1 25 26
M  V30 26 1 17 27
M  V30 27 1 9 4
M  V30 28 1 27 13
M  V30 29 1 12 7
M  V30 30 1 26 18
M  V30 31 1 25 20
M  V30 32 1 3 28
M  V30 33 1 5 29
M  V30 34 1 6 30
M  V30 35 1 9 31
M  V30 36 1 11 32
M  V30 37 1 11 33
M  V30 38 1 13 34
M  V30 39 1 14 35
M  V30 40 1 14 36
M  V30 41 1 15 37
M  V30 42 1 15 38
M  V30 43 1 16 39
M  V30 44 1 16 40
M  V30 45 1 21 41
M  V30 46 1 22 42
M  V30 47 1 23 43
M  V30 48 1 24 44
M  V30 49 1 27 45
M  V30 50 1 27 46
M  V30 END BOND
M  V30 END CTAB
M  END
>  <Dataset>  (25) 
ChEMBL_Kinases

>  <Ligand_Instance>  (25) 
nan

>  <PDB_ID>  (25) 
nan

>  <Standardized_SMILES>  (25) 
O=C(Nc1ccc2c(c1)OCO2)C1CCCN(c2nc3ccccc3s2)C1

>  <Name>  (25) 
nan

>  <Pocket>  (25) 
nan

>  <ATP_Site>  (25) 
nan

>  <Peripheral>  (25) 
nan

>  <Num_H_Atoms_ProtBoundConf>  (25) 
nan

>  <Num_Resolved_Atoms>  (25) 
nan

>  <Num_Not_Resolved_Atoms>  (25) 
nan

$$$$
CHEMBL1506005
     RDKit          3D

  0  0  0  0  0  0  0  0  0  0999 V3000
M  V30 BEGIN CTAB
M  V30 COUNTS 66 70 0 0 0
M  V30 BEGIN ATOM
M  V30 1 C 3.626517 -3.959470 2.584078 0
M  V30 2 C 2.186320 -4.183469 2.941409 0
M  V30 3 C 1.268073 -3.860213 1.777009 0
M  V30 4 N 1.387888 -2.511678 1.321413 0
M  V30 5 C 0.724533 -1.504256 1.887760 0
M  V30 6 N -0.230907 -1.332719 2.924733 0
M  V30 7 C -0.141315 -0.117438 3.762321 0
M  V30 8 C -1.315377 0.765655 3.527489 0
M  V30 9 N -2.288691 0.084464 2.731295 0
M  V30 10 C -3.147479 0.880774 1.965962 0
M  V30 11 C -2.527385 1.606526 0.854024 0
M  V30 12 O -2.244895 2.833654 1.111305 0
M  V30 13 C -2.154267 1.238787 -0.502422 0
M  V30 14 C -1.560945 2.080274 -1.414330 0
M  V30 15 C -1.146230 3.519393 -1.270267 0
M  V30 16 N -1.378931 1.384431 -2.564465 0
M  V30 17 C -0.778913 1.907763 -3.777069 0
M  V30 18 C -1.821396 0.118985 -2.465941 0
M  V30 19 C -1.849861 -0.936264 -3.353279 0
M  V30 20 C -2.371995 -2.144245 -2.982103 0
M  V30 21 C -2.860788 -2.242431 -1.686156 0
M  V30 22 C -2.824964 -1.181715 -0.814624 0
M  V30 23 C -2.302528 0.037328 -1.177263 0
M  V30 24 C -2.645080 -1.196410 3.165172 0
M  V30 25 C -1.391998 -2.032099 3.432873 0
M  V30 26 N 1.083210 -0.388608 1.189770 0
M  V30 27 C 1.930976 -0.732476 0.240911 0
M  V30 28 C 2.145229 -2.091897 0.300926 0
M  V30 29 C 3.002375 -2.617477 -0.632610 0
M  V30 30 O 3.190133 -3.847305 -0.575652 0
M  V30 31 N 3.563436 -1.785542 -1.522360 0
M  V30 32 C 3.347161 -0.447767 -1.573454 0
M  V30 33 O 3.882058 0.307229 -2.412099 0
M  V30 34 N 2.516680 0.094188 -0.678159 0
M  V30 35 C 2.238807 1.523218 -0.684899 0
M  V30 36 H 4.240215 -3.927383 3.534129 0
M  V30 37 H 4.061794 -4.772413 1.989298 0
M  V30 38 H 3.790692 -2.964810 2.115013 0
M  V30 39 H 1.908975 -3.615487 3.847467 0
M  V30 40 H 2.074957 -5.283715 3.103126 0
M  V30 41 H 0.239553 -4.196346 1.998874 0
M  V30 42 H 1.606609 -4.577906 0.961577 0
M  V30 43 H 0.001771 -0.462323 4.801596 0
M  V30 44 H 0.770336 0.473238 3.490318 0
M  V30 45 H -1.108561 1.731184 3.076259 0
M  V30 46 H -1.791835 0.974821 4.521975 0
M  V30 47 H -3.585891 1.655980 2.672197 0
M  V30 48 H -4.044393 0.302019 1.662449 0
M  V30 49 H -0.300619 3.599693 -0.532236 0
M  V30 50 H -0.792817 3.929561 -2.214448 0
M  V30 51 H -1.978954 4.157193 -0.902731 0
M  V30 52 H -0.229764 1.062132 -4.286275 0
M  V30 53 H -1.600411 2.182936 -4.461797 0
M  V30 54 H -0.031476 2.687134 -3.618874 0
M  V30 55 H -1.453804 -0.806837 -4.356988 0
M  V30 56 H -2.376114 -2.949535 -3.714178 0
M  V30 57 H -3.274428 -3.220826 -1.414779 0
M  V30 58 H -3.210734 -1.294042 0.182329 0
M  V30 59 H -3.137009 -1.079982 4.178154 0
M  V30 60 H -3.365359 -1.676661 2.514192 0
M  V30 61 H -1.537800 -2.982140 2.905480 0
M  V30 62 H -1.264657 -2.272439 4.505298 0
M  V30 63 H 4.207329 -2.213046 -2.216310 0
M  V30 64 H 1.669147 1.811439 0.222684 0
M  V30 65 H 1.743358 1.840175 -1.615950 0
M  V30 66 H 3.217223 2.044897 -0.661910 0
M  V30 END ATOM
M  V30 BEGIN BOND
M  V30 1 1 1 2
M  V30 2 1 2 3
M  V30 3 1 3 4
M  V30 4 1 4 5
M  V30 5 1 5 6
M  V30 6 1 6 7
M  V30 7 1 7 8
M  V30 8 1 8 9
M  V30 9 1 9 10
M  V30 10 1 10 11
M  V30 11 2 11 12
M  V30 12 1 11 13
M  V30 13 2 13 14
M  V30 14 1 14 15
M  V30 15 1 14 16
M  V30 16 1 16 17
M  V30 17 1 16 18
M  V30 18 2 18 19
M  V30 19 1 19 20
M  V30 20 2 20 21
M  V30 21 1 21 22
M  V30 22 2 22 23
M  V30 23 1 9 24
M  V30 24 1 24 25
M  V30 25 2 5 26
M  V30 26 1 26 27
M  V30 27 2 27 28
M  V30 28 1 28 29
M  V30 29 2 29 30
M  V30 30 1 29 31
M  V30 31 1 31 32
M  V30 32 2 32 33
M  V30 33 1 32 34
M  V30 34 1 34 35
M  V30 35 1 28 4
M  V30 36 1 25 6
M  V30 37 1 34 27
M  V30 38 1 23 13
M  V30 39 1 23 18
M  V30 40 1 1 36
M  V30 41 1 1 37
M  V30 42 1 1 38
M  V30 43 1 2 39
M  V30 44 1 2 40
M  V30 45 1 3 41
M  V30 46 1 3 42
M  V30 47 1 7 43
M  V30 48 1 7 44
M  V30 49 1 8 45
M  V30 50 1 8 46
M  V30 51 1 10 47
M  V30 52 1 10 48
M  V30 53 1 15 49
M  V30 54 1 15 50
M  V30 55 1 15 51
M  V30 56 1 17 52
M  V30 57 1 17 53
M  V30 58 1 17 54
M  V30 59 1 19 55
M  V30 60 1 20 56
M  V30 61 1 21 57
M  V30 62 1 22 58
M  V30 63 1 24 59
M  V30 64 1 24 60
M  V30 65 1 25 61
M  V30 66 1 25 62
M  V30 67 1 31 63
M  V30 68 1 35 64
M  V30 69 1 35 65
M  V30 70 1 35 66
M  V30 END BOND
M  V30 END CTAB
M  END
>  <Dataset>  (26) 
ChEMBL_Kinases

>  <Ligand_Instance>  (26) 
nan

>  <PDB_ID>  (26) 
nan

>  <Standardized_SMILES>  (26) 
CCCn1c(N2CCN(CC(=O)c3c(C)n(C)c4ccccc34)CC2)nc2c1c(=O)[nH]c(=O)n2C

>  <Name>  (26) 
nan

>  <Pocket>  (26) 
nan

>  <ATP_Site>  (26) 
nan

>  <Peripheral>  (26) 
nan

>  <Num_H_Atoms_ProtBoundConf>  (26) 
nan

>  <Num_Resolved_Atoms>  (26) 
nan

>  <Num_Not_Resolved_Atoms>  (26) 
nan

$$$$
CHEMBL1506015
     RDKit          3D

  0  0  0  0  0  0  0  0  0  0999 V3000
M  V30 BEGIN CTAB
M  V30 COUNTS 25 26 0 0 0
M  V30 BEGIN ATOM
M  V30 1 N -0.886308 -4.168195 2.762564 0
M  V30 2 C -0.332524 -3.432063 1.652452 0
M  V30 3 C -0.227159 -4.068645 0.430924 0
M  V30 4 C 0.302208 -3.403966 -0.680962 0
M  V30 5 C 0.711107 -2.081546 -0.487412 0
M  V30 6 Cl 1.373928 -1.243371 -1.871901 0
M  V30 7 C 0.609819 -1.440250 0.725037 0
M  V30 8 N 1.056772 -0.072586 0.835395 0
M  V30 9 C 0.108238 0.925885 0.577207 0
M  V30 10 O -1.006657 0.464098 0.283786 0
M  V30 11 C 0.796058 2.292597 0.751585 0
M  V30 12 C -0.031537 3.316371 0.525358 0
M  V30 13 C 0.233696 4.631011 0.587743 0
M  V30 14 C 1.678255 4.771482 0.970753 0
M  V30 15 S 2.330326 2.972559 1.155113 0
M  V30 16 C 0.084888 -2.108980 1.815101 0
M  V30 17 H -0.516238 -4.837082 3.473125 0
M  V30 18 H -1.894263 -3.844882 2.702169 0
M  V30 19 H -0.560712 -5.105557 0.327456 0
M  V30 20 H 0.392744 -3.883862 -1.643318 0
M  V30 21 H 2.064950 -0.014280 1.102939 0
M  V30 22 H -1.095104 3.435238 0.241986 0
M  V30 23 H 0.212887 5.697659 0.575640 0
M  V30 24 H 2.684733 5.415722 1.234240 0
M  V30 25 H -0.004661 -1.621994 2.782983 0
M  V30 END ATOM
M  V30 BEGIN BOND
M  V30 1 1 1 2
M  V30 2 2 2 3
M  V30 3 1 3 4
M  V30 4 2 4 5
M  V30 5 1 5 6
M  V30 6 1 5 7
M  V30 7 1 7 8
M  V30 8 1 8 9
M  V30 9 2 9 10
M  V30 10 1 9 11
M  V30 11 2 11 12
M  V30 12 1 12 13
M  V30 13 2 13 14
M  V30 14 1 14 15
M  V30 15 2 7 16
M  V30 16 1 16 2
M  V30 17 1 15 11
M  V30 18 1 1 17
M  V30 19 1 1 18
M  V30 20 1 3 19
M  V30 21 1 4 20
M  V30 22 1 8 21
M  V30 23 1 12 22
M  V30 24 1 13 23
M  V30 25 1 14 24
M  V30 26 1 16 25
M  V30 END BOND
M  V30 END CTAB
M  END
>  <Dataset>  (27) 
ChEMBL_Kinases

>  <Ligand_Instance>  (27) 
nan

>  <PDB_ID>  (27) 
nan

>  <Standardized_SMILES>  (27) 
Nc1ccc(Cl)c(NC(=O)c2cccs2)c1

>  <Name>  (27) 
nan

>  <Pocket>  (27) 
nan

>  <ATP_Site>  (27) 
nan

>  <Peripheral>  (27) 
nan

>  <Num_H_Atoms_ProtBoundConf>  (27) 
nan

>  <Num_Resolved_Atoms>  (27) 
nan

>  <Num_Not_Resolved_Atoms>  (27) 
nan

$$$$
CHEMBL1506052
     RDKit          3D

  0  0  0  0  0  0  0  0  0  0999 V3000
M  V30 BEGIN CTAB
M  V30 COUNTS 31 31 0 0 0
M  V30 BEGIN ATOM
M  V30 1 C -2.703005 -1.414414 2.849720 0
M  V30 2 C -1.542683 -2.347737 3.016429 0
M  V30 3 C -1.955858 -3.777367 2.878471 0
M  V30 4 C -0.445798 -1.957204 2.040723 0
M  V30 5 C -0.890625 -2.023262 0.623135 0
M  V30 6 O 0.108061 -1.671413 -0.272224 0
M  V30 7 C 0.740901 -0.478089 -0.405311 0
M  V30 8 C 1.677723 -0.654683 -1.437367 0
M  V30 9 C 2.524873 0.361612 -1.866746 0
M  V30 10 C 2.450765 1.616684 -1.253330 0
M  V30 11 C 3.277228 2.756878 -1.607940 0
M  V30 12 O 3.197198 3.894870 -1.038696 0
M  V30 13 O 4.236425 2.720400 -2.602139 0
M  V30 14 C 1.539599 1.813045 -0.239522 0
M  V30 15 C 0.726971 0.776026 0.145272 0
M  V30 16 H -2.307596 -0.423032 2.584105 0
M  V30 17 H -3.217190 -1.326356 3.820005 0
M  V30 18 H -3.373456 -1.772779 2.040984 0
M  V30 19 H -1.125155 -2.192021 4.030029 0
M  V30 20 H -2.180071 -4.094949 1.856436 0
M  V30 21 H -2.887477 -3.889470 3.502833 0
M  V30 22 H -1.229126 -4.484801 3.325887 0
M  V30 23 H -0.157734 -0.935341 2.310793 0
M  V30 24 H 0.456782 -2.595812 2.179453 0
M  V30 25 H -1.284683 -3.039981 0.357738 0
M  V30 26 H -1.763403 -1.329792 0.505505 0
M  V30 27 H 1.916356 -1.529330 -2.055759 0
M  V30 28 H 3.272222 0.350452 -2.634475 0
M  V30 29 H 4.720673 3.539284 -2.960665 0
M  V30 30 H 1.379066 2.725104 0.315064 0
M  V30 31 H -0.006345 0.859164 0.907055 0
M  V30 END ATOM
M  V30 BEGIN BOND
M  V30 1 1 1 2
M  V30 2 1 2 3
M  V30 3 1 2 4
M  V30 4 1 4 5
M  V30 5 1 5 6
M  V30 6 1 6 7
M  V30 7 2 7 8
M  V30 8 1 8 9
M  V30 9 2 9 10
M  V30 10 1 10 11
M  V30 11 2 11 12
M  V30 12 1 11 13
M  V30 13 1 10 14
M  V30 14 2 14 15
M  V30 15 1 15 7
M  V30 16 1 1 16
M  V30 17 1 1 17
M  V30 18 1 1 18
M  V30 19 1 2 19
M  V30 20 1 3 20
M  V30 21 1 3 21
M  V30 22 1 3 22
M  V30 23 1 4 23
M  V30 24 1 4 24
M  V30 25 1 5 25
M  V30 26 1 5 26
M  V30 27 1 8 27
M  V30 28 1 9 28
M  V30 29 1 13 29
M  V30 30 1 14 30
M  V30 31 1 15 31
M  V30 END BOND
M  V30 END CTAB
M  END
>  <Dataset>  (28) 
ChEMBL_Kinases

>  <Ligand_Instance>  (28) 
nan

>  <PDB_ID>  (28) 
nan

>  <Standardized_SMILES>  (28) 
CC(C)CCOc1ccc(C(=O)O)cc1

>  <Name>  (28) 
nan

>  <Pocket>  (28) 
nan

>  <ATP_Site>  (28) 
nan

>  <Peripheral>  (28) 
nan

>  <Num_H_Atoms_ProtBoundConf>  (28) 
nan

>  <Num_Resolved_Atoms>  (28) 
nan

>  <Num_Not_Resolved_Atoms>  (28) 
nan

$$$$
CHEMBL1505737
     RDKit          3D

  0  0  0  0  0  0  0  0  0  0999 V3000
M  V30 BEGIN CTAB
M  V30 COUNTS 45 47 0 0 0
M  V30 BEGIN ATOM
M  V30 1 C 2.583818 2.576229 -3.645573 0
M  V30 2 O 1.195443 2.790329 -3.488905 0
M  V30 3 C 0.444760 2.256963 -2.472754 0
M  V30 4 C 0.907743 1.443163 -1.459716 0
M  V30 5 C 0.080529 0.948432 -0.473435 0
M  V30 6 C 0.671736 0.096570 0.551391 0
M  V30 7 O 1.889866 -0.143417 0.488850 0
M  V30 8 N -0.070659 -0.470620 1.613217 0
M  V30 9 C 0.472403 -1.306239 2.630824 0
M  V30 10 C 0.580800 -2.681705 2.601941 0
M  V30 11 C 1.165021 -3.030473 3.802265 0
M  V30 12 C 1.485428 -4.385672 4.237121 0
M  V30 13 C 2.071206 -4.559407 5.474343 0
M  V30 14 C 2.401779 -5.820289 5.949367 0
M  V30 15 C 2.116752 -6.891380 5.125570 0
M  V30 16 C 1.523723 -6.742611 3.867831 0
M  V30 17 C 1.200593 -5.462829 3.412577 0
M  V30 18 N 1.405010 -1.923172 4.535381 0
M  V30 19 N 0.984523 -0.894040 3.820816 0
M  V30 20 C -1.256317 1.284136 -0.508480 0
M  V30 21 C -1.760553 2.096129 -1.505143 0
M  V30 22 O -3.116022 2.404819 -1.495203 0
M  V30 23 C -3.921507 1.879944 -0.472913 0
M  V30 24 C -0.908633 2.576371 -2.478882 0
M  V30 25 O -1.491027 3.383613 -3.442613 0
M  V30 26 C -1.615945 4.778846 -3.361403 0
M  V30 27 H 2.921921 2.701271 -4.679487 0
M  V30 28 H 2.824000 1.553347 -3.286319 0
M  V30 29 H 3.124250 3.285109 -2.980524 0
M  V30 30 H 1.949971 1.211199 -1.475101 0
M  V30 31 H -1.094898 -0.287684 1.692845 0
M  V30 32 H 0.261018 -3.320655 1.785626 0
M  V30 33 H 2.309460 -3.725408 6.151191 0
M  V30 34 H 2.859404 -5.936413 6.919677 0
M  V30 35 H 2.394354 -7.864287 5.540968 0
M  V30 36 H 1.326594 -7.627050 3.270527 0
M  V30 37 H 0.742444 -5.319367 2.446384 0
M  V30 38 H 1.835666 -1.848796 5.483819 0
M  V30 39 H -1.918580 0.904567 0.257440 0
M  V30 40 H -4.945913 2.293808 -0.637773 0
M  V30 41 H -3.599580 2.179649 0.535667 0
M  V30 42 H -4.039366 0.768287 -0.530227 0
M  V30 43 H -2.477448 5.047229 -4.024347 0
M  V30 44 H -0.751418 5.340026 -3.717609 0
M  V30 45 H -1.933517 5.068474 -2.339085 0
M  V30 END ATOM
M  V30 BEGIN BOND
M  V30 1 1 1 2
M  V30 2 1 2 3
M  V30 3 2 3 4
M  V30 4 1 4 5
M  V30 5 1 5 6
M  V30 6 2 6 7
M  V30 7 1 6 8
M  V30 8 1 8 9
M  V30 9 1 9 10
M  V30 10 2 10 11
M  V30 11 1 11 12
M  V30 12 2 12 13
M  V30 13 1 13 14
M  V30 14 2 14 15
M  V30 15 1 15 16
M  V30 16 2 16 17
M  V30 17 1 11 18
M  V30 18 1 18 19
M  V30 19 2 5 20
M  V30 20 1 20 21
M  V30 21 1 21 22
M  V30 22 1 22 23
M  V30 23 2 21 24
M  V30 24 1 24 25
M  V30 25 1 25 26
M  V30 26 1 24 3
M  V30 27 2 19 9
M  V30 28 1 17 12
M  V30 29 1 1 27
M  V30 30 1 1 28
M  V30 31 1 1 29
M  V30 32 1 4 30
M  V30 33 1 8 31
M  V30 34 1 10 32
M  V30 35 1 13 33
M  V30 36 1 14 34
M  V30 37 1 15 35
M  V30 38 1 16 36
M  V30 39 1 17 37
M  V30 40 1 18 38
M  V30 41 1 20 39
M  V30 42 1 23 40
M  V30 43 1 23 41
M  V30 44 1 23 42
M  V30 45 1 26 43
M  V30 46 1 26 44
M  V30 47 1 26 45
M  V30 END BOND
M  V30 END CTAB
M  END
>  <Dataset>  (29) 
ChEMBL_Kinases

>  <Ligand_Instance>  (29) 
nan

>  <PDB_ID>  (29) 
nan

>  <Standardized_SMILES>  (29) 
COc1cc(C(=O)Nc2cc(-c3ccccc3)[nH]n2)cc(OC)c1OC

>  <Name>  (29) 
nan

>  <Pocket>  (29) 
nan

>  <ATP_Site>  (29) 
nan

>  <Peripheral>  (29) 
nan

>  <Num_H_Atoms_ProtBoundConf>  (29) 
nan

>  <Num_Resolved_Atoms>  (29) 
nan

>  <Num_Not_Resolved_Atoms>  (29) 
nan

$$$$
CHEMBL1510982
     RDKit          3D

  0  0  0  0  0  0  0  0  0  0999 V3000
M  V30 BEGIN CTAB
M  V30 COUNTS 46 48 0 0 0
M  V30 BEGIN ATOM
M  V30 1 C 0.109054 -3.731593 4.453438 0
M  V30 2 C -0.973219 -3.671573 3.391056 0
M  V30 3 O -2.203649 -3.917148 3.996779 0
M  V30 4 C -0.935570 -2.302567 2.741269 0
M  V30 5 N 0.346175 -2.105475 2.136988 0
M  V30 6 C 0.824730 -0.992158 1.398413 0
M  V30 7 N 1.232381 0.010799 2.232689 0
M  V30 8 C 1.681165 1.043372 1.458930 0
M  V30 9 C 1.515540 0.594825 0.175789 0
M  V30 10 C 1.889001 1.426011 -0.833354 0
M  V30 11 O 1.766074 1.078031 -2.018073 0
M  V30 12 N 2.395744 2.630716 -0.608225 0
M  V30 13 C 2.785126 3.499527 -1.680571 0
M  V30 14 C 2.544949 3.041666 0.671078 0
M  V30 15 O 3.015738 4.163965 0.958488 0
M  V30 16 N 2.194870 2.265309 1.710999 0
M  V30 17 C 2.354256 2.706031 3.081975 0
M  V30 18 N 0.995102 -0.643192 0.110763 0
M  V30 19 C 0.635046 -1.527927 -0.961847 0
M  V30 20 C -0.780828 -1.381610 -1.365897 0
M  V30 21 C -1.356746 -0.509266 -2.251231 0
M  V30 22 C -2.700929 -0.481904 -2.548100 0
M  V30 23 C -3.541863 -1.387410 -1.920868 0
M  V30 24 C -3.043703 -2.299275 -1.016399 0
M  V30 25 Br -4.191376 -3.539861 -0.152801 0
M  V30 26 C -1.676433 -2.256918 -0.777154 0
M  V30 27 H 0.034391 -4.712467 4.980084 0
M  V30 28 H 1.110021 -3.650634 4.010221 0
M  V30 29 H -0.095838 -2.902737 5.155845 0
M  V30 30 H -0.784180 -4.414355 2.592277 0
M  V30 31 H -2.803322 -4.307069 3.311039 0
M  V30 32 H -1.046010 -1.564053 3.589565 0
M  V30 33 H -1.805167 -2.161756 2.108260 0
M  V30 34 H 1.138571 -2.792152 2.161670 0
M  V30 35 H 3.056999 4.514124 -1.313522 0
M  V30 36 H 3.640659 3.106819 -2.294393 0
M  V30 37 H 1.930057 3.640451 -2.378057 0
M  V30 38 H 2.432920 3.799928 3.142179 0
M  V30 39 H 1.510939 2.366021 3.706279 0
M  V30 40 H 3.286612 2.218851 3.466347 0
M  V30 41 H 0.842815 -2.587103 -0.664758 0
M  V30 42 H 1.234781 -1.358596 -1.880929 0
M  V30 43 H -0.681924 0.184566 -2.730425 0
M  V30 44 H -3.058651 0.246931 -3.260045 0
M  V30 45 H -4.597536 -1.389163 -2.133369 0
M  V30 46 H -1.338475 -2.996452 -0.064501 0
M  V30 END ATOM
M  V30 BEGIN BOND
M  V30 1 1 1 2
M  V30 2 1 2 3
M  V30 3 1 2 4
M  V30 4 1 4 5
M  V30 5 1 5 6
M  V30 6 2 6 7
M  V30 7 1 7 8
M  V30 8 2 8 9
M  V30 9 1 9 10
M  V30 10 2 10 11
M  V30 11 1 10 12
M  V30 12 1 12 13
M  V30 13 1 12 14
M  V30 14 2 14 15
M  V30 15 1 14 16
M  V30 16 1 16 17
M  V30 17 1 9 18
M  V30 18 1 18 19
M  V30 19 1 19 20
M  V30 20 2 20 21
M  V30 21 1 21 22
M  V30 22 2 22 23
M  V30 23 1 23 24
M  V30 24 1 24 25
M  V30 25 2 24 26
M  V30 26 1 18 6
M  V30 27 1 26 20
M  V30 28 1 16 8
M  V30 29 1 1 27
M  V30 30 1 1 28
M  V30 31 1 1 29
M  V30 32 1 2 30
M  V30 33 1 3 31
M  V30 34 1 4 32
M  V30 35 1 4 33
M  V30 36 1 5 34
M  V30 37 1 13 35
M  V30 38 1 13 36
M  V30 39 1 13 37
M  V30 40 1 17 38
M  V30 41 1 17 39
M  V30 42 1 17 40
M  V30 43 1 19 41
M  V30 44 1 19 42
M  V30 45 1 21 43
M  V30 46 1 22 44
M  V30 47 1 23 45
M  V30 48 1 26 46
M  V30 END BOND
M  V30 END CTAB
M  END
>  <Dataset>  (30) 
ChEMBL_Kinases

>  <Ligand_Instance>  (30) 
nan

>  <PDB_ID>  (30) 
nan

>  <Standardized_SMILES>  (30) 
CC(O)CNc1nc2c(c(=O)n(C)c(=O)n2C)n1Cc1cccc(Br)c1

>  <Name>  (30) 
nan

>  <Pocket>  (30) 
nan

>  <ATP_Site>  (30) 
nan

>  <Peripheral>  (30) 
nan

>  <Num_H_Atoms_ProtBoundConf>  (30) 
nan

>  <Num_Resolved_Atoms>  (30) 
nan

>  <Num_Not_Resolved_Atoms>  (30) 
nan

$$$$
CHEMBL1510927
     RDKit          3D

  0  0  0  0  0  0  0  0  0  0999 V3000
M  V30 BEGIN CTAB
M  V30 COUNTS 46 48 0 0 0
M  V30 BEGIN ATOM
M  V30 1 O 1.094762 -2.579207 0.667218 0
M  V30 2 C 1.571922 -2.699722 1.840070 0
M  V30 3 C 3.021443 -2.843229 2.107709 0
M  V30 4 C 3.871193 -2.735636 0.859157 0
M  V30 5 C 3.711836 -1.425344 0.195367 0
M  V30 6 N 2.923991 -0.889818 -0.739085 0
M  V30 7 C 3.303968 0.406358 -0.900718 0
M  V30 8 C 2.712713 1.357524 -1.815245 0
M  V30 9 C 1.671754 0.963100 -2.597975 0
M  V30 10 C 1.086030 1.842352 -3.478843 0
M  V30 11 C 1.567893 3.114142 -3.552303 0
M  V30 12 C 2.632420 3.571601 -2.773574 0
M  V30 13 C 3.175762 2.639217 -1.909518 0
M  V30 14 F 4.224762 3.051945 -1.127472 0
M  V30 15 N 4.309140 0.629077 -0.065623 0
M  V30 16 O 4.543380 -0.455071 0.576609 0
M  V30 17 N 0.743058 -2.704136 2.970511 0
M  V30 18 C -0.696110 -2.580139 2.900792 0
M  V30 19 C -1.145749 -1.285120 2.234890 0
M  V30 20 N -2.555907 -1.236716 2.211609 0
M  V30 21 C -3.254084 -1.085482 3.427061 0
M  V30 22 C -4.357413 -0.058106 3.386337 0
M  V30 23 O -4.116308 0.822172 2.358609 0
M  V30 24 C -4.286263 0.131817 1.151724 0
M  V30 25 C -3.214742 -0.930364 1.002899 0
M  V30 26 H 3.321056 -2.127087 2.880857 0
M  V30 27 H 3.210711 -3.864048 2.550940 0
M  V30 28 H 3.562429 -3.542847 0.144835 0
M  V30 29 H 4.917307 -2.980192 1.119342 0
M  V30 30 H 1.268694 -0.026040 -2.565101 0
M  V30 31 H 0.243284 1.559528 -4.127886 0
M  V30 32 H 1.114049 3.816460 -4.244171 0
M  V30 33 H 3.004980 4.582231 -2.841889 0
M  V30 34 H 1.131053 -2.799286 3.948286 0
M  V30 35 H -1.042630 -3.454971 2.290019 0
M  V30 36 H -1.195888 -2.705680 3.879155 0
M  V30 37 H -0.777246 -1.281481 1.181087 0
M  V30 38 H -0.676366 -0.438813 2.786450 0
M  V30 39 H -2.552857 -0.823042 4.246672 0
M  V30 40 H -3.726695 -2.068522 3.722125 0
M  V30 41 H -4.338831 0.528432 4.331449 0
M  V30 42 H -5.365341 -0.519793 3.324719 0
M  V30 43 H -5.301521 -0.324467 1.128624 0
M  V30 44 H -4.248813 0.857933 0.313776 0
M  V30 45 H -3.713713 -1.867340 0.646119 0
M  V30 46 H -2.484817 -0.588659 0.242288 0
M  V30 END ATOM
M  V30 BEGIN BOND
M  V30 1 2 1 2
M  V30 2 1 2 3
M  V30 3 1 3 4
M  V30 4 1 4 5
M  V30 5 2 5 6
M  V30 6 1 6 7
M  V30 7 1 7 8
M  V30 8 2 8 9
M  V30 9 1 9 10
M  V30 10 2 10 11
M  V30 11 1 11 12
M  V30 12 2 12 13
M  V30 13 1 13 14
M  V30 14 2 7 15
M  V30 15 1 15 16
M  V30 16 1 2 17
M  V30 17 1 17 18
M  V30 18 1 18 19
M  V30 19 1 19 20
M  V30 20 1 20 21
M  V30 21 1 21 22
M  V30 22 1 22 23
M  V30 23 1 23 24
M  V30 24 1 24 25
M  V30 25 1 16 5
M  V30 26 1 25 20
M  V30 27 1 13 8
M  V30 28 1 3 26
M  V30 29 1 3 27
M  V30 30 1 4 28
M  V30 31 1 4 29
M  V30 32 1 9 30
M  V30 33 1 10 31
M  V30 34 1 11 32
M  V30 35 1 12 33
M  V30 36 1 17 34
M  V30 37 1 18 35
M  V30 38 1 18 36
M  V30 39 1 19 37
M  V30 40 1 19 38
M  V30 41 1 21 39
M  V30 42 1 21 40
M  V30 43 1 22 41
M  V30 44 1 22 42
M  V30 45 1 24 43
M  V30 46 1 24 44
M  V30 47 1 25 45
M  V30 48 1 25 46
M  V30 END BOND
M  V30 END CTAB
M  END
>  <Dataset>  (31) 
ChEMBL_Kinases

>  <Ligand_Instance>  (31) 
nan

>  <PDB_ID>  (31) 
nan

>  <Standardized_SMILES>  (31) 
O=C(CCc1nc(-c2ccccc2F)no1)NCCN1CCOCC1

>  <Name>  (31) 
nan

>  <Pocket>  (31) 
nan

>  <ATP_Site>  (31) 
nan

>  <Peripheral>  (31) 
nan

>  <Num_H_Atoms_ProtBoundConf>  (31) 
nan

>  <Num_Resolved_Atoms>  (31) 
nan

>  <Num_Not_Resolved_Atoms>  (31) 
nan

$$$$
CHEMBL1510899
     RDKit          3D

  0  0  0  0  0  0  0  0  0  0999 V3000
M  V30 BEGIN CTAB
M  V30 COUNTS 111 116 0 0 0
M  V30 BEGIN ATOM
M  V30 1 C -3.263855 0.380096 4.853768 0
M  V30 2 C -1.918741 0.951869 4.495453 0
M  V30 3 O -2.028563 2.130137 4.981090 0
M  V30 4 O -0.901891 0.223054 3.795543 0
M  V30 5 C 0.301944 0.986451 3.607533 0 CFG=1
M  V30 6 C 0.818857 1.431526 4.883250 0
M  V30 7 O 1.518657 0.224330 5.161225 0
M  V30 8 C 1.455391 -0.021769 3.836569 0 CFG=2
M  V30 9 C 2.640701 0.395826 3.058996 0
M  V30 10 C 2.813382 1.808937 2.672668 0 CFG=2
M  V30 11 O 3.502618 2.515401 3.614595 0
M  V30 12 C 1.544569 2.528889 2.139528 0 CFG=1
M  V30 13 C 1.380658 3.734587 3.094595 0
M  V30 14 C 2.031683 3.126122 0.915931 0
M  V30 15 O 3.002378 3.828198 1.249390 0
M  V30 16 C 2.061170 3.414966 -0.593872 0 CFG=2
M  V30 17 O 2.052744 4.773952 -0.832461 0
M  V30 18 C 0.826920 2.878379 -1.218997 0
M  V30 19 C 0.871564 2.149573 -2.306333 0
M  V30 20 C 2.021156 2.648514 -3.109925 0
M  V30 21 C -0.160882 1.067355 -2.407201 0 CFG=1
M  V30 22 O 0.640298 -0.107698 -2.660956 0
M  V30 23 C 0.689942 -0.841570 -3.800916 0
M  V30 24 O -0.054173 -0.443925 -4.747505 0
M  V30 25 C 1.660017 -1.939150 -3.560691 0 CFG=2
M  V30 26 O 1.954207 -2.727421 -4.633188 0
M  V30 27 C 1.152456 -2.738808 -2.367773 0 CFG=1
M  V30 28 N -0.004235 -3.522407 -2.685924 0
M  V30 29 C -1.368888 -3.260556 -2.857959 0
M  V30 30 O -1.716180 -2.080078 -2.731643 0
M  V30 31 O -2.361791 -4.166387 -3.150642 0
M  V30 32 C -3.699419 -3.775942 -3.332343 0
M  V30 33 C -4.519090 -5.031770 -3.571569 0
M  V30 34 C -4.302423 -3.010732 -2.201646 0
M  V30 35 C -3.843399 -2.947042 -4.613631 0
M  V30 36 C 2.191258 -3.415117 -1.603261 0
M  V30 37 C 3.477551 -3.374539 -2.066310 0
M  V30 38 C 4.458019 -4.014731 -1.303303 0
M  V30 39 C 4.155584 -4.663666 -0.133774 0
M  V30 40 C 2.843166 -4.672939 0.283247 0
M  V30 41 C 1.813365 -4.050283 -0.433564 0
M  V30 42 C -1.007466 0.815319 -1.183456 0
M  V30 43 C -0.486908 1.600167 -0.065196 0 CFG=2
M  V30 44 O 0.811153 0.980064 -0.079041 0
M  V30 45 C -0.715076 1.381021 1.384732 0 CFG=1
M  V30 46 O -1.100883 -0.018523 1.318152 0
M  V30 47 C -2.426799 -0.333138 1.498532 0
M  V30 48 O -3.356812 0.488864 1.698615 0
M  V30 49 C -2.813529 -1.740978 1.461760 0
M  V30 50 C -4.112279 -2.164143 1.654530 0
M  V30 51 C -4.513315 -3.461798 1.635102 0
M  V30 52 C -3.581146 -4.473793 1.408179 0
M  V30 53 C -2.274016 -4.058552 1.212729 0
M  V30 54 C -1.863375 -2.742198 1.231580 0
M  V30 55 C 0.500488 1.505823 2.258156 0 CFG=2
M  V30 56 C -0.550361 3.013709 -0.560161 0
M  V30 57 C -1.607849 3.304992 -1.601920 0
M  V30 58 C -0.649601 4.095160 0.434441 0
M  V30 59 H -3.431776 0.366858 5.934426 0
M  V30 60 H -3.338741 -0.677939 4.514106 0
M  V30 61 H -4.097493 0.899946 4.344329 0
M  V30 62 H 0.001962 1.386761 5.688012 0
M  V30 63 H 1.348879 2.325965 5.116687 0
M  V30 64 H 1.184152 -1.070499 3.610524 0
M  V30 65 H 2.855401 -0.325141 2.197319 0
M  V30 66 H 3.530882 0.166972 3.727943 0
M  V30 67 H 3.582075 1.728493 1.814816 0
M  V30 68 H 4.247968 3.064478 3.267518 0
M  V30 69 H 0.402862 3.766753 3.573442 0
M  V30 70 H 1.358158 4.708407 2.490076 0
M  V30 71 H 2.260760 3.917596 3.714456 0
M  V30 72 H 3.003002 3.004938 -0.915664 0
M  V30 73 H 2.498710 5.282029 -0.118003 0
M  V30 74 H 1.887016 2.109901 -4.101594 0
M  V30 75 H 1.944100 3.709270 -3.409027 0
M  V30 76 H 3.002807 2.316263 -2.773529 0
M  V30 77 H -0.720459 1.131315 -3.358100 0
M  V30 78 H 2.619789 -1.462618 -3.237851 0
M  V30 79 H 2.521554 -2.321915 -5.312161 0
M  V30 80 H 0.739564 -1.899005 -1.698105 0
M  V30 81 H 0.300045 -4.536442 -2.812209 0
M  V30 82 H -5.118874 -5.242565 -2.635096 0
M  V30 83 H -5.230106 -4.872049 -4.402112 0
M  V30 84 H -3.849106 -5.883820 -3.717314 0
M  V30 85 H -5.416541 -3.084695 -2.329370 0
M  V30 86 H -4.059822 -3.455897 -1.232648 0
M  V30 87 H -4.077060 -1.919646 -2.217869 0
M  V30 88 H -3.420681 -3.541762 -5.456278 0
M  V30 89 H -4.930980 -2.857838 -4.806416 0
M  V30 90 H -3.414482 -1.953064 -4.516833 0
M  V30 91 H 3.857846 -2.918224 -2.956493 0
M  V30 92 H 5.493019 -4.022784 -1.605758 0
M  V30 93 H 4.942842 -5.155243 0.442491 0
M  V30 94 H 2.628347 -5.191625 1.209038 0
M  V30 95 H 0.797979 -4.061334 -0.106125 0
M  V30 96 H -2.088072 0.889339 -1.393685 0
M  V30 97 H -0.924160 -0.282895 -0.882847 0
M  V30 98 H 0.784417 0.024482 -0.124539 0
M  V30 99 H -1.581715 1.876206 1.782827 0
M  V30 100 H -4.857460 -1.406448 1.832749 0
M  V30 101 H -5.535108 -3.787035 1.788986 0
M  V30 102 H -3.773722 -5.526767 1.369508 0
M  V30 103 H -1.511005 -4.796511 1.032506 0
M  V30 104 H -0.820361 -2.471454 1.071032 0
M  V30 105 H 1.103625 0.611513 1.785201 0
M  V30 106 H -2.569308 2.828954 -1.442239 0
M  V30 107 H -1.904448 4.406894 -1.528389 0
M  V30 108 H -1.209084 3.318079 -2.628897 0
M  V30 109 H 0.173548 4.843570 0.458772 0
M  V30 110 H -0.977631 3.780784 1.445020 0
M  V30 111 H -1.503322 4.818866 0.201139 0
M  V30 END ATOM
M  V30 BEGIN BOND
M  V30 1 1 1 2
M  V30 2 2 2 3
M  V30 3 1 2 4
M  V30 4 1 5 4 CFG=1
M  V30 5 1 5 6
M  V30 6 1 6 7
M  V30 7 1 7 8
M  V30 8 1 8 9
M  V30 9 1 9 10
M  V30 10 1 10 11
M  V30 11 1 10 12
M  V30 12 1 12 13 CFG=1
M  V30 13 1 12 14
M  V30 14 2 14 15
M  V30 15 1 14 16
M  V30 16 1 16 17
M  V30 17 1 16 18
M  V30 18 2 18 19
M  V30 19 1 19 20
M  V30 20 1 19 21
M  V30 21 1 21 22
M  V30 22 1 22 23
M  V30 23 2 23 24
M  V30 24 1 23 25
M  V30 25 1 25 26
M  V30 26 1 25 27
M  V30 27 1 27 28
M  V30 28 1 28 29
M  V30 29 2 29 30
M  V30 30 1 29 31
M  V30 31 1 31 32
M  V30 32 1 32 33
M  V30 33 1 32 34
M  V30 34 1 32 35
M  V30 35 1 27 36
M  V30 36 2 36 37
M  V30 37 1 37 38
M  V30 38 2 38 39
M  V30 39 1 39 40
M  V30 40 2 40 41
M  V30 41 1 21 42
M  V30 42 1 42 43
M  V30 43 1 43 44 CFG=1
M  V30 44 1 43 45
M  V30 45 1 45 46
M  V30 46 1 46 47
M  V30 47 2 47 48
M  V30 48 1 47 49
M  V30 49 2 49 50
M  V30 50 1 50 51
M  V30 51 2 51 52
M  V30 52 1 52 53
M  V30 53 2 53 54
M  V30 54 1 45 55
M  V30 55 1 43 56
M  V30 56 1 56 57
M  V30 57 1 56 58
M  V30 58 1 8 5
M  V30 59 1 55 12
M  V30 60 1 55 5
M  V30 61 1 56 18
M  V30 62 1 41 36
M  V30 63 1 54 49
M  V30 64 1 1 59
M  V30 65 1 1 60
M  V30 66 1 1 61
M  V30 67 1 6 62
M  V30 68 1 6 63
M  V30 69 1 8 64 CFG=1
M  V30 70 1 9 65
M  V30 71 1 9 66
M  V30 72 1 10 67 CFG=3
M  V30 73 1 11 68
M  V30 74 1 13 69
M  V30 75 1 13 70
M  V30 76 1 13 71
M  V30 77 1 16 72 CFG=3
M  V30 78 1 17 73
M  V30 79 1 20 74
M  V30 80 1 20 75
M  V30 81 1 20 76
M  V30 82 1 21 77 CFG=3
M  V30 83 1 25 78 CFG=1
M  V30 84 1 26 79
M  V30 85 1 27 80 CFG=1
M  V30 86 1 28 81
M  V30 87 1 33 82
M  V30 88 1 33 83
M  V30 89 1 33 84
M  V30 90 1 34 85
M  V30 91 1 34 86
M  V30 92 1 34 87
M  V30 93 1 35 88
M  V30 94 1 35 89
M  V30 95 1 35 90
M  V30 96 1 37 91
M  V30 97 1 38 92
M  V30 98 1 39 93
M  V30 99 1 40 94
M  V30 100 1 41 95
M  V30 101 1 42 96
M  V30 102 1 42 97
M  V30 103 1 44 98
M  V30 104 1 45 99 CFG=1
M  V30 105 1 50 100
M  V30 106 1 51 101
M  V30 107 1 52 102
M  V30 108 1 53 103
M  V30 109 1 54 104
M  V30 110 1 55 105 CFG=3
M  V30 111 1 57 106
M  V30 112 1 57 107
M  V30 113 1 57 108
M  V30 114 1 58 109
M  V30 115 1 58 110
M  V30 116 1 58 111
M  V30 END BOND
M  V30 END CTAB
M  END
>  <Dataset>  (32) 
ChEMBL_Kinases

>  <Ligand_Instance>  (32) 
nan

>  <PDB_ID>  (32) 
nan

>  <Standardized_SMILES>  (32) 
CC(=O)O[C@@]12CO[C@@H]1C[C@H](O)[C@@]1(C)C(=O)[C@H](O)C3=C(C)[C@@H](OC(=O)[C@H](O)[C@@H](NC(=O)OC(C)(C)C)c4ccccc4)C[C@](O)([C@@H](OC(=O)c4ccccc4)[C@H]21)C3(C)C

>  <Name>  (32) 
nan

>  <Pocket>  (32) 
nan

>  <ATP_Site>  (32) 
nan

>  <Peripheral>  (32) 
nan

>  <Num_H_Atoms_ProtBoundConf>  (32) 
nan

>  <Num_Resolved_Atoms>  (32) 
nan

>  <Num_Not_Resolved_Atoms>  (32) 
nan

$$$$
CHEMBL1510865
     RDKit          3D

  0  0  0  0  0  0  0  0  0  0999 V3000
M  V30 BEGIN CTAB
M  V30 COUNTS 36 38 0 0 0
M  V30 BEGIN ATOM
M  V30 1 C -0.095564 -5.330740 1.517131 0
M  V30 2 C 0.127988 -4.254786 2.559799 0
M  V30 3 N -0.238169 -2.951901 2.035341 0
M  V30 4 N 0.673339 -2.193734 1.404251 0
M  V30 5 C 0.333054 -0.986712 0.918679 0
M  V30 6 C 1.410898 -0.277200 0.262962 0
M  V30 7 O 2.548705 -0.805864 0.189164 0
M  V30 8 O 1.656177 0.894557 -0.375266 0
M  V30 9 C 2.852492 1.326647 -0.931094 0
M  V30 10 C 2.673005 1.873736 -2.344504 0
M  V30 11 C 2.321664 3.333468 -2.173726 0
M  V30 12 O 3.048331 3.712352 -1.042900 0
M  V30 13 C 3.203246 2.600173 -0.205336 0
M  V30 14 O 3.589682 2.665902 1.007134 0
M  V30 15 C -0.964551 -0.566441 1.091303 0
M  V30 16 C -1.283832 0.670372 0.585236 0
M  V30 17 C -2.552113 1.200286 0.696310 0
M  V30 18 C -3.519248 0.426551 1.351048 0
M  V30 19 C -3.212132 -0.818619 1.864684 0
M  V30 20 C -1.928574 -1.310629 1.730842 0
M  V30 21 C -1.501815 -2.535565 2.200030 0
M  V30 22 O -2.337407 -3.265276 2.795348 0
M  V30 23 H 0.806413 -5.993370 1.455861 0
M  V30 24 H -0.235988 -4.877382 0.508740 0
M  V30 25 H -1.001275 -5.935868 1.736173 0
M  V30 26 H -0.435321 -4.471430 3.495364 0
M  V30 27 H 1.201050 -4.265310 2.849690 0
M  V30 28 H 3.706442 0.659175 -0.855106 0
M  V30 29 H 1.770697 1.368394 -2.758463 0
M  V30 30 H 3.565952 1.728503 -2.975014 0
M  V30 31 H 1.217973 3.446641 -1.980873 0
M  V30 32 H 2.646892 3.960521 -3.020154 0
M  V30 33 H -0.563963 1.289334 0.077057 0
M  V30 34 H -2.801015 2.181628 0.293489 0
M  V30 35 H -4.533669 0.814999 1.457020 0
M  V30 36 H -3.935697 -1.439284 2.374761 0
M  V30 END ATOM
M  V30 BEGIN BOND
M  V30 1 1 1 2
M  V30 2 1 2 3
M  V30 3 1 3 4
M  V30 4 2 4 5
M  V30 5 1 5 6
M  V30 6 2 6 7
M  V30 7 1 6 8
M  V30 8 1 8 9
M  V30 9 1 9 10
M  V30 10 1 10 11
M  V30 11 1 11 12
M  V30 12 1 12 13
M  V30 13 2 13 14
M  V30 14 1 5 15
M  V30 15 2 15 16
M  V30 16 1 16 17
M  V30 17 2 17 18
M  V30 18 1 18 19
M  V30 19 2 19 20
M  V30 20 1 20 21
M  V30 21 2 21 22
M  V30 22 1 21 3
M  V30 23 1 13 9
M  V30 24 1 20 15
M  V30 25 1 1 23
M  V30 26 1 1 24
M  V30 27 1 1 25
M  V30 28 1 2 26
M  V30 29 1 2 27
M  V30 30 1 9 28
M  V30 31 1 10 29
M  V30 32 1 10 30
M  V30 33 1 11 31
M  V30 34 1 11 32
M  V30 35 1 16 33
M  V30 36 1 17 34
M  V30 37 1 18 35
M  V30 38 1 19 36
M  V30 END BOND
M  V30 END CTAB
M  END
>  <Dataset>  (33) 
ChEMBL_Kinases

>  <Ligand_Instance>  (33) 
nan

>  <PDB_ID>  (33) 
nan

>  <Standardized_SMILES>  (33) 
CCn1nc(C(=O)OC2CCOC2=O)c2ccccc2c1=O

>  <Name>  (33) 
nan

>  <Pocket>  (33) 
nan

>  <ATP_Site>  (33) 
nan

>  <Peripheral>  (33) 
nan

>  <Num_H_Atoms_ProtBoundConf>  (33) 
nan

>  <Num_Resolved_Atoms>  (33) 
nan

>  <Num_Not_Resolved_Atoms>  (33) 
nan

$$$$
CHEMBL1510817
     RDKit          3D

  0  0  0  0  0  0  0  0  0  0999 V3000
M  V30 BEGIN CTAB
M  V30 COUNTS 37 40 0 0 0
M  V30 BEGIN ATOM
M  V30 1 Cl 0.685025 -2.701935 6.855920 0
M  V30 2 C 0.309526 -2.639331 5.146637 0
M  V30 3 C -0.972557 -2.934715 4.670655 0
M  V30 4 C -1.242138 -2.876068 3.299379 0
M  V30 5 C -0.220408 -2.520066 2.409130 0
M  V30 6 N -0.224002 -2.394646 1.079303 0
M  V30 7 C 1.032583 -2.022936 0.683283 0
M  V30 8 C 1.199194 -1.872289 -0.764658 0
M  V30 9 N 0.749816 -0.646423 -1.358904 0
M  V30 10 C 0.525836 -0.661894 -2.832584 0
M  V30 11 C -0.423763 0.474775 -3.149090 0
M  V30 12 C -1.389927 0.604238 -1.967800 0
M  V30 13 C -0.623907 1.290449 -0.897160 0
M  V30 14 C -0.806417 2.440379 -0.163986 0
M  V30 15 C 0.134933 2.799592 0.771485 0
M  V30 16 C 1.264737 2.048915 1.007526 0
M  V30 17 C 1.520093 0.867696 0.302136 0
M  V30 18 C 0.526685 0.554116 -0.634646 0
M  V30 19 C 1.721771 -1.955969 1.901919 0
M  V30 20 N 0.968864 -2.256700 2.962575 0
M  V30 21 C 1.327121 -2.284226 4.254258 0
M  V30 22 H -1.759313 -3.210052 5.368832 0
M  V30 23 H -2.230297 -3.105378 2.949800 0
M  V30 24 H 2.301769 -2.035874 -0.983494 0
M  V30 25 H 0.688016 -2.699490 -1.288889 0
M  V30 26 H 0.067915 -1.627552 -3.068883 0
M  V30 27 H 1.514516 -0.503652 -3.282857 0
M  V30 28 H -0.977352 0.283601 -4.089960 0
M  V30 29 H 0.143768 1.432078 -3.179027 0
M  V30 30 H -2.285320 1.150857 -2.269977 0
M  V30 31 H -1.611184 -0.441680 -1.634620 0
M  V30 32 H -1.727031 2.930062 -0.448281 0
M  V30 33 H -0.076799 3.705766 1.301584 0
M  V30 34 H 1.996043 2.341928 1.744546 0
M  V30 35 H 2.382094 0.224660 0.413403 0
M  V30 36 H 2.771129 -1.670117 1.781093 0
M  V30 37 H 2.336627 -2.044543 4.554323 0
M  V30 END ATOM
M  V30 BEGIN BOND
M  V30 1 1 1 2
M  V30 2 1 2 3
M  V30 3 2 3 4
M  V30 4 1 4 5
M  V30 5 2 5 6
M  V30 6 1 6 7
M  V30 7 1 7 8
M  V30 8 1 8 9
M  V30 9 1 9 10
M  V30 10 1 10 11
M  V30 11 1 11 12
M  V30 12 1 12 13
M  V30 13 2 13 14
M  V30 14 1 14 15
M  V30 15 2 15 16
M  V30 16 1 16 17
M  V30 17 2 17 18
M  V30 18 2 7 19
M  V30 19 1 19 20
M  V30 20 1 20 21
M  V30 21 2 21 2
M  V30 22 1 20 5
M  V30 23 1 18 9
M  V30 24 1 18 13
M  V30 25 1 3 22
M  V30 26 1 4 23
M  V30 27 1 8 24
M  V30 28 1 8 25
M  V30 29 1 10 26
M  V30 30 1 10 27
M  V30 31 1 11 28
M  V30 32 1 11 29
M  V30 33 1 12 30
M  V30 34 1 12 31
M  V30 35 1 14 32
M  V30 36 1 15 33
M  V30 37 1 16 34
M  V30 38 1 17 35
M  V30 39 1 19 36
M  V30 40 1 21 37
M  V30 END BOND
M  V30 END CTAB
M  END
>  <Dataset>  (34) 
ChEMBL_Kinases

>  <Ligand_Instance>  (34) 
nan

>  <PDB_ID>  (34) 
nan

>  <Standardized_SMILES>  (34) 
Clc1ccc2nc(CN3CCCc4ccccc43)cn2c1

>  <Name>  (34) 
nan

>  <Pocket>  (34) 
nan

>  <ATP_Site>  (34) 
nan

>  <Peripheral>  (34) 
nan

>  <Num_H_Atoms_ProtBoundConf>  (34) 
nan

>  <Num_Resolved_Atoms>  (34) 
nan

>  <Num_Not_Resolved_Atoms>  (34) 
nan

$$$$
CHEMBL1510603
     RDKit          3D

  0  0  0  0  0  0  0  0  0  0999 V3000
M  V30 BEGIN CTAB
M  V30 COUNTS 41 44 0 0 0
M  V30 BEGIN ATOM
M  V30 1 O 2.032481 0.376293 2.143498 0
M  V30 2 C 2.092611 -0.700816 2.767488 0
M  V30 3 C 3.064211 -1.704058 2.322228 0
M  V30 4 C 3.871016 -1.284428 1.140665 0
M  V30 5 C 3.062882 -0.989920 -0.061650 0
M  V30 6 N 2.498461 0.181057 -0.482917 0
M  V30 7 C 1.873841 -0.073169 -1.622048 0
M  V30 8 C 1.136488 0.752400 -2.478203 0
M  V30 9 C 0.549191 0.275407 -3.652802 0
M  V30 10 C 0.726747 -1.062778 -3.941408 0
M  V30 11 C 1.443030 -1.912067 -3.130199 0
M  V30 12 C 1.996721 -1.394674 -1.993391 0
M  V30 13 N 2.734053 -1.919519 -1.006837 0
M  V30 14 N 1.262755 -0.986855 3.881448 0
M  V30 15 C 0.265831 -0.080206 4.416861 0
M  V30 16 C -0.956856 -0.032904 3.584044 0
M  V30 17 C -1.980555 -0.941027 3.861203 0
M  V30 18 C -3.150990 -0.958339 3.131677 0
M  V30 19 C -3.350021 -0.062537 2.086468 0
M  V30 20 C -2.342714 0.840689 1.803979 0
M  V30 21 C -1.200580 0.823454 2.550841 0
M  V30 22 O -2.803294 1.605510 0.725805 0
M  V30 23 C -3.848787 0.899947 0.073327 0
M  V30 24 O -4.397238 0.173188 1.176194 0
M  V30 25 H 2.495053 -2.642533 2.088596 0
M  V30 26 H 3.787361 -1.879571 3.156293 0
M  V30 27 H 4.567557 -2.110739 0.887306 0
M  V30 28 H 4.528821 -0.434539 1.423682 0
M  V30 29 H 0.994335 1.814221 -2.250945 0
M  V30 30 H -0.017127 0.950785 -4.292361 0
M  V30 31 H 0.269063 -1.436839 -4.857782 0
M  V30 32 H 1.582373 -2.947511 -3.350211 0
M  V30 33 H 3.028053 -2.937155 -0.964531 0
M  V30 34 H 1.367649 -1.910148 4.356688 0
M  V30 35 H 0.018660 -0.333652 5.471477 0
M  V30 36 H 0.724764 0.939310 4.411490 0
M  V30 37 H -1.902480 -1.675749 4.664028 0
M  V30 38 H -3.976688 -1.632667 3.295608 0
M  V30 39 H -0.446298 1.536415 2.303665 0
M  V30 40 H -3.444372 0.227098 -0.713890 0
M  V30 41 H -4.603171 1.552574 -0.370303 0
M  V30 END ATOM
M  V30 BEGIN BOND
M  V30 1 2 1 2
M  V30 2 1 2 3
M  V30 3 1 3 4
M  V30 4 1 4 5
M  V30 5 2 5 6
M  V30 6 1 6 7
M  V30 7 2 7 8
M  V30 8 1 8 9
M  V30 9 2 9 10
M  V30 10 1 10 11
M  V30 11 2 11 12
M  V30 12 1 12 13
M  V30 13 1 2 14
M  V30 14 1 14 15
M  V30 15 1 15 16
M  V30 16 2 16 17
M  V30 17 1 17 18
M  V30 18 2 18 19
M  V30 19 1 19 20
M  V30 20 2 20 21
M  V30 21 1 20 22
M  V30 22 1 22 23
M  V30 23 1 23 24
M  V30 24 1 13 5
M  V30 25 1 21 16
M  V30 26 1 12 7
M  V30 27 1 24 19
M  V30 28 1 3 25
M  V30 29 1 3 26
M  V30 30 1 4 27
M  V30 31 1 4 28
M  V30 32 1 8 29
M  V30 33 1 9 30
M  V30 34 1 10 31
M  V30 35 1 11 32
M  V30 36 1 13 33
M  V30 37 1 14 34
M  V30 38 1 15 35
M  V30 39 1 15 36
M  V30 40 1 17 37
M  V30 41 1 18 38
M  V30 42 1 21 39
M  V30 43 1 23 40
M  V30 44 1 23 41
M  V30 END BOND
M  V30 END CTAB
M  END
>  <Dataset>  (35) 
ChEMBL_Kinases

>  <Ligand_Instance>  (35) 
nan

>  <PDB_ID>  (35) 
nan

>  <Standardized_SMILES>  (35) 
O=C(CCc1nc2ccccc2[nH]1)NCc1ccc2c(c1)OCO2

>  <Name>  (35) 
nan

>  <Pocket>  (35) 
nan

>  <ATP_Site>  (35) 
nan

>  <Peripheral>  (35) 
nan

>  <Num_H_Atoms_ProtBoundConf>  (35) 
nan

>  <Num_Resolved_Atoms>  (35) 
nan

>  <Num_Not_Resolved_Atoms>  (35) 
nan

$$$$
CHEMBL1510597
     RDKit          3D

  0  0  0  0  0  0  0  0  0  0999 V3000
M  V30 BEGIN CTAB
M  V30 COUNTS 57 60 0 0 0
M  V30 BEGIN ATOM
M  V30 1 C -0.485515 -3.384747 6.899866 0
M  V30 2 C 0.045773 -2.922378 5.576859 0
M  V30 3 C 0.576071 -1.690851 5.351453 0
M  V30 4 C 1.049192 -1.329885 4.086191 0
M  V30 5 C 0.985554 -2.236231 3.021119 0
M  V30 6 C 1.466828 -1.875348 1.693600 0
M  V30 7 O 1.323478 -2.838282 0.851997 0
M  V30 8 N 2.035402 -0.677108 1.227487 0
M  V30 9 C 2.430708 -0.550347 -0.172153 0
M  V30 10 C 1.293654 -0.727113 -1.124229 0
M  V30 11 N 0.226706 0.238209 -1.014638 0
M  V30 12 C 0.484286 1.462261 -0.284695 0
M  V30 13 N 1.219749 2.040343 0.577026 0
M  V30 14 C 0.882010 3.394897 0.860874 0
M  V30 15 C -0.110911 3.745337 -0.214375 0 CFG=2
M  V30 16 C -1.284647 4.520696 0.300951 0
M  V30 17 N -0.460093 2.433551 -0.698342 0
M  V30 18 C -1.498092 1.819411 -1.488729 0
M  V30 19 C -1.110160 0.348457 -1.503928 0 CFG=1
M  V30 20 C -1.399028 -0.147256 -2.879691 0
M  V30 21 C -1.132713 -1.576243 -3.100769 0
M  V30 22 C -2.157451 -2.414457 -2.670105 0
M  V30 23 C -2.104257 -3.791772 -2.821868 0
M  V30 24 C -1.026939 -4.408015 -3.411668 0
M  V30 25 O -0.869369 -5.755970 -3.613133 0
M  V30 26 C -0.000385 -3.600146 -3.846307 0
M  V30 27 C -0.076973 -2.242336 -3.684517 0
M  V30 28 C 0.438895 -3.458439 3.321320 0
M  V30 29 C -0.030180 -3.833984 4.550517 0
M  V30 30 Br -0.758977 -5.577952 4.791985 0
M  V30 31 H -0.508032 -4.492219 6.954449 0
M  V30 32 H -1.514533 -2.954342 7.017395 0
M  V30 33 H 0.157234 -3.010695 7.701559 0
M  V30 34 H 0.630047 -0.981680 6.171715 0
M  V30 35 H 1.454709 -0.342535 3.977459 0
M  V30 36 H 2.071123 -0.047530 2.086380 0
M  V30 37 H 2.973227 0.394934 -0.276176 0
M  V30 38 H 3.160359 -1.360413 -0.382088 0
M  V30 39 H 0.934973 -1.768770 -1.064319 0
M  V30 40 H 1.771884 -0.658048 -2.148064 0
M  V30 41 H 0.325038 3.454685 1.823681 0
M  V30 42 H 1.760600 4.079895 0.855689 0
M  V30 43 H 0.387820 4.260000 -1.079124 0
M  V30 44 H -1.208105 4.713361 1.409886 0
M  V30 45 H -2.248893 4.016678 0.141553 0
M  V30 46 H -1.336796 5.513261 -0.190901 0
M  V30 47 H -2.492187 1.890107 -1.005082 0
M  V30 48 H -1.542512 2.235612 -2.523566 0
M  V30 49 H -1.777151 -0.211724 -0.756512 0
M  V30 50 H -0.803547 0.490471 -3.583174 0
M  V30 51 H -2.476809 0.048864 -3.165054 0
M  V30 52 H -3.098169 -2.139430 -2.178181 0
M  V30 53 H -2.866614 -4.500996 -2.509340 0
M  V30 54 H -1.610118 -6.402825 -3.350884 0
M  V30 55 H 0.897073 -3.938258 -4.321582 0
M  V30 56 H 0.701471 -1.565558 -4.022620 0
M  V30 57 H 0.367309 -4.200899 2.525893 0
M  V30 END ATOM
M  V30 BEGIN BOND
M  V30 1 1 1 2
M  V30 2 2 2 3
M  V30 3 1 3 4
M  V30 4 2 4 5
M  V30 5 1 5 6
M  V30 6 2 6 7
M  V30 7 1 6 8
M  V30 8 1 8 9
M  V30 9 1 9 10
M  V30 10 1 10 11
M  V30 11 1 11 12
M  V30 12 2 12 13
M  V30 13 1 13 14
M  V30 14 1 14 15
M  V30 15 1 15 16
M  V30 16 1 15 17
M  V30 17 1 17 18
M  V30 18 1 18 19
M  V30 19 1 19 20
M  V30 20 1 20 21
M  V30 21 2 21 22
M  V30 22 1 22 23
M  V30 23 2 23 24
M  V30 24 1 24 25
M  V30 25 1 24 26
M  V30 26 2 26 27
M  V30 27 1 5 28
M  V30 28 2 28 29
M  V30 29 1 29 30
M  V30 30 1 29 2
M  V30 31 1 19 11
M  V30 32 1 27 21
M  V30 33 1 17 12
M  V30 34 1 1 31
M  V30 35 1 1 32
M  V30 36 1 1 33
M  V30 37 1 3 34
M  V30 38 1 4 35
M  V30 39 1 8 36
M  V30 40 1 9 37
M  V30 41 1 9 38
M  V30 42 1 10 39
M  V30 43 1 10 40
M  V30 44 1 14 41
M  V30 45 1 14 42
M  V30 46 1 15 43 CFG=3
M  V30 47 1 16 44
M  V30 48 1 16 45
M  V30 49 1 16 46
M  V30 50 1 18 47
M  V30 51 1 18 48
M  V30 52 1 19 49 CFG=1
M  V30 53 1 20 50
M  V30 54 1 20 51
M  V30 55 1 22 52
M  V30 56 1 23 53
M  V30 57 1 25 54
M  V30 58 1 26 55
M  V30 59 1 27 56
M  V30 60 1 28 57
M  V30 END BOND
M  V30 END CTAB
M  END
>  <Dataset>  (36) 
ChEMBL_Kinases

>  <Ligand_Instance>  (36) 
nan

>  <PDB_ID>  (36) 
nan

>  <Standardized_SMILES>  (36) 
Cc1ccc(C(=O)NCCN2C3=NC[C@H](C)N3C[C@H]2Cc2ccc(O)cc2)cc1Br

>  <Name>  (36) 
nan

>  <Pocket>  (36) 
nan

>  <ATP_Site>  (36) 
nan

>  <Peripheral>  (36) 
nan

>  <Num_H_Atoms_ProtBoundConf>  (36) 
nan

>  <Num_Resolved_Atoms>  (36) 
nan

>  <Num_Not_Resolved_Atoms>  (36) 
nan

$$$$
CHEMBL1510572
     RDKit          3D

  0  0  0  0  0  0  0  0  0  0999 V3000
M  V30 BEGIN CTAB
M  V30 COUNTS 35 38 0 0 0
M  V30 BEGIN ATOM
M  V30 1 O -3.028610 -1.096521 0.719906 0
M  V30 2 C -3.020522 -2.286491 0.317200 0
M  V30 3 N -1.755696 -2.888319 0.270632 0
M  V30 4 C -0.726294 -1.983945 0.705746 0
M  V30 5 C -0.445470 -2.006522 2.057885 0
M  V30 6 C 0.528254 -1.188683 2.641822 0
M  V30 7 C 1.210609 -0.341674 1.796536 0
M  V30 8 N 2.174028 0.540977 2.037816 0
M  V30 9 N 2.509457 1.120572 0.874705 0
M  V30 10 C 3.514172 2.121063 0.759972 0
M  V30 11 C 4.553748 2.148610 1.696145 0
M  V30 12 C 5.546308 3.116410 1.604364 0
M  V30 13 C 5.526730 4.057406 0.601102 0
M  V30 14 C 4.513668 4.049963 -0.331502 0
M  V30 15 C 3.535885 3.083349 -0.227247 0
M  V30 16 N 1.755845 0.603687 -0.108931 0
M  V30 17 C 0.936556 -0.312688 0.445147 0
M  V30 18 C -0.026214 -1.124174 -0.119180 0
M  V30 19 C -4.155528 -3.208065 -0.136887 0
M  V30 20 C -5.428862 -2.807548 -0.159635 0
M  V30 21 C -6.403697 -3.675296 -0.575467 0
M  V30 22 C -5.943672 -4.968643 -0.956939 0
M  V30 23 S -4.070839 -4.831459 -0.677088 0
M  V30 24 H -1.566562 -3.881068 -0.042613 0
M  V30 25 H -0.951582 -2.652259 2.765068 0
M  V30 26 H 0.752164 -1.199708 3.687997 0
M  V30 27 H 4.535414 1.391437 2.471772 0
M  V30 28 H 6.311641 3.044737 2.389820 0
M  V30 29 H 6.345403 4.787838 0.596405 0
M  V30 30 H 4.498861 4.789469 -1.119397 0
M  V30 31 H 2.733504 3.047461 -0.934506 0
M  V30 32 H -0.277636 -1.138816 -1.170098 0
M  V30 33 H -5.775906 -1.802942 0.137966 0
M  V30 34 H -7.472616 -3.541637 -0.663283 0
M  V30 35 H -6.538379 -5.837974 -1.325944 0
M  V30 END ATOM
M  V30 BEGIN BOND
M  V30 1 2 1 2
M  V30 2 1 2 3
M  V30 3 1 3 4
M  V30 4 1 4 5
M  V30 5 2 5 6
M  V30 6 1 6 7
M  V30 7 2 7 8
M  V30 8 1 8 9
M  V30 9 1 9 10
M  V30 10 2 10 11
M  V30 11 1 11 12
M  V30 12 2 12 13
M  V30 13 1 13 14
M  V30 14 2 14 15
M  V30 15 1 9 16
M  V30 16 2 16 17
M  V30 17 1 17 18
M  V30 18 1 2 19
M  V30 19 2 19 20
M  V30 20 1 20 21
M  V30 21 2 21 22
M  V30 22 1 22 23
M  V30 23 2 18 4
M  V30 24 1 23 19
M  V30 25 1 17 7
M  V30 26 1 15 10
M  V30 27 1 3 24
M  V30 28 1 5 25
M  V30 29 1 6 26
M  V30 30 1 11 27
M  V30 31 1 12 28
M  V30 32 1 13 29
M  V30 33 1 14 30
M  V30 34 1 15 31
M  V30 35 1 18 32
M  V30 36 1 20 33
M  V30 37 1 21 34
M  V30 38 1 22 35
M  V30 END BOND
M  V30 END CTAB
M  END
>  <Dataset>  (37) 
ChEMBL_Kinases

>  <Ligand_Instance>  (37) 
nan

>  <PDB_ID>  (37) 
nan

>  <Standardized_SMILES>  (37) 
O=C(Nc1ccc2nn(-c3ccccc3)nc2c1)c1cccs1

>  <Name>  (37) 
nan

>  <Pocket>  (37) 
nan

>  <ATP_Site>  (37) 
nan

>  <Peripheral>  (37) 
nan

>  <Num_H_Atoms_ProtBoundConf>  (37) 
nan

>  <Num_Resolved_Atoms>  (37) 
nan

>  <Num_Not_Resolved_Atoms>  (37) 
nan

$$$$
CHEMBL1510404
     RDKit          3D

  0  0  0  0  0  0  0  0  0  0999 V3000
M  V30 BEGIN CTAB
M  V30 COUNTS 45 47 0 0 0
M  V30 BEGIN ATOM
M  V30 1 C 3.125165 -5.797372 -0.569717 0
M  V30 2 O 3.192705 -4.550662 -1.164658 0
M  V30 3 C 2.134650 -3.731070 -0.853050 0
M  V30 4 C 2.329772 -2.401341 -1.566055 0
M  V30 5 O 1.241693 -1.535770 -1.255675 0
M  V30 6 C 1.155568 -0.249259 -1.770265 0
M  V30 7 O 2.157647 -0.039625 -2.501787 0
M  V30 8 C 0.070189 0.683570 -1.491372 0
M  V30 9 C 0.130622 1.863893 -2.052371 0
M  V30 10 N 1.218846 2.177603 -2.884865 0
M  V30 11 O -0.897416 2.756664 -1.792291 0
M  V30 12 C -1.960069 2.421956 -0.966790 0
M  V30 13 C -2.001350 1.222449 -0.409504 0
M  V30 14 C -3.151180 0.938949 0.448899 0
M  V30 15 O -3.604032 -0.225067 0.601752 0
M  V30 16 C -3.851152 2.043930 1.196320 0
M  V30 17 C -3.287621 3.388247 0.810467 0
M  V30 18 C -3.065986 3.378847 -0.685462 0
M  V30 19 C -0.994629 0.179821 -0.589703 0
M  V30 20 C -1.536818 -1.077110 -1.159039 0
M  V30 21 C -1.464381 -2.369426 -0.644531 0
M  V30 22 C -2.049575 -3.380601 -1.362807 0
M  V30 23 C -2.689878 -3.140140 -2.553117 0
M  V30 24 N -2.757744 -1.876159 -3.051135 0
M  V30 25 C -2.183425 -0.852676 -2.355542 0
M  V30 26 H 3.108090 -5.773344 0.520489 0
M  V30 27 H 2.172141 -6.294257 -0.890860 0
M  V30 28 H 3.947002 -6.416551 -0.973074 0
M  V30 29 H 2.209671 -3.508879 0.239484 0
M  V30 30 H 1.140098 -4.136846 -1.043810 0
M  V30 31 H 2.340257 -2.537002 -2.660224 0
M  V30 32 H 3.253655 -1.913375 -1.261086 0
M  V30 33 H 0.900238 1.961247 -3.876187 0
M  V30 34 H 2.187341 2.544208 -2.758685 0
M  V30 35 H -3.549517 1.884058 2.269983 0
M  V30 36 H -4.934885 1.969857 1.113237 0
M  V30 37 H -4.035312 4.141050 1.125340 0
M  V30 38 H -2.358643 3.624753 1.366658 0
M  V30 39 H -4.009647 2.985929 -1.132130 0
M  V30 40 H -2.833382 4.396469 -1.024858 0
M  V30 41 H -0.497121 -0.124170 0.369386 0
M  V30 42 H -0.932233 -2.402233 0.294570 0
M  V30 43 H -1.949320 -4.355851 -0.894919 0
M  V30 44 H -3.126018 -3.985234 -3.060984 0
M  V30 45 H -2.316598 0.088442 -2.870666 0
M  V30 END ATOM
M  V30 BEGIN BOND
M  V30 1 1 1 2
M  V30 2 1 2 3
M  V30 3 1 3 4
M  V30 4 1 4 5
M  V30 5 1 5 6
M  V30 6 2 6 7
M  V30 7 1 6 8
M  V30 8 2 8 9
M  V30 9 1 9 10
M  V30 10 1 9 11
M  V30 11 1 11 12
M  V30 12 2 12 13
M  V30 13 1 13 14
M  V30 14 2 14 15
M  V30 15 1 14 16
M  V30 16 1 16 17
M  V30 17 1 17 18
M  V30 18 1 13 19
M  V30 19 1 19 20
M  V30 20 2 20 21
M  V30 21 1 21 22
M  V30 22 2 22 23
M  V30 23 1 23 24
M  V30 24 2 24 25
M  V30 25 1 19 8
M  V30 26 1 25 20
M  V30 27 1 18 12
M  V30 28 1 1 26
M  V30 29 1 1 27
M  V30 30 1 1 28
M  V30 31 1 3 29
M  V30 32 1 3 30
M  V30 33 1 4 31
M  V30 34 1 4 32
M  V30 35 1 10 33
M  V30 36 1 10 34
M  V30 37 1 16 35
M  V30 38 1 16 36
M  V30 39 1 17 37
M  V30 40 1 17 38
M  V30 41 1 18 39
M  V30 42 1 18 40
M  V30 43 1 19 41
M  V30 44 1 21 42
M  V30 45 1 22 43
M  V30 46 1 23 44
M  V30 47 1 25 45
M  V30 END BOND
M  V30 END CTAB
M  END
>  <Dataset>  (38) 
ChEMBL_Kinases

>  <Ligand_Instance>  (38) 
nan

>  <PDB_ID>  (38) 
nan

>  <Standardized_SMILES>  (38) 
COCCOC(=O)C1=C(N)OC2=C(C(=O)CCC2)C1c1cccnc1

>  <Name>  (38) 
nan

>  <Pocket>  (38) 
nan

>  <ATP_Site>  (38) 
nan

>  <Peripheral>  (38) 
nan

>  <Num_H_Atoms_ProtBoundConf>  (38) 
nan

>  <Num_Resolved_Atoms>  (38) 
nan

>  <Num_Not_Resolved_Atoms>  (38) 
nan

$$$$
CHEMBL1510190
     RDKit          3D

  0  0  0  0  0  0  0  0  0  0999 V3000
M  V30 BEGIN CTAB
M  V30 COUNTS 31 32 0 0 0
M  V30 BEGIN ATOM
M  V30 1 C 2.217670 -4.218834 0.672110 0
M  V30 2 C 2.453260 -2.959895 1.431902 0
M  V30 3 O 3.308061 -2.866477 2.323380 0
M  V30 4 C 1.657464 -1.774453 1.132413 0
M  V30 5 C 1.907487 -0.614595 1.865334 0
M  V30 6 N 2.897930 -0.518689 2.893140 0
M  V30 7 N 1.212495 0.524251 1.646955 0
M  V30 8 C 0.242020 0.549997 0.689762 0
M  V30 9 N -0.016448 -0.558283 -0.030072 0
M  V30 10 C 0.668659 -1.711464 0.172464 0
M  V30 11 O 0.448401 -2.755014 -0.482284 0
M  V30 12 C -1.006048 -0.720363 -1.084613 0
M  V30 13 C -2.273932 0.012391 -0.743791 0
M  V30 14 C -2.389647 0.392899 0.697058 0
M  V30 15 C -1.861707 1.784434 0.989971 0
M  V30 16 C -0.404723 1.897823 0.606611 0
M  V30 17 H 2.860202 -5.004914 1.110522 0
M  V30 18 H 1.169447 -4.572772 0.829522 0
M  V30 19 H 2.404277 -4.113183 -0.405050 0
M  V30 20 H 3.094542 -0.964191 3.829662 0
M  V30 21 H 3.696702 0.145483 2.796733 0
M  V30 22 H -0.561694 -0.292054 -2.021384 0
M  V30 23 H -1.160886 -1.814050 -1.272283 0
M  V30 24 H -3.111409 -0.680831 -1.024924 0
M  V30 25 H -2.402582 0.881627 -1.451115 0
M  V30 26 H -1.860461 -0.349212 1.301116 0
M  V30 27 H -3.472859 0.395040 0.996683 0
M  V30 28 H -1.926238 1.930006 2.083479 0
M  V30 29 H -2.434265 2.559238 0.483689 0
M  V30 30 H 0.117716 2.583442 1.299779 0
M  V30 31 H -0.318798 2.308330 -0.421305 0
M  V30 END ATOM
M  V30 BEGIN BOND
M  V30 1 1 1 2
M  V30 2 2 2 3
M  V30 3 1 2 4
M  V30 4 2 4 5
M  V30 5 1 5 6
M  V30 6 1 5 7
M  V30 7 2 7 8
M  V30 8 1 8 9
M  V30 9 1 9 10
M  V30 10 2 10 11
M  V30 11 1 9 12
M  V30 12 1 12 13
M  V30 13 1 13 14
M  V30 14 1 14 15
M  V30 15 1 15 16
M  V30 16 1 10 4
M  V30 17 1 16 8
M  V30 18 1 1 17
M  V30 19 1 1 18
M  V30 20 1 1 19
M  V30 21 1 6 20
M  V30 22 1 6 21
M  V30 23 1 12 22
M  V30 24 1 12 23
M  V30 25 1 13 24
M  V30 26 1 13 25
M  V30 27 1 14 26
M  V30 28 1 14 27
M  V30 29 1 15 28
M  V30 30 1 15 29
M  V30 31 1 16 30
M  V30 32 1 16 31
M  V30 END BOND
M  V30 END CTAB
M  END
>  <Dataset>  (39) 
ChEMBL_Kinases

>  <Ligand_Instance>  (39) 
nan

>  <PDB_ID>  (39) 
nan

>  <Standardized_SMILES>  (39) 
CC(=O)c1c(N)nc2n(c1=O)CCCCC2

>  <Name>  (39) 
nan

>  <Pocket>  (39) 
nan

>  <ATP_Site>  (39) 
nan

>  <Peripheral>  (39) 
nan

>  <Num_H_Atoms_ProtBoundConf>  (39) 
nan

>  <Num_Resolved_Atoms>  (39) 
nan

>  <Num_Not_Resolved_Atoms>  (39) 
nan

$$$$
CHEMBL1509922
     RDKit          3D

  0  0  0  0  0  0  0  0  0  0999 V3000
M  V30 BEGIN CTAB
M  V30 COUNTS 39 40 0 0 0
M  V30 BEGIN ATOM
M  V30 1 C -1.714267 -6.480155 2.027520 0
M  V30 2 O -1.093865 -5.478137 2.827742 0
M  V30 3 C -0.406217 -4.421171 2.247910 0
M  V30 4 C -0.250358 -4.226068 0.886751 0
M  V30 5 C 0.452138 -3.142059 0.404071 0
M  V30 6 C 1.015408 -2.227972 1.255649 0
M  V30 7 N 1.710431 -1.162153 0.569163 0
M  V30 8 C 0.785718 -0.106862 0.324994 0
M  V30 9 O -0.418232 -0.183643 0.685798 0
M  V30 10 C 1.214061 1.123711 -0.366501 0
M  V30 11 C 0.379444 2.185413 -0.644989 0
M  V30 12 C 1.207546 3.107446 -1.295916 0
M  V30 13 C 0.633868 4.403990 -1.753456 0
M  V30 14 C -0.452986 4.158097 -2.778784 0
M  V30 15 C 0.044945 5.119430 -0.558840 0
M  V30 16 O 2.435103 2.606738 -1.384256 0
M  V30 17 N 2.445777 1.411272 -0.825919 0
M  V30 18 C 0.878029 -2.393633 2.631352 0
M  V30 19 C 0.171017 -3.486078 3.078209 0
M  V30 20 O 0.062411 -3.606614 4.457332 0
M  V30 21 C 0.637952 -2.672940 5.325798 0
M  V30 22 H -2.635624 -6.096885 1.524676 0
M  V30 23 H -2.021246 -7.326620 2.640830 0
M  V30 24 H -1.059925 -6.857952 1.226873 0
M  V30 25 H -0.719515 -4.984911 0.240767 0
M  V30 26 H 0.488283 -3.124494 -0.676266 0
M  V30 27 H 2.717681 -1.095082 0.265766 0
M  V30 28 H -0.672646 2.264525 -0.404992 0
M  V30 29 H 1.446966 4.954387 -2.228553 0
M  V30 30 H -0.692305 5.047815 -3.366517 0
M  V30 31 H -0.192682 3.281699 -3.437111 0
M  V30 32 H -1.370169 3.824731 -2.240702 0
M  V30 33 H -0.956623 4.703653 -0.325834 0
M  V30 34 H 0.712904 5.103684 0.315678 0
M  V30 35 H -0.110544 6.180055 -0.851694 0
M  V30 36 H 1.348254 -1.635551 3.210842 0
M  V30 37 H 1.741612 -2.651927 5.108889 0
M  V30 38 H 0.252852 -1.653791 5.261792 0
M  V30 39 H 0.571768 -3.102754 6.368043 0
M  V30 END ATOM
M  V30 BEGIN BOND
M  V30 1 1 1 2
M  V30 2 1 2 3
M  V30 3 2 3 4
M  V30 4 1 4 5
M  V30 5 2 5 6
M  V30 6 1 6 7
M  V30 7 1 7 8
M  V30 8 2 8 9
M  V30 9 1 8 10
M  V30 10 1 10 11
M  V30 11 2 11 12
M  V30 12 1 12 13
M  V30 13 1 13 14
M  V30 14 1 13 15
M  V30 15 1 12 16
M  V30 16 1 16 17
M  V30 17 1 6 18
M  V30 18 2 18 19
M  V30 19 1 19 20
M  V30 20 1 20 21
M  V30 21 1 19 3
M  V30 22 2 17 10
M  V30 23 1 1 22
M  V30 24 1 1 23
M  V30 25 1 1 24
M  V30 26 1 4 25
M  V30 27 1 5 26
M  V30 28 1 7 27
M  V30 29 1 11 28
M  V30 30 1 13 29
M  V30 31 1 14 30
M  V30 32 1 14 31
M  V30 33 1 14 32
M  V30 34 1 15 33
M  V30 35 1 15 34
M  V30 36 1 15 35
M  V30 37 1 18 36
M  V30 38 1 21 37
M  V30 39 1 21 38
M  V30 40 1 21 39
M  V30 END BOND
M  V30 END CTAB
M  END
>  <Dataset>  (40) 
ChEMBL_Kinases

>  <Ligand_Instance>  (40) 
nan

>  <PDB_ID>  (40) 
nan

>  <Standardized_SMILES>  (40) 
COc1ccc(NC(=O)c2cc(C(C)C)on2)cc1OC

>  <Name>  (40) 
nan

>  <Pocket>  (40) 
nan

>  <ATP_Site>  (40) 
nan

>  <Peripheral>  (40) 
nan

>  <Num_H_Atoms_ProtBoundConf>  (40) 
nan

>  <Num_Resolved_Atoms>  (40) 
nan

>  <Num_Not_Resolved_Atoms>  (40) 
nan

$$$$
CHEMBL1509860
     RDKit          3D

  0  0  0  0  0  0  0  0  0  0999 V3000
M  V30 BEGIN CTAB
M  V30 COUNTS 52 56 0 0 0
M  V30 BEGIN ATOM
M  V30 1 C 6.531616 -1.997388 2.536303 0
M  V30 2 O 6.045957 -2.760230 1.448437 0
M  V30 3 C 4.685824 -2.696791 1.179401 0
M  V30 4 C 3.868708 -1.913039 1.959385 0
M  V30 5 C 2.507361 -1.862248 1.674039 0
M  V30 6 C 1.908445 -2.554269 0.646282 0
M  V30 7 C 0.504704 -2.491694 0.362110 0
M  V30 8 C -0.347674 -1.763447 1.058232 0
M  V30 9 C -1.792784 -1.587147 0.906463 0
M  V30 10 C -2.122591 -0.137612 0.676743 0
M  V30 11 C -1.590875 0.712264 -0.269034 0
M  V30 12 C -0.552984 0.364116 -1.287055 0
M  V30 13 N -2.179458 1.923320 -0.109909 0
M  V30 14 N -3.046931 1.881734 0.878098 0
M  V30 15 C -3.791292 3.043108 1.232651 0
M  V30 16 C -3.323564 3.797103 2.314360 0
M  V30 17 C -4.020483 4.937376 2.690985 0
M  V30 18 C -5.160214 5.307659 1.994238 0
M  V30 19 C -5.594901 4.540439 0.930629 0
M  V30 20 C -4.931194 3.392666 0.517580 0
M  V30 21 C -3.033947 0.636294 1.377396 0
M  V30 22 Cl -4.039541 0.121725 2.714891 0
M  V30 23 N -2.289918 -2.363855 -0.200717 0
M  V30 24 N -3.502045 -2.494396 -0.679757 0
M  V30 25 N -3.539817 -3.311336 -1.718640 0
M  V30 26 N -2.298029 -3.720543 -1.911581 0
M  V30 27 C -1.512843 -3.145928 -0.984061 0
M  V30 28 N -0.103978 -3.209953 -0.699722 0
M  V30 29 C 2.754592 -3.329140 -0.114995 0
M  V30 30 C 4.107627 -3.408616 0.131991 0
M  V30 31 O 4.997493 -4.171783 -0.603701 0
M  V30 32 C 4.612008 -4.967219 -1.708589 0
M  V30 33 H 5.998479 -2.337285 3.455229 0
M  V30 34 H 6.263619 -0.918133 2.436893 0
M  V30 35 H 7.600481 -2.137094 2.722522 0
M  V30 36 H 4.299998 -1.345386 2.787096 0
M  V30 37 H 1.949707 -1.234466 2.323854 0
M  V30 38 H -0.026584 -1.163987 1.895603 0
M  V30 39 H -2.316226 -1.882649 1.861240 0
M  V30 40 H -0.931133 -0.463946 -1.918696 0
M  V30 41 H 0.394349 0.172607 -0.778388 0
M  V30 42 H -0.445445 1.226104 -2.008580 0
M  V30 43 H -2.444788 3.484462 2.827864 0
M  V30 44 H -3.696846 5.553085 3.521923 0
M  V30 45 H -5.756609 6.184705 2.229426 0
M  V30 46 H -6.480661 4.737340 0.309254 0
M  V30 47 H -5.240007 2.767212 -0.308539 0
M  V30 48 H 0.446568 -3.826994 -1.333523 0
M  V30 49 H 2.431454 -3.927521 -0.952984 0
M  V30 50 H 5.492860 -5.216609 -2.349906 0
M  V30 51 H 3.878394 -4.396511 -2.302798 0
M  V30 52 H 4.197456 -5.942648 -1.376251 0
M  V30 END ATOM
M  V30 BEGIN BOND
M  V30 1 1 1 2
M  V30 2 1 2 3
M  V30 3 2 3 4
M  V30 4 1 4 5
M  V30 5 2 5 6
M  V30 6 1 6 7
M  V30 7 2 7 8
M  V30 8 1 8 9
M  V30 9 1 9 10
M  V30 10 1 10 11
M  V30 11 1 11 12
M  V30 12 2 11 13
M  V30 13 1 13 14
M  V30 14 1 14 15
M  V30 15 2 15 16
M  V30 16 1 16 17
M  V30 17 2 17 18
M  V30 18 1 18 19
M  V30 19 2 19 20
M  V30 20 1 14 21
M  V30 21 1 21 22
M  V30 22 1 9 23
M  V30 23 1 23 24
M  V30 24 2 24 25
M  V30 25 1 25 26
M  V30 26 2 26 27
M  V30 27 1 27 28
M  V30 28 1 6 29
M  V30 29 2 29 30
M  V30 30 1 30 31
M  V30 31 1 31 32
M  V30 32 1 30 3
M  V30 33 1 28 7
M  V30 34 2 21 10
M  V30 35 1 27 23
M  V30 36 1 20 15
M  V30 37 1 1 33
M  V30 38 1 1 34
M  V30 39 1 1 35
M  V30 40 1 4 36
M  V30 41 1 5 37
M  V30 42 1 8 38
M  V30 43 1 9 39
M  V30 44 1 12 40
M  V30 45 1 12 41
M  V30 46 1 12 42
M  V30 47 1 16 43
M  V30 48 1 17 44
M  V30 49 1 18 45
M  V30 50 1 19 46
M  V30 51 1 20 47
M  V30 52 1 28 48
M  V30 53 1 29 49
M  V30 54 1 32 50
M  V30 55 1 32 51
M  V30 56 1 32 52
M  V30 END BOND
M  V30 END CTAB
M  END
>  <Dataset>  (41) 
ChEMBL_Kinases

>  <Ligand_Instance>  (41) 
nan

>  <PDB_ID>  (41) 
nan

>  <Standardized_SMILES>  (41) 
COc1ccc(C2=CC(c3c(C)nn(-c4ccccc4)c3Cl)n3nnnc3N2)cc1OC

>  <Name>  (41) 
nan

>  <Pocket>  (41) 
nan

>  <ATP_Site>  (41) 
nan

>  <Peripheral>  (41) 
nan

>  <Num_H_Atoms_ProtBoundConf>  (41) 
nan

>  <Num_Resolved_Atoms>  (41) 
nan

>  <Num_Not_Resolved_Atoms>  (41) 
nan

$$$$
CHEMBL1509780
     RDKit          3D

  0  0  0  0  0  0  0  0  0  0999 V3000
M  V30 BEGIN CTAB
M  V30 COUNTS 51 53 0 0 0
M  V30 BEGIN ATOM
M  V30 1 C 4.387931 -1.176352 -0.620346 0
M  V30 2 C 5.190725 0.002469 -0.227133 0
M  V30 3 C 6.560375 0.222879 -0.370444 0
M  V30 4 Cl 7.669934 -0.939822 -1.095852 0
M  V30 5 C 6.804961 1.481502 0.158010 0
M  V30 6 N 8.110992 2.058270 0.188168 0 CHG=1 VAL=4
M  V30 7 O 8.951908 1.807317 -0.695206 0
M  V30 8 O 8.571118 2.915817 1.148106 0 CHG=-1 VAL=1
M  V30 9 N 5.633279 1.995049 0.599589 0
M  V30 10 N 4.658571 1.103872 0.367950 0
M  V30 11 C 3.244414 1.310825 0.714118 0
M  V30 12 C 3.001946 0.794489 2.122995 0
M  V30 13 C 1.583586 0.984367 2.508470 0
M  V30 14 C 0.593394 0.310954 1.671560 0
M  V30 15 O 0.685100 -0.434660 0.637334 0
M  V30 16 N -0.752134 0.475618 2.020011 0
M  V30 17 C -1.836879 -0.110686 1.311281 0
M  V30 18 C -2.650489 0.258381 0.248284 0
M  V30 19 C -2.436274 1.578013 -0.401583 0
M  V30 20 N -3.522066 -0.741341 0.025568 0
M  V30 21 C -4.515778 -0.680836 -1.016433 0
M  V30 22 N -3.324492 -1.734256 0.876801 0
M  V30 23 C -4.062006 -2.951022 0.931838 0
M  V30 24 C -5.384806 -2.823364 1.359303 0
M  V30 25 C -6.220102 -3.933065 1.459730 0
M  V30 26 C -5.689980 -5.183343 1.117635 0
M  V30 27 C -4.377285 -5.319208 0.692143 0
M  V30 28 C -3.568455 -4.203961 0.600713 0
M  V30 29 C -2.293844 -1.375759 1.681009 0
M  V30 30 O -1.869095 -2.133443 2.606945 0
M  V30 31 H 4.254720 -1.845585 0.247483 0
M  V30 32 H 4.908299 -1.785957 -1.406006 0
M  V30 33 H 3.384981 -0.844124 -0.970049 0
M  V30 34 H 2.596687 0.762797 0.027803 0
M  V30 35 H 2.984096 2.378258 0.618638 0
M  V30 36 H 3.412817 -0.195722 2.288581 0
M  V30 37 H 3.612431 1.482114 2.771598 0
M  V30 38 H 1.414197 0.732795 3.578774 0
M  V30 39 H 1.337511 2.084025 2.457345 0
M  V30 40 H -1.162978 1.019448 2.805991 0
M  V30 41 H -3.317467 1.801323 -1.040434 0
M  V30 42 H -1.561776 1.524923 -1.089478 0
M  V30 43 H -2.327814 2.393652 0.343040 0
M  V30 44 H -4.156017 -1.258196 -1.905325 0
M  V30 45 H -5.514559 -1.076084 -0.668438 0
M  V30 46 H -4.737383 0.363205 -1.319468 0
M  V30 47 H -5.819286 -1.863590 1.630432 0
M  V30 48 H -7.244120 -3.810615 1.793983 0
M  V30 49 H -6.395244 -5.997351 1.219893 0
M  V30 50 H -4.016780 -6.295877 0.441469 0
M  V30 51 H -2.549160 -4.254849 0.278267 0
M  V30 END ATOM
M  V30 BEGIN BOND
M  V30 1 1 1 2
M  V30 2 2 2 3
M  V30 3 1 3 4
M  V30 4 1 3 5
M  V30 5 1 5 6
M  V30 6 2 6 7
M  V30 7 1 6 8
M  V30 8 2 5 9
M  V30 9 1 9 10
M  V30 10 1 10 11
M  V30 11 1 11 12
M  V30 12 1 12 13
M  V30 13 1 13 14
M  V30 14 2 14 15
M  V30 15 1 14 16
M  V30 16 1 16 17
M  V30 17 2 17 18
M  V30 18 1 18 19
M  V30 19 1 18 20
M  V30 20 1 20 21
M  V30 21 1 20 22
M  V30 22 1 22 23
M  V30 23 2 23 24
M  V30 24 1 24 25
M  V30 25 2 25 26
M  V30 26 1 26 27
M  V30 27 2 27 28
M  V30 28 1 22 29
M  V30 29 2 29 30
M  V30 30 1 10 2
M  V30 31 1 29 17
M  V30 32 1 28 23
M  V30 33 1 1 31
M  V30 34 1 1 32
M  V30 35 1 1 33
M  V30 36 1 11 34
M  V30 37 1 11 35
M  V30 38 1 12 36
M  V30 39 1 12 37
M  V30 40 1 13 38
M  V30 41 1 13 39
M  V30 42 1 16 40
M  V30 43 1 19 41
M  V30 44 1 19 42
M  V30 45 1 19 43
M  V30 46 1 21 44
M  V30 47 1 21 45
M  V30 48 1 21 46
M  V30 49 1 24 47
M  V30 50 1 25 48
M  V30 51 1 26 49
M  V30 52 1 27 50
M  V30 53 1 28 51
M  V30 END BOND
M  V30 END CTAB
M  END
>  <Dataset>  (42) 
ChEMBL_Kinases

>  <Ligand_Instance>  (42) 
nan

>  <PDB_ID>  (42) 
nan

>  <Standardized_SMILES>  (42) 
Cc1c(Cl)c([N+](=O)[O-])nn1CCCC(=O)Nc1c(C)n(C)n(-c2ccccc2)c1=O

>  <Name>  (42) 
nan

>  <Pocket>  (42) 
nan

>  <ATP_Site>  (42) 
nan

>  <Peripheral>  (42) 
nan

>  <Num_H_Atoms_ProtBoundConf>  (42) 
nan

>  <Num_Resolved_Atoms>  (42) 
nan

>  <Num_Not_Resolved_Atoms>  (42) 
nan

$$$$
CHEMBL1509663
     RDKit          3D

  0  0  0  0  0  0  0  0  0  0999 V3000
M  V30 BEGIN CTAB
M  V30 COUNTS 61 62 0 0 0
M  V30 BEGIN ATOM
M  V30 1 C 3.474122 0.783964 -3.019866 0
M  V30 2 C 2.744479 0.841646 -1.690195 0 CFG=2
M  V30 3 N 2.593257 -0.479321 -1.118196 0
M  V30 4 C 2.622351 -1.667806 -0.366530 0
M  V30 5 O 3.394533 -1.242964 0.474380 0
M  V30 6 C 2.071987 -2.979293 -0.364503 0
M  V30 7 C 3.045073 -3.957992 -0.357775 0
M  V30 8 C 2.781276 -5.308909 -0.396431 0
M  V30 9 N 3.783023 -6.307176 -0.388366 0 CHG=1 VAL=4
M  V30 10 O 3.483830 -7.514541 -0.426152 0
M  V30 11 O 5.095467 -5.929795 -0.339416 0 CHG=-1 VAL=1
M  V30 12 C 1.449630 -5.702430 -0.446246 0
M  V30 13 C 0.484855 -4.686065 -0.451292 0
M  V30 14 I -1.601834 -5.067876 -0.595645 0
M  V30 15 C 0.739339 -3.324357 -0.409848 0
M  V30 16 N -0.358511 -2.420830 -0.379671 0
M  V30 17 C -0.866039 -1.890299 0.866492 0
M  V30 18 C 0.135638 -1.218159 1.736592 0
M  V30 19 C -0.510272 -0.781654 3.018265 0
M  V30 20 C -1.651040 0.130912 2.895177 0
M  V30 21 C -1.457506 1.510735 2.362095 0 CFG=1
M  V30 22 C -0.416561 2.255783 3.127019 0
M  V30 23 N 0.777540 3.008918 2.974401 0
M  V30 24 O -0.152383 2.542554 4.314459 0
M  V30 25 N -1.174188 1.560566 0.969051 0
M  V30 26 C -1.780446 1.928093 -0.305163 0
M  V30 27 O -2.845210 2.256487 0.270361 0
M  V30 28 C -1.287522 1.906541 -1.734708 0 CFG=2
M  V30 29 C -2.140585 1.021127 -2.611249 0
M  V30 30 C -3.517939 1.535974 -2.625920 0
M  V30 31 N -3.983316 2.742572 -2.042644 0
M  V30 32 O -4.453692 0.906206 -3.196083 0
M  V30 33 N 0.076071 1.424877 -1.670785 0
M  V30 34 C 1.466105 1.567903 -1.852207 0
M  V30 35 O 1.222093 2.717766 -2.272491 0
M  V30 36 H 2.995124 1.537546 -3.675469 0
M  V30 37 H 3.314353 -0.194266 -3.519595 0
M  V30 38 H 4.512793 1.091008 -2.905640 0
M  V30 39 H 3.366635 1.478631 -1.028520 0
M  V30 40 H 1.947766 -0.853232 -1.841527 0
M  V30 41 H 4.112964 -3.671905 -0.312017 0
M  V30 42 H 1.099947 -6.723566 -0.480962 0
M  V30 43 H -0.468172 -2.457944 -1.409794 0
M  V30 44 H -1.709589 -1.172961 0.684817 0
M  V30 45 H -1.339485 -2.698561 1.490531 0
M  V30 46 H 0.965086 -1.987541 1.998967 0
M  V30 47 H 0.706650 -0.406270 1.315170 0
M  V30 48 H -0.904117 -1.740809 3.491607 0
M  V30 49 H 0.266874 -0.416546 3.750602 0
M  V30 50 H -2.164710 0.274193 3.920374 0
M  V30 51 H -2.503726 -0.394657 2.342272 0
M  V30 52 H -2.460116 2.076375 2.499221 0
M  V30 53 H 1.342233 2.560853 2.200354 0
M  V30 54 H 1.324460 2.558330 2.210172 0
M  V30 55 H -0.296435 1.325923 0.489439 0
M  V30 56 H -1.384760 2.931507 -2.118199 0
M  V30 57 H -2.177192 -0.023570 -2.228778 0
M  V30 58 H -1.705836 1.079763 -3.615273 0
M  V30 59 H -4.328891 3.610118 -1.617240 0
M  V30 60 H -3.602937 3.722383 -1.983632 0
M  V30 61 H 0.117141 0.454683 -1.299795 0
M  V30 END ATOM
M  V30 BEGIN BOND
M  V30 1 1 1 2
M  V30 2 1 2 3
M  V30 3 1 3 4
M  V30 4 2 4 5
M  V30 5 1 4 6
M  V30 6 2 6 7
M  V30 7 1 7 8
M  V30 8 1 8 9
M  V30 9 2 9 10
M  V30 10 1 9 11
M  V30 11 2 8 12
M  V30 12 1 12 13
M  V30 13 1 13 14
M  V30 14 2 13 15
M  V30 15 1 15 16
M  V30 16 1 16 17
M  V30 17 1 17 18
M  V30 18 1 18 19
M  V30 19 1 19 20
M  V30 20 1 20 21
M  V30 21 1 21 22
M  V30 22 1 22 23
M  V30 23 2 22 24
M  V30 24 1 21 25
M  V30 25 1 25 26
M  V30 26 2 26 27
M  V30 27 1 26 28
M  V30 28 1 28 29
M  V30 29 1 29 30
M  V30 30 1 30 31
M  V30 31 2 30 32
M  V30 32 1 28 33
M  V30 33 1 33 34
M  V30 34 2 34 35
M  V30 35 1 34 2
M  V30 36 1 15 6
M  V30 37 1 1 36
M  V30 38 1 1 37
M  V30 39 1 1 38
M  V30 40 1 2 39 CFG=1
M  V30 41 1 3 40
M  V30 42 1 7 41
M  V30 43 1 12 42
M  V30 44 1 16 43
M  V30 45 1 17 44
M  V30 46 1 17 45
M  V30 47 1 18 46
M  V30 48 1 18 47
M  V30 49 1 19 48
M  V30 50 1 19 49
M  V30 51 1 20 50
M  V30 52 1 20 51
M  V30 53 1 21 52 CFG=3
M  V30 54 1 23 53
M  V30 55 1 23 54
M  V30 56 1 25 55
M  V30 57 1 28 56 CFG=3
M  V30 58 1 29 57
M  V30 59 1 29 58
M  V30 60 1 31 59
M  V30 61 1 31 60
M  V30 62 1 33 61
M  V30 END BOND
M  V30 END CTAB
M  END
>  <Dataset>  (43) 
ChEMBL_Kinases

>  <Ligand_Instance>  (43) 
nan

>  <PDB_ID>  (43) 
nan

>  <Standardized_SMILES>  (43) 
C[C@@H]1NC(=O)c2cc([N+](=O)[O-])cc(I)c2NCCCC[C@@H](C(N)=O)NC(=O)[C@H](CC(N)=O)NC1=O

>  <Name>  (43) 
nan

>  <Pocket>  (43) 
nan

>  <ATP_Site>  (43) 
nan

>  <Peripheral>  (43) 
nan

>  <Num_H_Atoms_ProtBoundConf>  (43) 
nan

>  <Num_Resolved_Atoms>  (43) 
nan

>  <Num_Not_Resolved_Atoms>  (43) 
nan

$$$$
CHEMBL1509406
     RDKit          3D

  0  0  0  0  0  0  0  0  0  0999 V3000
M  V30 BEGIN CTAB
M  V30 COUNTS 34 36 0 0 0
M  V30 BEGIN ATOM
M  V30 1 O -0.526237 -0.606571 3.130121 0
M  V30 2 C 0.473014 -0.762973 2.358630 0
M  V30 3 C 1.396282 -1.641155 3.075236 0
M  V30 4 O 2.588177 -1.954934 2.392705 0
M  V30 5 C 2.670360 -2.620430 1.180467 0
M  V30 6 C 1.728701 -3.148016 0.324850 0
M  V30 7 C 2.120598 -3.769183 -0.839640 0
M  V30 8 C 3.445439 -3.882394 -1.183109 0
M  V30 9 C 4.413456 -3.367667 -0.353510 0
M  V30 10 F 5.680923 -3.519527 -0.760873 0
M  V30 11 C 4.021003 -2.737665 0.827021 0
M  V30 12 N 0.435957 -0.096508 1.101874 0
M  V30 13 C -0.699721 0.690612 0.783949 0
M  V30 14 C -0.655676 2.041118 1.156770 0
M  V30 15 C -1.705661 2.902883 0.897814 0
M  V30 16 C -2.790168 2.341776 0.251534 0
M  V30 17 N -3.953810 2.929498 -0.131343 0
M  V30 18 C -4.737082 1.994629 -0.736360 0
M  V30 19 O -6.018078 2.236743 -1.263535 0
M  V30 20 N -4.058598 0.823967 -0.729242 0
M  V30 21 C -2.868012 1.020443 -0.129249 0
M  V30 22 C -1.790434 0.181292 0.148328 0
M  V30 23 H 0.891969 -2.625023 3.297112 0
M  V30 24 H 1.721643 -1.181006 4.047597 0
M  V30 25 H 0.734130 -2.982580 0.728194 0
M  V30 26 H 1.291171 -4.146495 -1.435221 0
M  V30 27 H 3.683766 -4.382936 -2.113352 0
M  V30 28 H 4.903467 -2.381399 1.378977 0
M  V30 29 H 1.342514 -0.325686 0.591625 0
M  V30 30 H 0.229162 2.420821 1.663673 0
M  V30 31 H -1.680691 3.946919 1.181847 0
M  V30 32 H -4.268234 3.932203 -0.014518 0
M  V30 33 H -6.178291 1.976358 -2.225048 0
M  V30 34 H -1.842644 -0.850598 -0.145082 0
M  V30 END ATOM
M  V30 BEGIN BOND
M  V30 1 2 1 2
M  V30 2 1 2 3
M  V30 3 1 3 4
M  V30 4 1 4 5
M  V30 5 2 5 6
M  V30 6 1 6 7
M  V30 7 2 7 8
M  V30 8 1 8 9
M  V30 9 1 9 10
M  V30 10 2 9 11
M  V30 11 1 2 12
M  V30 12 1 12 13
M  V30 13 2 13 14
M  V30 14 1 14 15
M  V30 15 2 15 16
M  V30 16 1 16 17
M  V30 17 1 17 18
M  V30 18 1 18 19
M  V30 19 2 18 20
M  V30 20 1 20 21
M  V30 21 2 21 22
M  V30 22 1 11 5
M  V30 23 1 22 13
M  V30 24 1 21 16
M  V30 25 1 3 23
M  V30 26 1 3 24
M  V30 27 1 6 25
M  V30 28 1 7 26
M  V30 29 1 8 27
M  V30 30 1 11 28
M  V30 31 1 12 29
M  V30 32 1 14 30
M  V30 33 1 15 31
M  V30 34 1 17 32
M  V30 35 1 19 33
M  V30 36 1 22 34
M  V30 END BOND
M  V30 END CTAB
M  END
>  <Dataset>  (44) 
ChEMBL_Kinases

>  <Ligand_Instance>  (44) 
nan

>  <PDB_ID>  (44) 
nan

>  <Standardized_SMILES>  (44) 
O=C(COc1cccc(F)c1)Nc1ccc2[nH]c(O)nc2c1

>  <Name>  (44) 
nan

>  <Pocket>  (44) 
nan

>  <ATP_Site>  (44) 
nan

>  <Peripheral>  (44) 
nan

>  <Num_H_Atoms_ProtBoundConf>  (44) 
nan

>  <Num_Resolved_Atoms>  (44) 
nan

>  <Num_Not_Resolved_Atoms>  (44) 
nan

$$$$
CHEMBL1507963
     RDKit          3D

  0  0  0  0  0  0  0  0  0  0999 V3000
M  V30 BEGIN CTAB
M  V30 COUNTS 42 46 0 0 0
M  V30 BEGIN ATOM
M  V30 1 C 1.371548 -2.407812 5.373909 0
M  V30 2 C 2.133041 -1.756322 4.262575 0
M  V30 3 C 3.466996 -1.974926 4.057749 0
M  V30 4 C 3.777847 -1.204021 2.957394 0
M  V30 5 C 2.635280 -0.545279 2.528886 0
M  V30 6 C 2.562529 0.364693 1.390096 0
M  V30 7 N 3.578419 0.709524 0.582665 0
M  V30 8 C 3.135499 1.575971 -0.365353 0
M  V30 9 N 3.791424 2.189435 -1.386644 0
M  V30 10 C 3.151119 3.027823 -2.227667 0
M  V30 11 C 1.807782 3.244864 -2.020254 0
M  V30 12 C 1.190785 2.597000 -0.969099 0
M  V30 13 N 1.825840 1.759544 -0.127451 0
M  V30 14 C 1.440214 1.029595 0.944960 0
M  V30 15 N 0.117020 0.992467 1.467839 0
M  V30 16 C -0.838803 0.050811 0.997362 0
M  V30 17 C -2.134068 -0.021736 1.483452 0
M  V30 18 C -3.060146 -0.934158 1.025872 0
M  V30 19 C -2.637919 -1.802591 0.032733 0
M  V30 20 C -1.356734 -1.778911 -0.493096 0
M  V30 21 C -0.474782 -0.838997 0.009150 0
M  V30 22 O -0.982924 -2.667873 -1.484731 0
M  V30 23 C -1.880025 -3.453809 -2.229559 0
M  V30 24 C -3.316343 -3.225115 -1.850466 0
M  V30 25 O -3.462773 -2.772219 -0.521440 0
M  V30 26 O 1.708435 -0.920997 3.346983 0
M  V30 27 H 1.255084 -3.497464 5.211987 0
M  V30 28 H 1.937956 -2.209201 6.308945 0
M  V30 29 H 0.359569 -1.982746 5.485084 0
M  V30 30 H 4.166459 -2.593862 4.596293 0
M  V30 31 H 4.781486 -1.141908 2.512918 0
M  V30 32 H 3.634629 3.538382 -3.055845 0
M  V30 33 H 1.208439 3.913264 -2.658552 0
M  V30 34 H 0.131238 2.751064 -0.784277 0
M  V30 35 H -0.167301 1.659122 2.205627 0
M  V30 36 H -2.437869 0.672460 2.262997 0
M  V30 37 H -4.072869 -0.997089 1.400031 0
M  V30 38 H 0.541785 -0.785467 -0.375258 0
M  V30 39 H -1.606771 -4.514906 -2.082119 0
M  V30 40 H -1.725791 -3.214994 -3.303473 0
M  V30 41 H -3.801837 -2.459415 -2.505438 0
M  V30 42 H -3.888574 -4.166746 -1.973070 0
M  V30 END ATOM
M  V30 BEGIN BOND
M  V30 1 1 1 2
M  V30 2 2 2 3
M  V30 3 1 3 4
M  V30 4 2 4 5
M  V30 5 1 5 6
M  V30 6 1 6 7
M  V30 7 2 7 8
M  V30 8 1 8 9
M  V30 9 2 9 10
M  V30 10 1 10 11
M  V30 11 2 11 12
M  V30 12 1 12 13
M  V30 13 1 13 14
M  V30 14 1 14 15
M  V30 15 1 15 16
M  V30 16 2 16 17
M  V30 17 1 17 18
M  V30 18 2 18 19
M  V30 19 1 19 20
M  V30 20 2 20 21
M  V30 21 1 20 22
M  V30 22 1 22 23
M  V30 23 1 23 24
M  V30 24 1 24 25
M  V30 25 1 5 26
M  V30 26 1 26 2
M  V30 27 2 14 6
M  V30 28 1 21 16
M  V30 29 1 13 8
M  V30 30 1 25 19
M  V30 31 1 1 27
M  V30 32 1 1 28
M  V30 33 1 1 29
M  V30 34 1 3 30
M  V30 35 1 4 31
M  V30 36 1 10 32
M  V30 37 1 11 33
M  V30 38 1 12 34
M  V30 39 1 15 35
M  V30 40 1 17 36
M  V30 41 1 18 37
M  V30 42 1 21 38
M  V30 43 1 23 39
M  V30 44 1 23 40
M  V30 45 1 24 41
M  V30 46 1 24 42
M  V30 END BOND
M  V30 END CTAB
M  END
>  <Dataset>  (45) 
ChEMBL_Kinases

>  <Ligand_Instance>  (45) 
nan

>  <PDB_ID>  (45) 
nan

>  <Standardized_SMILES>  (45) 
Cc1ccc(-c2nc3ncccn3c2Nc2ccc3c(c2)OCCO3)o1

>  <Name>  (45) 
nan

>  <Pocket>  (45) 
nan

>  <ATP_Site>  (45) 
nan

>  <Peripheral>  (45) 
nan

>  <Num_H_Atoms_ProtBoundConf>  (45) 
nan

>  <Num_Resolved_Atoms>  (45) 
nan

>  <Num_Not_Resolved_Atoms>  (45) 
nan

$$$$
CHEMBL1507997
     RDKit          3D

  0  0  0  0  0  0  0  0  0  0999 V3000
M  V30 BEGIN CTAB
M  V30 COUNTS 53 56 0 0 0
M  V30 BEGIN ATOM
M  V30 1 C 3.640022 -3.488619 4.738281 0
M  V30 2 C 4.327497 -2.188962 4.595243 0
M  V30 3 C 4.590830 -1.645160 3.229147 0
M  V30 4 N 3.406140 -1.397954 2.490126 0
M  V30 5 C 2.234136 -2.012843 1.849521 0
M  V30 6 O 2.505891 -3.194332 2.107451 0
M  V30 7 C 1.369780 -0.989618 1.251005 0
M  V30 8 C 0.570031 -0.042879 0.697226 0
M  V30 9 N 1.389761 1.065145 1.159603 0
M  V30 10 N -0.498053 -0.170303 0.020868 0
M  V30 11 C -1.208329 0.945287 -0.452733 0
M  V30 12 C -1.183569 2.193869 0.131812 0
M  V30 13 C -1.910208 3.229629 -0.353370 0
M  V30 14 O -1.960334 4.516346 0.151318 0
M  V30 15 C -1.210107 4.864616 1.278761 0
M  V30 16 C -2.679370 3.012758 -1.448888 0
M  V30 17 C -2.762239 1.799874 -2.094539 0
M  V30 18 O -3.540264 1.507189 -3.233496 0
M  V30 19 C -4.296657 2.582801 -3.736292 0
M  V30 20 C -1.996468 0.757404 -1.561464 0
M  V30 21 C -0.630193 -1.484557 -0.006276 0
M  V30 22 N -1.665318 -2.108430 -0.647216 0
M  V30 23 C -1.711551 -3.448953 -0.627803 0
M  V30 24 C -2.729924 -4.092169 -1.252316 0
M  V30 25 C -2.698810 -5.463916 -1.178931 0
M  V30 26 C -1.676664 -6.137230 -0.499797 0
M  V30 27 C -0.653679 -5.466355 0.127948 0
M  V30 28 C -0.711620 -4.100435 0.036583 0
M  V30 29 N 0.206720 -3.393879 0.602095 0
M  V30 30 C 0.444905 -2.050696 0.705869 0
M  V30 31 H 3.947338 -4.247395 4.014561 0
M  V30 32 H 2.539007 -3.352896 4.721669 0
M  V30 33 H 3.818926 -3.920103 5.783693 0
M  V30 34 H 5.327051 -2.232558 5.150427 0
M  V30 35 H 3.755035 -1.446577 5.227245 0
M  V30 36 H 5.263089 -2.390444 2.686292 0
M  V30 37 H 5.209079 -0.718266 3.286643 0
M  V30 38 H 3.407495 -0.308998 2.382076 0
M  V30 39 H 2.246035 1.622230 0.959174 0
M  V30 40 H 2.287025 1.496689 0.775020 0
M  V30 41 H -0.579205 2.362195 0.993891 0
M  V30 42 H -1.223494 4.005240 1.985796 0
M  V30 43 H -0.184262 5.149313 1.024088 0
M  V30 44 H -1.707074 5.731335 1.779765 0
M  V30 45 H -3.297132 3.793419 -1.911485 0
M  V30 46 H -4.908215 3.109050 -2.947165 0
M  V30 47 H -3.671957 3.375816 -4.204535 0
M  V30 48 H -5.075537 2.253056 -4.475890 0
M  V30 49 H -2.037156 -0.192943 -2.036860 0
M  V30 50 H -3.493516 -3.518887 -1.757460 0
M  V30 51 H -3.469213 -6.051815 -1.652063 0
M  V30 52 H -1.691701 -7.205748 -0.463753 0
M  V30 53 H 0.162090 -5.923324 0.666738 0
M  V30 END ATOM
M  V30 BEGIN BOND
M  V30 1 1 1 2
M  V30 2 1 2 3
M  V30 3 1 3 4
M  V30 4 1 4 5
M  V30 5 2 5 6
M  V30 6 1 5 7
M  V30 7 2 7 8
M  V30 8 1 8 9
M  V30 9 1 8 10
M  V30 10 1 10 11
M  V30 11 2 11 12
M  V30 12 1 12 13
M  V30 13 1 13 14
M  V30 14 1 14 15
M  V30 15 2 13 16
M  V30 16 1 16 17
M  V30 17 1 17 18
M  V30 18 1 18 19
M  V30 19 2 17 20
M  V30 20 1 10 21
M  V30 21 2 21 22
M  V30 22 1 22 23
M  V30 23 2 23 24
M  V30 24 1 24 25
M  V30 25 2 25 26
M  V30 26 1 26 27
M  V30 27 2 27 28
M  V30 28 1 28 29
M  V30 29 2 29 30
M  V30 30 1 30 7
M  V30 31 1 20 11
M  V30 32 1 30 21
M  V30 33 1 28 23
M  V30 34 1 1 31
M  V30 35 1 1 32
M  V30 36 1 1 33
M  V30 37 1 2 34
M  V30 38 1 2 35
M  V30 39 1 3 36
M  V30 40 1 3 37
M  V30 41 1 4 38
M  V30 42 1 9 39
M  V30 43 1 9 40
M  V30 44 1 12 41
M  V30 45 1 15 42
M  V30 46 1 15 43
M  V30 47 1 15 44
M  V30 48 1 16 45
M  V30 49 1 19 46
M  V30 50 1 19 47
M  V30 51 1 19 48
M  V30 52 1 20 49
M  V30 53 1 24 50
M  V30 54 1 25 51
M  V30 55 1 26 52
M  V30 56 1 27 53
M  V30 END BOND
M  V30 END CTAB
M  END
>  <Dataset>  (46) 
ChEMBL_Kinases

>  <Ligand_Instance>  (46) 
nan

>  <PDB_ID>  (46) 
nan

>  <Standardized_SMILES>  (46) 
CCCNC(=O)c1c(N)n(-c2cc(OC)cc(OC)c2)c2nc3ccccc3nc12

>  <Name>  (46) 
nan

>  <Pocket>  (46) 
nan

>  <ATP_Site>  (46) 
nan

>  <Peripheral>  (46) 
nan

>  <Num_H_Atoms_ProtBoundConf>  (46) 
nan

>  <Num_Resolved_Atoms>  (46) 
nan

>  <Num_Not_Resolved_Atoms>  (46) 
nan

$$$$
CHEMBL1508136
     RDKit          3D

  0  0  0  0  0  0  0  0  0  0999 V3000
M  V30 BEGIN CTAB
M  V30 COUNTS 47 49 0 0 0
M  V30 BEGIN ATOM
M  V30 1 C 0.619394 -3.967468 2.763173 0
M  V30 2 O -0.769382 -4.152065 2.803823 0
M  V30 3 C -1.707499 -3.361879 2.161008 0
M  V30 4 C -1.246068 -2.302209 1.416631 0
M  V30 5 C -2.118968 -1.468442 0.746219 0
M  V30 6 N -1.905359 -0.350929 -0.057855 0
M  V30 7 C -0.858720 0.050879 -0.637049 0
M  V30 8 S -2.144873 1.232069 -1.034593 0
M  V30 9 N 0.450859 0.239091 -1.153523 0
M  V30 10 C 0.845955 1.589646 -1.513968 0
M  V30 11 C 2.315366 1.736033 -1.210326 0
M  V30 12 N 2.686982 0.905911 -0.080905 0
M  V30 13 C 3.091569 1.432414 1.175280 0
M  V30 14 C 3.441659 0.591173 2.227645 0
M  V30 15 C 3.820004 1.207032 3.406199 0
M  V30 16 C 3.866507 2.592948 3.586495 0
M  V30 17 C 3.495782 3.325455 2.467819 0
M  V30 18 N 3.118146 2.774521 1.293237 0
M  V30 19 C 2.586730 -0.486242 -0.410902 0
M  V30 20 C 1.444599 -0.799329 -1.358352 0
M  V30 21 C -3.486841 -1.747833 0.856916 0
M  V30 22 O -4.489210 -0.992539 0.234743 0
M  V30 23 C -5.855819 -1.248328 0.328367 0
M  V30 24 C -3.954371 -2.826151 1.614560 0
M  V30 25 C -3.055717 -3.630730 2.265544 0
M  V30 26 Cl -3.614849 -4.998967 3.229323 0
M  V30 27 H 1.016593 -3.896017 1.730089 0
M  V30 28 H 1.058021 -4.888306 3.248775 0
M  V30 29 H 0.983331 -3.102460 3.330789 0
M  V30 30 H -0.215961 -2.007468 1.271797 0
M  V30 31 H -1.628385 2.210601 -1.920927 0
M  V30 32 H 0.753720 1.677584 -2.634754 0
M  V30 33 H 0.226667 2.360745 -1.048705 0
M  V30 34 H 2.567538 2.810267 -0.973572 0
M  V30 35 H 2.960602 1.418045 -2.063123 0
M  V30 36 H 3.419817 -0.466854 2.131959 0
M  V30 37 H 4.101351 0.565152 4.254703 0
M  V30 38 H 4.162983 3.043352 4.508990 0
M  V30 39 H 3.503974 4.417502 2.522435 0
M  V30 40 H 3.535700 -0.811293 -0.896197 0
M  V30 41 H 2.450499 -1.147034 0.458754 0
M  V30 42 H 1.784956 -0.751282 -2.426467 0
M  V30 43 H 1.023505 -1.810489 -1.213856 0
M  V30 44 H -6.366541 -0.545905 -0.363501 0
M  V30 45 H -6.062970 -2.285642 0.025894 0
M  V30 46 H -6.263425 -1.016495 1.342836 0
M  V30 47 H -4.997763 -3.062331 1.716168 0
M  V30 END ATOM
M  V30 BEGIN BOND
M  V30 1 1 1 2
M  V30 2 1 2 3
M  V30 3 2 3 4
M  V30 4 1 4 5
M  V30 5 1 5 6
M  V30 6 2 6 7 CFG=2
M  V30 7 1 7 8
M  V30 8 1 7 9
M  V30 9 1 9 10
M  V30 10 1 10 11
M  V30 11 1 11 12
M  V30 12 1 12 13
M  V30 13 2 13 14
M  V30 14 1 14 15
M  V30 15 2 15 16
M  V30 16 1 16 17
M  V30 17 2 17 18
M  V30 18 1 12 19
M  V30 19 1 19 20
M  V30 20 2 5 21
M  V30 21 1 21 22
M  V30 22 1 22 23
M  V30 23 1 21 24
M  V30 24 2 24 25
M  V30 25 1 25 26
M  V30 26 1 25 3
M  V30 27 1 20 9
M  V30 28 1 18 13
M  V30 29 1 1 27
M  V30 30 1 1 28
M  V30 31 1 1 29
M  V30 32 1 4 30
M  V30 33 1 8 31
M  V30 34 1 10 32
M  V30 35 1 10 33
M  V30 36 1 11 34
M  V30 37 1 11 35
M  V30 38 1 14 36
M  V30 39 1 15 37
M  V30 40 1 16 38
M  V30 41 1 17 39
M  V30 42 1 19 40
M  V30 43 1 19 41
M  V30 44 1 20 42
M  V30 45 1 20 43
M  V30 46 1 23 44
M  V30 47 1 23 45
M  V30 48 1 23 46
M  V30 49 1 24 47
M  V30 END BOND
M  V30 END CTAB
M  END
>  <Dataset>  (47) 
ChEMBL_Kinases

>  <Ligand_Instance>  (47) 
nan

>  <PDB_ID>  (47) 
nan

>  <Standardized_SMILES>  (47) 
COc1cc(N=C(S)N2CCN(c3ccccn3)CC2)c(OC)cc1Cl

>  <Name>  (47) 
nan

>  <Pocket>  (47) 
nan

>  <ATP_Site>  (47) 
nan

>  <Peripheral>  (47) 
nan

>  <Num_H_Atoms_ProtBoundConf>  (47) 
nan

>  <Num_Resolved_Atoms>  (47) 
nan

>  <Num_Not_Resolved_Atoms>  (47) 
nan

$$$$
CHEMBL1508148
     RDKit          3D

  0  0  0  0  0  0  0  0  0  0999 V3000
M  V30 BEGIN CTAB
M  V30 COUNTS 51 53 0 0 0
M  V30 BEGIN ATOM
M  V30 1 C 1.034508 -5.113901 3.678920 0
M  V30 2 O 0.209230 -4.765410 2.612438 0
M  V30 3 C 0.580904 -4.037920 1.506723 0
M  V30 4 C 1.852172 -3.553324 1.318938 0
M  V30 5 C 2.262285 -2.820092 0.223476 0
M  V30 6 C 1.310011 -2.552233 -0.767530 0
M  V30 7 S 1.615331 -1.649289 -2.223711 0
M  V30 8 O 3.063335 -1.878783 -2.619415 0
M  V30 9 O 0.782617 -2.223358 -3.326803 0
M  V30 10 N 1.341468 0.024080 -2.077736 0
M  V30 11 C 2.155307 0.683564 -1.125393 0
M  V30 12 C 1.461715 1.093661 0.152606 0
M  V30 13 N 0.188520 1.728333 -0.105355 0
M  V30 14 C -0.479610 2.459061 0.914645 0
M  V30 15 C -0.748743 3.809809 0.692434 0
M  V30 16 C -1.396244 4.535597 1.667780 0
M  V30 17 C -1.769692 3.924552 2.846242 0
M  V30 18 C -1.520316 2.594875 3.098601 0
M  V30 19 C -0.868324 1.876650 2.109036 0
M  V30 20 O -0.611151 0.538896 2.349475 0
M  V30 21 C -0.953683 -0.160280 3.513401 0
M  V30 22 C -0.421704 1.627476 -1.408357 0
M  V30 23 C -0.006897 0.434620 -2.201747 0
M  V30 24 C 0.027680 -3.033275 -0.591957 0
M  V30 25 C -0.349452 -3.773801 0.534225 0
M  V30 26 O -1.646237 -4.251020 0.695299 0
M  V30 27 C -2.560184 -3.946747 -0.340204 0
M  V30 28 H 1.973879 -5.621215 3.364828 0
M  V30 29 H 0.468780 -5.888402 4.270831 0
M  V30 30 H 1.293858 -4.315839 4.373901 0
M  V30 31 H 2.593809 -3.755448 2.079370 0
M  V30 32 H 3.243992 -2.434418 0.057578 0
M  V30 33 H 3.025829 0.058044 -0.913593 0
M  V30 34 H 2.539774 1.640385 -1.582265 0
M  V30 35 H 2.083903 1.854451 0.667311 0
M  V30 36 H 1.370044 0.232029 0.814057 0
M  V30 37 H -0.457631 4.297703 -0.231807 0
M  V30 38 H -1.586801 5.573351 1.461884 0
M  V30 39 H -2.266624 4.544806 3.556739 0
M  V30 40 H -1.841873 2.188777 4.041012 0
M  V30 41 H -0.438632 0.293806 4.387742 0
M  V30 42 H -0.524963 -1.183978 3.402803 0
M  V30 43 H -2.038092 -0.280268 3.670984 0
M  V30 44 H -1.540197 1.641674 -1.346015 0
M  V30 45 H -0.176545 2.591972 -1.938504 0
M  V30 46 H -0.160135 0.717203 -3.284199 0
M  V30 47 H -0.732460 -0.414295 -2.063683 0
M  V30 48 H -0.743847 -2.851769 -1.330896 0
M  V30 49 H -2.665722 -2.854010 -0.476673 0
M  V30 50 H -2.149897 -4.376922 -1.266957 0
M  V30 51 H -3.575587 -4.356083 -0.115820 0
M  V30 END ATOM
M  V30 BEGIN BOND
M  V30 1 1 1 2
M  V30 2 1 2 3
M  V30 3 2 3 4
M  V30 4 1 4 5
M  V30 5 2 5 6
M  V30 6 1 6 7
M  V30 7 2 7 8
M  V30 8 2 7 9
M  V30 9 1 7 10
M  V30 10 1 10 11
M  V30 11 1 11 12
M  V30 12 1 12 13
M  V30 13 1 13 14
M  V30 14 2 14 15
M  V30 15 1 15 16
M  V30 16 2 16 17
M  V30 17 1 17 18
M  V30 18 2 18 19
M  V30 19 1 19 20
M  V30 20 1 20 21
M  V30 21 1 13 22
M  V30 22 1 22 23
M  V30 23 1 6 24
M  V30 24 2 24 25
M  V30 25 1 25 26
M  V30 26 1 26 27
M  V30 27 1 25 3
M  V30 28 1 23 10
M  V30 29 1 19 14
M  V30 30 1 1 28
M  V30 31 1 1 29
M  V30 32 1 1 30
M  V30 33 1 4 31
M  V30 34 1 5 32
M  V30 35 1 11 33
M  V30 36 1 11 34
M  V30 37 1 12 35
M  V30 38 1 12 36
M  V30 39 1 15 37
M  V30 40 1 16 38
M  V30 41 1 17 39
M  V30 42 1 18 40
M  V30 43 1 21 41
M  V30 44 1 21 42
M  V30 45 1 21 43
M  V30 46 1 22 44
M  V30 47 1 22 45
M  V30 48 1 23 46
M  V30 49 1 23 47
M  V30 50 1 24 48
M  V30 51 1 27 49
M  V30 52 1 27 50
M  V30 53 1 27 51
M  V30 END BOND
M  V30 END CTAB
M  END
>  <Dataset>  (48) 
ChEMBL_Kinases

>  <Ligand_Instance>  (48) 
nan

>  <PDB_ID>  (48) 
nan

>  <Standardized_SMILES>  (48) 
COc1ccc(S(=O)(=O)N2CCN(c3ccccc3OC)CC2)cc1OC

>  <Name>  (48) 
nan

>  <Pocket>  (48) 
nan

>  <ATP_Site>  (48) 
nan

>  <Peripheral>  (48) 
nan

>  <Num_H_Atoms_ProtBoundConf>  (48) 
nan

>  <Num_Resolved_Atoms>  (48) 
nan

>  <Num_Not_Resolved_Atoms>  (48) 
nan

$$$$
CHEMBL1508186
     RDKit          3D

  0  0  0  0  0  0  0  0  0  0999 V3000
M  V30 BEGIN CTAB
M  V30 COUNTS 54 58 0 0 0
M  V30 BEGIN ATOM
M  V30 1 O -1.284521 -1.431674 -2.275638 0
M  V30 2 C -1.049740 -0.998485 -3.405399 0
M  V30 3 C -2.422309 -1.448701 -3.343721 0
M  V30 4 S -2.886066 -2.231374 -1.822204 0
M  V30 5 C -2.704391 -1.298098 -0.348619 0
M  V30 6 N -3.542771 -0.350705 0.124701 0
M  V30 7 N -3.039846 0.022002 1.292400 0
M  V30 8 C -1.913450 -0.655240 1.578994 0
M  V30 9 C -1.299805 -0.296267 2.847594 0
M  V30 10 C -0.543584 0.955023 3.148350 0
M  V30 11 C -0.084425 1.032164 4.420078 0
M  V30 12 C -0.318012 0.001082 5.353850 0
M  V30 13 S -1.266975 -1.228030 4.432990 0
M  V30 14 N -1.700250 -1.484222 0.553754 0
M  V30 15 C -0.601228 -2.361277 0.628456 0
M  V30 16 C -0.714408 -3.615759 0.046894 0
M  V30 17 C 0.226356 -4.626752 0.011304 0
M  V30 18 C 1.447054 -4.335453 0.647744 0
M  V30 19 C 1.630847 -3.087877 1.255894 0
M  V30 20 C 0.612953 -2.161843 1.223037 0
M  V30 21 N 0.268277 -0.526583 -3.588700 0
M  V30 22 C 0.832666 -0.019412 -4.851021 0
M  V30 23 C 1.235749 1.413392 -4.528829 0
M  V30 24 N 0.654441 1.840526 -3.272508 0
M  V30 25 C -0.418827 2.816228 -3.352125 0
M  V30 26 O -0.587293 3.065255 -4.557550 0
M  V30 27 C -1.094926 3.332917 -2.183109 0
M  V30 28 C -0.632815 4.318677 -1.340849 0
M  V30 29 C -1.590569 4.496757 -0.365798 0
M  V30 30 C -2.611975 3.590799 -0.667919 0
M  V30 31 O -2.273382 2.927867 -1.746579 0
M  V30 32 C 1.380085 1.088236 -2.263154 0
M  V30 33 C 1.264193 -0.411463 -2.511277 0
M  V30 34 H -2.625841 -2.136118 -4.234105 0
M  V30 35 H -3.158330 -0.598160 -3.557484 0
M  V30 36 H -0.452893 1.636985 2.324379 0
M  V30 37 H 0.475510 1.951869 4.657636 0
M  V30 38 H 0.095142 0.134298 6.396834 0
M  V30 39 H -1.624133 -3.955394 -0.475237 0
M  V30 40 H 0.128966 -5.585101 -0.440441 0
M  V30 41 H 2.251858 -5.025811 0.690723 0
M  V30 42 H 2.567523 -2.846071 1.760759 0
M  V30 43 H 0.770157 -1.194553 1.700909 0
M  V30 44 H 1.772051 -0.591570 -5.023685 0
M  V30 45 H 0.101440 -0.096725 -5.658807 0
M  V30 46 H 2.332952 1.531101 -4.580240 0
M  V30 47 H 0.813308 2.035950 -5.344201 0
M  V30 48 H 0.309025 4.829741 -1.458785 0
M  V30 49 H -1.514639 5.210452 0.454196 0
M  V30 50 H -3.454801 3.585375 -0.006819 0
M  V30 51 H 2.440316 1.366462 -2.175102 0
M  V30 52 H 0.899522 1.295210 -1.291563 0
M  V30 53 H 0.854394 -0.953641 -1.646314 0
M  V30 54 H 2.218907 -0.807254 -2.893280 0
M  V30 END ATOM
M  V30 BEGIN BOND
M  V30 1 2 1 2
M  V30 2 1 2 3
M  V30 3 1 3 4
M  V30 4 1 4 5
M  V30 5 2 5 6
M  V30 6 1 6 7
M  V30 7 2 7 8
M  V30 8 1 8 9
M  V30 9 2 9 10
M  V30 10 1 10 11
M  V30 11 2 11 12
M  V30 12 1 12 13
M  V30 13 1 8 14
M  V30 14 1 14 15
M  V30 15 2 15 16
M  V30 16 1 16 17
M  V30 17 2 17 18
M  V30 18 1 18 19
M  V30 19 2 19 20
M  V30 20 1 2 21
M  V30 21 1 21 22
M  V30 22 1 22 23
M  V30 23 1 23 24
M  V30 24 1 24 25
M  V30 25 2 25 26
M  V30 26 1 25 27
M  V30 27 2 27 28
M  V30 28 1 28 29
M  V30 29 2 29 30
M  V30 30 1 30 31
M  V30 31 1 24 32
M  V30 32 1 32 33
M  V30 33 1 14 5
M  V30 34 1 20 15
M  V30 35 1 33 21
M  V30 36 1 13 9
M  V30 37 1 31 27
M  V30 38 1 3 34
M  V30 39 1 3 35
M  V30 40 1 10 36
M  V30 41 1 11 37
M  V30 42 1 12 38
M  V30 43 1 16 39
M  V30 44 1 17 40
M  V30 45 1 18 41
M  V30 46 1 19 42
M  V30 47 1 20 43
M  V30 48 1 22 44
M  V30 49 1 22 45
M  V30 50 1 23 46
M  V30 51 1 23 47
M  V30 52 1 28 48
M  V30 53 1 29 49
M  V30 54 1 30 50
M  V30 55 1 32 51
M  V30 56 1 32 52
M  V30 57 1 33 53
M  V30 58 1 33 54
M  V30 END BOND
M  V30 END CTAB
M  END
>  <Dataset>  (49) 
ChEMBL_Kinases

>  <Ligand_Instance>  (49) 
nan

>  <PDB_ID>  (49) 
nan

>  <Standardized_SMILES>  (49) 
O=C(CSc1nnc(-c2cccs2)n1-c1ccccc1)N1CCN(C(=O)c2ccco2)CC1

>  <Name>  (49) 
nan

>  <Pocket>  (49) 
nan

>  <ATP_Site>  (49) 
nan

>  <Peripheral>  (49) 
nan

>  <Num_H_Atoms_ProtBoundConf>  (49) 
nan

>  <Num_Resolved_Atoms>  (49) 
nan

>  <Num_Not_Resolved_Atoms>  (49) 
nan

$$$$
CHEMBL1508235
     RDKit          3D

  0  0  0  0  0  0  0  0  0  0999 V3000
M  V30 BEGIN CTAB
M  V30 COUNTS 40 43 0 0 0
M  V30 BEGIN ATOM
M  V30 1 C 1.201029 -5.368497 3.399217 0
M  V30 2 C 0.858857 -4.858771 2.041883 0
M  V30 3 C 0.780370 -3.545860 1.665735 0
M  V30 4 C 0.439618 -3.417321 0.335286 0
M  V30 5 N 0.248966 -2.224672 -0.452055 0
M  V30 6 C -0.046146 -2.340408 -1.862789 0
M  V30 7 O -0.335810 -3.359886 -2.566715 0
M  V30 8 C 0.032489 -1.013694 -2.460752 0
M  V30 9 O -0.164143 -0.652281 -3.787214 0
M  V30 10 C 0.334368 -0.182540 -1.487333 0
M  V30 11 C 0.546846 1.257334 -1.539587 0
M  V30 12 O 0.380378 1.733098 -2.689251 0
M  V30 13 C 0.916029 2.132920 -0.439294 0
M  V30 14 C 1.050530 3.491260 -0.693586 0
M  V30 15 C 1.407797 4.081237 0.522742 0
M  V30 16 C 1.471893 3.061075 1.446736 0
M  V30 17 C 1.794235 3.029030 2.897899 0
M  V30 18 O 1.175546 1.943950 0.831294 0
M  V30 19 C 0.299209 -0.834074 -0.129781 0
M  V30 20 C -0.820705 -0.347868 0.633555 0
M  V30 21 C -1.450082 -0.658263 1.783481 0
M  V30 22 C -2.556395 0.007466 2.231596 0
M  V30 23 C -3.040058 1.066680 1.430007 0
M  V30 24 S -1.863870 1.084973 0.010725 0
M  V30 25 N 0.325533 -4.686805 -0.039719 0
M  V30 26 O 0.567974 -5.486581 0.945509 0
M  V30 27 H 2.224248 -5.084922 3.700288 0
M  V30 28 H 1.012397 -6.458011 3.397019 0
M  V30 29 H 0.518030 -4.894220 4.155877 0
M  V30 30 H 0.972186 -2.704124 2.352462 0
M  V30 31 H 0.536055 -0.226624 -4.372073 0
M  V30 32 H 0.952769 4.165404 -1.550181 0
M  V30 33 H 1.613134 5.109052 0.790118 0
M  V30 34 H 0.932441 2.558764 3.424197 0
M  V30 35 H 2.068101 4.024714 3.257616 0
M  V30 36 H 2.646003 2.298516 3.023183 0
M  V30 37 H 1.251504 -0.609862 0.368948 0
M  V30 38 H -1.060983 -1.470507 2.378332 0
M  V30 39 H -3.109960 -0.185188 3.138503 0
M  V30 40 H -3.906904 1.717058 1.613948 0
M  V30 END ATOM
M  V30 BEGIN BOND
M  V30 1 1 1 2
M  V30 2 2 2 3
M  V30 3 1 3 4
M  V30 4 1 4 5
M  V30 5 1 5 6
M  V30 6 2 6 7
M  V30 7 1 6 8
M  V30 8 1 8 9
M  V30 9 2 8 10
M  V30 10 1 10 11
M  V30 11 2 11 12
M  V30 12 1 11 13
M  V30 13 2 13 14
M  V30 14 1 14 15
M  V30 15 2 15 16
M  V30 16 1 16 17
M  V30 17 1 16 18
M  V30 18 1 10 19
M  V30 19 1 19 20
M  V30 20 2 20 21
M  V30 21 1 21 22
M  V30 22 2 22 23
M  V30 23 1 23 24
M  V30 24 2 4 25
M  V30 25 1 25 26
M  V30 26 1 26 2
M  V30 27 1 19 5
M  V30 28 1 24 20
M  V30 29 1 18 13
M  V30 30 1 1 27
M  V30 31 1 1 28
M  V30 32 1 1 29
M  V30 33 1 3 30
M  V30 34 1 9 31
M  V30 35 1 14 32
M  V30 36 1 15 33
M  V30 37 1 17 34
M  V30 38 1 17 35
M  V30 39 1 17 36
M  V30 40 1 19 37
M  V30 41 1 21 38
M  V30 42 1 22 39
M  V30 43 1 23 40
M  V30 END BOND
M  V30 END CTAB
M  END
>  <Dataset>  (50) 
ChEMBL_Kinases

>  <Ligand_Instance>  (50) 
nan

>  <PDB_ID>  (50) 
nan

>  <Standardized_SMILES>  (50) 
Cc1cc(N2C(=O)C(O)=C(C(=O)c3ccc(C)o3)C2c2cccs2)no1

>  <Name>  (50) 
nan

>  <Pocket>  (50) 
nan

>  <ATP_Site>  (50) 
nan

>  <Peripheral>  (50) 
nan

>  <Num_H_Atoms_ProtBoundConf>  (50) 
nan

>  <Num_Resolved_Atoms>  (50) 
nan

>  <Num_Not_Resolved_Atoms>  (50) 
nan

$$$$
CHEMBL1508280
     RDKit          3D

  0  0  0  0  0  0  0  0  0  0999 V3000
M  V30 BEGIN CTAB
M  V30 COUNTS 34 36 0 0 0
M  V30 BEGIN ATOM
M  V30 1 O 0.449711 -2.779991 0.581443 0
M  V30 2 C -0.624393 -2.088709 0.634581 0
M  V30 3 N -0.874314 -1.715488 1.991264 0
M  V30 4 C 0.060469 -2.147964 3.013957 0
M  V30 5 C 1.436190 -1.646477 2.794603 0
M  V30 6 C 1.906245 -0.443189 3.301169 0
M  V30 7 C 3.212009 -0.250685 2.933267 0
M  V30 8 C 3.507537 -1.372349 2.193390 0
M  V30 9 O 2.463315 -2.128709 2.148141 0
M  V30 10 C -1.574394 -1.650854 -0.416845 0
M  V30 11 O -1.199333 -2.086115 -1.664193 0
M  V30 12 C 0.049770 -1.715115 -2.084751 0
M  V30 13 C 0.383684 -0.263379 -1.935807 0
M  V30 14 C -0.665420 0.398990 -1.146202 0
M  V30 15 C -0.572578 1.793128 -1.241315 0
M  V30 16 C -1.475989 2.614553 -0.566173 0
M  V30 17 C -2.451474 2.008605 0.188791 0
M  V30 18 C -2.559894 0.640514 0.295337 0
M  V30 19 C -1.663123 -0.156759 -0.375107 0
M  V30 20 H -1.732776 -1.132907 2.225928 0
M  V30 21 H -0.313005 -1.755725 3.982155 0
M  V30 22 H 0.055107 -3.253136 3.126185 0
M  V30 23 H 1.317220 0.245959 3.904387 0
M  V30 24 H 3.889838 0.576010 3.151822 0
M  V30 25 H 4.455123 -1.627379 1.703979 0
M  V30 26 H -2.577556 -2.080913 -0.205874 0
M  V30 27 H 0.072589 -1.942448 -3.192725 0
M  V30 28 H 0.866015 -2.350093 -1.674502 0
M  V30 29 H 1.369601 -0.178654 -1.439685 0
M  V30 30 H 0.528660 0.242724 -2.935692 0
M  V30 31 H 0.163234 2.354211 -1.812610 0
M  V30 32 H -1.432889 3.691057 -0.617793 0
M  V30 33 H -3.182738 2.581614 0.736860 0
M  V30 34 H -3.288046 0.076190 0.860258 0
M  V30 END ATOM
M  V30 BEGIN BOND
M  V30 1 2 1 2
M  V30 2 1 2 3
M  V30 3 1 3 4
M  V30 4 1 4 5
M  V30 5 2 5 6
M  V30 6 1 6 7
M  V30 7 2 7 8
M  V30 8 1 8 9
M  V30 9 1 2 10
M  V30 10 1 10 11
M  V30 11 1 11 12
M  V30 12 1 12 13
M  V30 13 1 13 14
M  V30 14 2 14 15
M  V30 15 1 15 16
M  V30 16 2 16 17
M  V30 17 1 17 18
M  V30 18 2 18 19
M  V30 19 1 9 5
M  V30 20 1 19 10
M  V30 21 1 19 14
M  V30 22 1 3 20
M  V30 23 1 4 21
M  V30 24 1 4 22
M  V30 25 1 6 23
M  V30 26 1 7 24
M  V30 27 1 8 25
M  V30 28 1 10 26
M  V30 29 1 12 27
M  V30 30 1 12 28
M  V30 31 1 13 29
M  V30 32 1 13 30
M  V30 33 1 15 31
M  V30 34 1 16 32
M  V30 35 1 17 33
M  V30 36 1 18 34
M  V30 END BOND
M  V30 END CTAB
M  END
>  <Dataset>  (51) 
ChEMBL_Kinases

>  <Ligand_Instance>  (51) 
nan

>  <PDB_ID>  (51) 
nan

>  <Standardized_SMILES>  (51) 
O=C(NCc1ccco1)C1OCCc2ccccc21

>  <Name>  (51) 
nan

>  <Pocket>  (51) 
nan

>  <ATP_Site>  (51) 
nan

>  <Peripheral>  (51) 
nan

>  <Num_H_Atoms_ProtBoundConf>  (51) 
nan

>  <Num_Resolved_Atoms>  (51) 
nan

>  <Num_Not_Resolved_Atoms>  (51) 
nan

$$$$
CHEMBL1508346
     RDKit          3D

  0  0  0  0  0  0  0  0  0  0999 V3000
M  V30 BEGIN CTAB
M  V30 COUNTS 55 57 0 0 0
M  V30 BEGIN ATOM
M  V30 1 C -0.075734 -2.156470 4.716708 0
M  V30 2 C 0.534966 -0.785873 4.837628 0
M  V30 3 C 1.423880 -0.471244 3.631350 0
M  V30 4 C 2.515329 -1.523073 3.607595 0
M  V30 5 C 2.004634 0.902883 3.868236 0
M  V30 6 N 0.586056 -0.505360 2.437765 0
M  V30 7 C 1.372041 -0.189579 1.308320 0
M  V30 8 O 2.575198 0.039204 1.588536 0
M  V30 9 C 0.948603 -0.102570 -0.114297 0
M  V30 10 C 1.277477 1.182727 -0.713559 0
M  V30 11 C 0.911185 1.354787 -2.043668 0
M  V30 12 C 1.177535 2.554313 -2.686975 0
M  V30 13 C 1.805982 3.618260 -2.055421 0
M  V30 14 N 2.155633 3.429060 -0.747454 0
M  V30 15 C 1.895586 2.268464 -0.135367 0
M  V30 16 N -0.443008 -0.424588 -0.329237 0
M  V30 17 C -1.311368 0.551198 0.280557 0
M  V30 18 O -1.013692 1.564213 0.955679 0
M  V30 19 C -2.789246 0.585983 0.247244 0
M  V30 20 C -3.166439 0.770174 -1.162186 0
M  V30 21 S -4.882195 0.793832 -1.102305 0
M  V30 22 N -4.965057 0.560589 0.760217 0
M  V30 23 N -3.829758 0.509275 1.006195 0
M  V30 24 C -0.877986 -1.573221 -1.036370 0
M  V30 25 C -0.051333 -2.176483 -1.949935 0
M  V30 26 C -0.431920 -3.305287 -2.628368 0
M  V30 27 C -1.651237 -3.897072 -2.440626 0
M  V30 28 C -2.105121 -5.126606 -3.172219 0
M  V30 29 C -2.511002 -3.305026 -1.517443 0
M  V30 30 C -2.093201 -2.174664 -0.855569 0
M  V30 31 H -0.048261 -2.467042 3.656011 0
M  V30 32 H -1.143952 -2.138334 5.082712 0
M  V30 33 H 0.492862 -2.857467 5.388218 0
M  V30 34 H 1.133861 -0.660954 5.763441 0
M  V30 35 H -0.289101 -0.065524 4.870107 0
M  V30 36 H 2.526624 -2.101381 4.541625 0
M  V30 37 H 2.252744 -2.217399 2.776209 0
M  V30 38 H 3.506908 -1.108584 3.393753 0
M  V30 39 H 1.799592 1.278921 4.907961 0
M  V30 40 H 1.548198 1.668934 3.207767 0
M  V30 41 H 3.101536 0.939377 3.665731 0
M  V30 42 H -0.420549 -0.713888 2.270485 0
M  V30 43 H 1.550159 -0.913876 -0.646592 0
M  V30 44 H 0.410269 0.630766 -2.686162 0
M  V30 45 H 0.936463 2.789768 -3.712287 0
M  V30 46 H 2.048429 4.578174 -2.483316 0
M  V30 47 H 2.189003 2.178656 0.899747 0
M  V30 48 H -2.711573 0.886704 -2.133638 0
M  V30 49 H 0.925939 -1.861365 -2.242301 0
M  V30 50 H 0.179988 -3.830654 -3.368281 0
M  V30 51 H -1.288272 -5.859805 -3.286152 0
M  V30 52 H -2.476087 -4.837947 -4.175985 0
M  V30 53 H -2.945009 -5.613805 -2.603698 0
M  V30 54 H -3.485643 -3.786256 -1.373306 0
M  V30 55 H -2.834852 -1.825800 -0.159834 0
M  V30 END ATOM
M  V30 BEGIN BOND
M  V30 1 1 1 2
M  V30 2 1 2 3
M  V30 3 1 3 4
M  V30 4 1 3 5
M  V30 5 1 3 6
M  V30 6 1 6 7
M  V30 7 2 7 8
M  V30 8 1 7 9
M  V30 9 1 9 10
M  V30 10 2 10 11
M  V30 11 1 11 12
M  V30 12 2 12 13
M  V30 13 1 13 14
M  V30 14 2 14 15
M  V30 15 1 9 16
M  V30 16 1 16 17
M  V30 17 2 17 18
M  V30 18 1 17 19
M  V30 19 2 19 20
M  V30 20 1 20 21
M  V30 21 1 21 22
M  V30 22 2 22 23
M  V30 23 1 16 24
M  V30 24 2 24 25
M  V30 25 1 25 26
M  V30 26 2 26 27
M  V30 27 1 27 28
M  V30 28 1 27 29
M  V30 29 2 29 30
M  V30 30 1 15 10
M  V30 31 1 23 19
M  V30 32 1 30 24
M  V30 33 1 1 31
M  V30 34 1 1 32
M  V30 35 1 1 33
M  V30 36 1 2 34
M  V30 37 1 2 35
M  V30 38 1 4 36
M  V30 39 1 4 37
M  V30 40 1 4 38
M  V30 41 1 5 39
M  V30 42 1 5 40
M  V30 43 1 5 41
M  V30 44 1 6 42
M  V30 45 1 9 43
M  V30 46 1 11 44
M  V30 47 1 12 45
M  V30 48 1 13 46
M  V30 49 1 15 47
M  V30 50 1 20 48
M  V30 51 1 25 49
M  V30 52 1 26 50
M  V30 53 1 28 51
M  V30 54 1 28 52
M  V30 55 1 28 53
M  V30 56 1 29 54
M  V30 57 1 30 55
M  V30 END BOND
M  V30 END CTAB
M  END
>  <Dataset>  (52) 
ChEMBL_Kinases

>  <Ligand_Instance>  (52) 
nan

>  <PDB_ID>  (52) 
nan

>  <Standardized_SMILES>  (52) 
CCC(C)(C)NC(=O)C(c1cccnc1)N(C(=O)c1csnn1)c1ccc(C)cc1

>  <Name>  (52) 
nan

>  <Pocket>  (52) 
nan

>  <ATP_Site>  (52) 
nan

>  <Peripheral>  (52) 
nan

>  <Num_H_Atoms_ProtBoundConf>  (52) 
nan

>  <Num_Resolved_Atoms>  (52) 
nan

>  <Num_Not_Resolved_Atoms>  (52) 
nan

$$$$
CHEMBL1509321
     RDKit          3D

  0  0  0  0  0  0  0  0  0  0999 V3000
M  V30 BEGIN CTAB
M  V30 COUNTS 53 57 0 0 0
M  V30 BEGIN ATOM
M  V30 1 C 3.884600 -3.456783 7.530889 0
M  V30 2 S 3.265588 -4.678832 6.319255 0
M  V30 3 C 2.996538 -3.847113 4.721745 0
M  V30 4 N 3.729088 -3.693908 3.841255 0
M  V30 5 C 3.555418 -3.098998 2.681808 0
M  V30 6 C 4.422356 -2.911149 1.625278 0
M  V30 7 C 4.006914 -2.247529 0.497729 0
M  V30 8 C 2.747025 -1.723164 0.304436 0
M  V30 9 N 2.288421 -1.033934 -0.846648 0
M  V30 10 C 0.967266 -0.518678 -0.966401 0
M  V30 11 N 0.701616 0.751520 -0.555201 0
M  V30 12 C -0.519733 1.306344 -0.636900 0
M  V30 13 N -0.796161 2.633235 -0.207613 0
M  V30 14 C 0.215089 3.487290 0.338486 0
M  V30 15 C -0.505070 4.350847 1.383665 0
M  V30 16 O -1.574065 3.688923 1.960743 0
M  V30 17 C -2.614670 3.406315 1.092291 0
M  V30 18 C -2.151054 3.137357 -0.328161 0
M  V30 19 N -1.483691 0.525344 -1.156333 0
M  V30 20 C -1.295060 -0.717778 -1.575657 0
M  V30 21 N -2.344265 -1.507980 -2.119324 0
M  V30 22 C -3.699960 -1.014946 -2.269738 0
M  V30 23 C -4.617645 -2.215180 -2.250247 0
M  V30 24 O -4.172849 -3.114566 -1.287018 0
M  V30 25 C -2.990019 -3.724068 -1.616919 0
M  V30 26 C -2.143698 -2.863132 -2.564183 0
M  V30 27 N -0.064965 -1.248307 -1.482761 0
M  V30 28 C 1.849849 -1.889022 1.335867 0
M  V30 29 C 2.274813 -2.559872 2.472062 0
M  V30 30 S 1.416134 -2.985431 4.037748 0
M  V30 31 H 3.724801 -2.414997 7.147282 0
M  V30 32 H 3.289569 -3.529031 8.463381 0
M  V30 33 H 4.964620 -3.584222 7.730155 0
M  V30 34 H 5.451849 -3.266121 1.623839 0
M  V30 35 H 4.688759 -2.091611 -0.350931 0
M  V30 36 H 2.962197 -0.902596 -1.642911 0
M  V30 37 H 1.090854 2.992214 0.755407 0
M  V30 38 H 0.509096 4.213122 -0.470242 0
M  V30 39 H -0.829426 5.311436 0.971065 0
M  V30 40 H 0.227098 4.539769 2.175746 0
M  V30 41 H -3.401102 4.183871 1.068776 0
M  V30 42 H -3.047839 2.431329 1.456507 0
M  V30 43 H -2.831643 2.377444 -0.787051 0
M  V30 44 H -2.226551 4.042982 -0.964518 0
M  V30 45 H -3.886296 -0.281514 -1.483871 0
M  V30 46 H -3.763375 -0.492853 -3.244334 0
M  V30 47 H -5.632245 -1.846013 -2.001988 0
M  V30 48 H -4.631856 -2.665317 -3.241854 0
M  V30 49 H -3.189421 -4.720993 -2.016966 0
M  V30 50 H -2.378207 -3.799153 -0.671470 0
M  V30 51 H -2.592128 -2.979212 -3.582582 0
M  V30 52 H -1.098601 -3.209698 -2.526488 0
M  V30 53 H 0.838103 -1.559626 1.380495 0
M  V30 END ATOM
M  V30 BEGIN BOND
M  V30 1 1 1 2
M  V30 2 1 2 3
M  V30 3 2 3 4
M  V30 4 1 4 5
M  V30 5 2 5 6
M  V30 6 1 6 7
M  V30 7 2 7 8
M  V30 8 1 8 9
M  V30 9 1 9 10
M  V30 10 2 10 11
M  V30 11 1 11 12
M  V30 12 1 12 13
M  V30 13 1 13 14
M  V30 14 1 14 15
M  V30 15 1 15 16
M  V30 16 1 16 17
M  V30 17 1 17 18
M  V30 18 2 12 19
M  V30 19 1 19 20
M  V30 20 1 20 21
M  V30 21 1 21 22
M  V30 22 1 22 23
M  V30 23 1 23 24
M  V30 24 1 24 25
M  V30 25 1 25 26
M  V30 26 2 20 27
M  V30 27 1 8 28
M  V30 28 2 28 29
M  V30 29 1 29 30
M  V30 30 1 30 3
M  V30 31 1 29 5
M  V30 32 1 27 10
M  V30 33 1 18 13
M  V30 34 1 26 21
M  V30 35 1 1 31
M  V30 36 1 1 32
M  V30 37 1 1 33
M  V30 38 1 6 34
M  V30 39 1 7 35
M  V30 40 1 9 36
M  V30 41 1 14 37
M  V30 42 1 14 38
M  V30 43 1 15 39
M  V30 44 1 15 40
M  V30 45 1 17 41
M  V30 46 1 17 42
M  V30 47 1 18 43
M  V30 48 1 18 44
M  V30 49 1 22 45
M  V30 50 1 22 46
M  V30 51 1 23 47
M  V30 52 1 23 48
M  V30 53 1 25 49
M  V30 54 1 25 50
M  V30 55 1 26 51
M  V30 56 1 26 52
M  V30 57 1 28 53
M  V30 END BOND
M  V30 END CTAB
M  END
>  <Dataset>  (53) 
ChEMBL_Kinases

>  <Ligand_Instance>  (53) 
nan

>  <PDB_ID>  (53) 
nan

>  <Standardized_SMILES>  (53) 
CSc1nc2ccc(Nc3nc(N4CCOCC4)nc(N4CCOCC4)n3)cc2s1

>  <Name>  (53) 
nan

>  <Pocket>  (53) 
nan

>  <ATP_Site>  (53) 
nan

>  <Peripheral>  (53) 
nan

>  <Num_H_Atoms_ProtBoundConf>  (53) 
nan

>  <Num_Resolved_Atoms>  (53) 
nan

>  <Num_Not_Resolved_Atoms>  (53) 
nan

$$$$
CHEMBL1508443
     RDKit          3D

  0  0  0  0  0  0  0  0  0  0999 V3000
M  V30 BEGIN CTAB
M  V30 COUNTS 44 46 0 0 0
M  V30 BEGIN ATOM
M  V30 1 C -3.110407 -5.223871 -0.979893 0
M  V30 2 C -2.396551 -5.201234 0.360981 0
M  V30 3 C -2.987823 -4.201211 1.296345 0
M  V30 4 N -2.958855 -2.845952 0.839149 0
M  V30 5 C -1.761855 -2.151983 0.535141 0
M  V30 6 O -0.765097 -2.927729 0.737584 0
M  V30 7 C -1.633797 -0.783005 0.066841 0
M  V30 8 C -0.311146 -0.375738 -0.148105 0
M  V30 9 C -0.020349 0.894389 -0.592745 0
M  V30 10 S 1.645021 1.363052 -0.848552 0
M  V30 11 O 2.453720 0.168652 -1.304291 0
M  V30 12 O 1.694846 2.413380 -1.941674 0
M  V30 13 N 2.363787 2.045277 0.554196 0
M  V30 14 C 1.928729 3.251489 1.228731 0
M  V30 15 C 2.287475 2.923138 2.675416 0
M  V30 16 C 3.479367 2.036290 2.544298 0
M  V30 17 C 4.506208 1.647329 3.396605 0
M  V30 18 C 5.512741 0.786611 2.998132 0
M  V30 19 C 5.525509 0.278292 1.712951 0
M  V30 20 C 4.500567 0.673013 0.878897 0
M  V30 21 C 3.483103 1.533759 1.257722 0
M  V30 22 C -0.994700 1.832351 -0.851100 0
M  V30 23 C -2.296770 1.438828 -0.641990 0
M  V30 24 C -2.588522 0.170838 -0.198018 0
M  V30 25 F -3.852695 -0.239348 0.014458 0
M  V30 26 H -4.033037 -5.832125 -0.962580 0
M  V30 27 H -3.229017 -4.199386 -1.345712 0
M  V30 28 H -2.390194 -5.725909 -1.689419 0
M  V30 29 H -1.321820 -5.125600 0.204658 0
M  V30 30 H -2.552644 -6.209281 0.844470 0
M  V30 31 H -3.999957 -4.550189 1.554999 0
M  V30 32 H -2.403298 -4.240480 2.240172 0
M  V30 33 H -3.861020 -2.352228 0.726566 0
M  V30 34 H 0.543887 -1.047506 0.027684 0
M  V30 35 H 2.574690 4.119385 0.923098 0
M  V30 36 H 0.860552 3.477332 1.097450 0
M  V30 37 H 2.497230 3.823348 3.276595 0
M  V30 38 H 1.444888 2.309464 3.066236 0
M  V30 39 H 4.453012 2.070886 4.390678 0
M  V30 40 H 6.303995 0.507130 3.706981 0
M  V30 41 H 6.305648 -0.399774 1.375927 0
M  V30 42 H 4.510232 0.269329 -0.142630 0
M  V30 43 H -0.841569 2.841928 -1.199935 0
M  V30 44 H -3.166201 2.086240 -0.808728 0
M  V30 END ATOM
M  V30 BEGIN BOND
M  V30 1 1 1 2
M  V30 2 1 2 3
M  V30 3 1 3 4
M  V30 4 1 4 5
M  V30 5 2 5 6
M  V30 6 1 5 7
M  V30 7 2 7 8
M  V30 8 1 8 9
M  V30 9 1 9 10
M  V30 10 2 10 11
M  V30 11 2 10 12
M  V30 12 1 10 13
M  V30 13 1 13 14
M  V30 14 1 14 15
M  V30 15 1 15 16
M  V30 16 2 16 17
M  V30 17 1 17 18
M  V30 18 2 18 19
M  V30 19 1 19 20
M  V30 20 2 20 21
M  V30 21 2 9 22
M  V30 22 1 22 23
M  V30 23 2 23 24
M  V30 24 1 24 25
M  V30 25 1 24 7
M  V30 26 1 21 13
M  V30 27 1 21 16
M  V30 28 1 1 26
M  V30 29 1 1 27
M  V30 30 1 1 28
M  V30 31 1 2 29
M  V30 32 1 2 30
M  V30 33 1 3 31
M  V30 34 1 3 32
M  V30 35 1 4 33
M  V30 36 1 8 34
M  V30 37 1 14 35
M  V30 38 1 14 36
M  V30 39 1 15 37
M  V30 40 1 15 38
M  V30 41 1 17 39
M  V30 42 1 18 40
M  V30 43 1 19 41
M  V30 44 1 20 42
M  V30 45 1 22 43
M  V30 46 1 23 44
M  V30 END BOND
M  V30 END CTAB
M  END
>  <Dataset>  (54) 
ChEMBL_Kinases

>  <Ligand_Instance>  (54) 
nan

>  <PDB_ID>  (54) 
nan

>  <Standardized_SMILES>  (54) 
CCCNC(=O)c1cc(S(=O)(=O)N2CCc3ccccc32)ccc1F

>  <Name>  (54) 
nan

>  <Pocket>  (54) 
nan

>  <ATP_Site>  (54) 
nan

>  <Peripheral>  (54) 
nan

>  <Num_H_Atoms_ProtBoundConf>  (54) 
nan

>  <Num_Resolved_Atoms>  (54) 
nan

>  <Num_Not_Resolved_Atoms>  (54) 
nan

$$$$
CHEMBL1508575
     RDKit          3D

  0  0  0  0  0  0  0  0  0  0999 V3000
M  V30 BEGIN CTAB
M  V30 COUNTS 60 64 0 0 0
M  V30 BEGIN ATOM
M  V30 1 C 3.551196 -3.010931 -0.564776 0
M  V30 2 C 2.694248 -2.626835 0.609792 0
M  V30 3 C 2.719642 -3.593551 1.622699 0
M  V30 4 C 1.983532 -3.410086 2.787809 0
M  V30 5 C 1.216580 -2.268133 2.959426 0
M  V30 6 C 1.238548 -1.372121 1.935083 0
M  V30 7 C 1.926305 -1.457032 0.751061 0
M  V30 8 N 2.071627 -0.670959 -0.385537 0
M  V30 9 C 2.682121 0.522460 -0.292617 0
M  V30 10 S 3.398847 1.592498 0.888462 0
M  V30 11 C 2.353757 2.841013 1.595697 0
M  V30 12 C 1.246824 2.361299 2.443104 0
M  V30 13 O 1.652591 2.127234 3.630853 0
M  V30 14 N -0.115628 2.163306 2.061278 0
M  V30 15 C -0.548170 2.408040 0.722240 0
M  V30 16 C -1.982116 1.997108 0.502439 0
M  V30 17 N -2.411463 0.875061 1.277387 0
M  V30 18 C -3.283472 -0.183496 0.828996 0
M  V30 19 C -3.700247 -1.253711 1.617843 0
M  V30 20 C -4.525543 -2.241885 1.160516 0
M  V30 21 C -4.995082 -2.225525 -0.134948 0
M  V30 22 C -4.603561 -1.190999 -0.927875 0
M  V30 23 C -3.777403 -0.197018 -0.477422 0
M  V30 24 C -1.997724 0.684078 2.640566 0
M  V30 25 C -1.037147 1.723010 3.079890 0
M  V30 26 N 2.695097 1.033481 -1.559313 0
M  V30 27 N 2.105523 0.164386 -2.383736 0
M  V30 28 C 1.711861 -0.902541 -1.663130 0
M  V30 29 C 1.028054 -2.089126 -2.162628 0
M  V30 30 C 1.554043 -2.591901 -3.335532 0
M  V30 31 C 1.022710 -3.709900 -3.939187 0
M  V30 32 N -0.029445 -4.336650 -3.388724 0
M  V30 33 C -0.556745 -3.865984 -2.250266 0
M  V30 34 C -0.068279 -2.752052 -1.601243 0
M  V30 35 H 3.108976 -3.837951 -1.154789 0
M  V30 36 H 3.854536 -2.131598 -1.149110 0
M  V30 37 H 4.511847 -3.435231 -0.171171 0
M  V30 38 H 3.288475 -4.511277 1.569346 0
M  V30 39 H 1.962338 -4.122828 3.611609 0
M  V30 40 H 0.604455 -2.009578 3.812134 0
M  V30 41 H 0.685956 -0.445311 1.946926 0
M  V30 42 H 2.964677 3.610422 2.145095 0
M  V30 43 H 1.893976 3.417184 0.750469 0
M  V30 44 H 0.104269 1.926631 -0.041157 0
M  V30 45 H -0.499034 3.497630 0.514151 0
M  V30 46 H -2.131285 1.804455 -0.562434 0
M  V30 47 H -2.673442 2.849044 0.779317 0
M  V30 48 H -3.351889 -1.286358 2.617677 0
M  V30 49 H -4.798160 -3.043537 1.852641 0
M  V30 50 H -5.640529 -3.055587 -0.391830 0
M  V30 51 H -4.990958 -1.211038 -1.938897 0
M  V30 52 H -3.546158 0.550810 -1.192334 0
M  V30 53 H -2.897791 0.765255 3.316556 0
M  V30 54 H -1.561384 -0.348213 2.717230 0
M  V30 55 H -1.630395 2.638258 3.356585 0
M  V30 56 H -0.512611 1.429661 4.016099 0
M  V30 57 H 2.398197 -2.185091 -3.878198 0
M  V30 58 H 1.417486 -4.135320 -4.873197 0
M  V30 59 H -1.403972 -4.321265 -1.750157 0
M  V30 60 H -0.421984 -2.296665 -0.685898 0
M  V30 END ATOM
M  V30 BEGIN BOND
M  V30 1 1 1 2
M  V30 2 2 2 3
M  V30 3 1 3 4
M  V30 4 2 4 5
M  V30 5 1 5 6
M  V30 6 2 6 7
M  V30 7 1 7 8
M  V30 8 1 8 9
M  V30 9 1 9 10
M  V30 10 1 10 11
M  V30 11 1 11 12
M  V30 12 2 12 13
M  V30 13 1 12 14
M  V30 14 1 14 15
M  V30 15 1 15 16
M  V30 16 1 16 17
M  V30 17 1 17 18
M  V30 18 2 18 19
M  V30 19 1 19 20
M  V30 20 2 20 21
M  V30 21 1 21 22
M  V30 22 2 22 23
M  V30 23 1 17 24
M  V30 24 1 24 25
M  V30 25 2 9 26
M  V30 26 1 26 27
M  V30 27 2 27 28
M  V30 28 1 28 29
M  V30 29 2 29 30
M  V30 30 1 30 31
M  V30 31 2 31 32
M  V30 32 1 32 33
M  V30 33 2 33 34
M  V30 34 1 7 2
M  V30 35 1 28 8
M  V30 36 1 34 29
M  V30 37 1 25 14
M  V30 38 1 23 18
M  V30 39 1 1 35
M  V30 40 1 1 36
M  V30 41 1 1 37
M  V30 42 1 3 38
M  V30 43 1 4 39
M  V30 44 1 5 40
M  V30 45 1 6 41
M  V30 46 1 11 42
M  V30 47 1 11 43
M  V30 48 1 15 44
M  V30 49 1 15 45
M  V30 50 1 16 46
M  V30 51 1 16 47
M  V30 52 1 19 48
M  V30 53 1 20 49
M  V30 54 1 21 50
M  V30 55 1 22 51
M  V30 56 1 23 52
M  V30 57 1 24 53
M  V30 58 1 24 54
M  V30 59 1 25 55
M  V30 60 1 25 56
M  V30 61 1 30 57
M  V30 62 1 31 58
M  V30 63 1 33 59
M  V30 64 1 34 60
M  V30 END BOND
M  V30 END CTAB
M  END
>  <Dataset>  (55) 
ChEMBL_Kinases

>  <Ligand_Instance>  (55) 
nan

>  <PDB_ID>  (55) 
nan

>  <Standardized_SMILES>  (55) 
Cc1ccccc1-n1c(SCC(=O)N2CCN(c3ccccc3)CC2)nnc1-c1ccncc1

>  <Name>  (55) 
nan

>  <Pocket>  (55) 
nan

>  <ATP_Site>  (55) 
nan

>  <Peripheral>  (55) 
nan

>  <Num_H_Atoms_ProtBoundConf>  (55) 
nan

>  <Num_Resolved_Atoms>  (55) 
nan

>  <Num_Not_Resolved_Atoms>  (55) 
nan

$$$$
CHEMBL1508923
     RDKit          3D

  0  0  0  0  0  0  0  0  0  0999 V3000
M  V30 BEGIN CTAB
M  V30 COUNTS 33 34 0 0 0
M  V30 BEGIN ATOM
M  V30 1 C -1.631809 -3.010763 2.320326 0
M  V30 2 N -0.244122 -3.210387 1.894171 0
M  V30 3 C 0.446811 -4.391883 2.319956 0
M  V30 4 C 0.384955 -2.236384 1.073383 0
M  V30 5 N 1.666589 -2.392328 0.663001 0
M  V30 6 C 2.242101 -1.447144 -0.119807 0
M  V30 7 C 3.618438 -1.566223 -0.589021 0
M  V30 8 O 4.132678 -0.662344 -1.323478 0
M  V30 9 O 4.375098 -2.673716 -0.232621 0
M  V30 10 N 1.522571 -0.368207 -0.473896 0
M  V30 11 C 0.248147 -0.185647 -0.082040 0
M  V30 12 N -0.573966 0.923533 -0.413720 0
M  V30 13 C -1.945602 1.058980 0.044450 0
M  V30 14 C -1.934268 2.205918 1.036898 0
M  V30 15 O -1.295828 3.292617 0.496813 0
M  V30 16 C -1.030332 3.211569 -0.863480 0
M  V30 17 C -0.149228 2.038453 -1.237896 0
M  V30 18 N -0.294877 -1.135549 0.690818 0
M  V30 19 H -2.242174 -2.560452 1.508922 0
M  V30 20 H -2.102769 -3.950036 2.637670 0
M  V30 21 H -1.621035 -2.302823 3.195895 0
M  V30 22 H 0.336473 -4.522747 3.411033 0
M  V30 23 H 0.132558 -5.302955 1.773552 0
M  V30 24 H 1.545869 -4.273001 2.119424 0
M  V30 25 H 5.350900 -2.791441 -0.541624 0
M  V30 26 H -2.301174 0.118245 0.532210 0
M  V30 27 H -2.583188 1.334988 -0.821150 0
M  V30 28 H -2.935665 2.415358 1.461355 0
M  V30 29 H -1.294385 1.853773 1.897790 0
M  V30 30 H -0.465851 4.133313 -1.117664 0
M  V30 31 H -1.965477 3.262140 -1.454490 0
M  V30 32 H 0.901872 2.341824 -1.057488 0
M  V30 33 H -0.352329 1.811248 -2.314183 0
M  V30 END ATOM
M  V30 BEGIN BOND
M  V30 1 1 1 2
M  V30 2 1 2 3
M  V30 3 1 2 4
M  V30 4 2 4 5
M  V30 5 1 5 6
M  V30 6 1 6 7
M  V30 7 2 7 8
M  V30 8 1 7 9
M  V30 9 2 6 10
M  V30 10 1 10 11
M  V30 11 1 11 12
M  V30 12 1 12 13
M  V30 13 1 13 14
M  V30 14 1 14 15
M  V30 15 1 15 16
M  V30 16 1 16 17
M  V30 17 2 11 18
M  V30 18 1 18 4
M  V30 19 1 17 12
M  V30 20 1 1 19
M  V30 21 1 1 20
M  V30 22 1 1 21
M  V30 23 1 3 22
M  V30 24 1 3 23
M  V30 25 1 3 24
M  V30 26 1 9 25
M  V30 27 1 13 26
M  V30 28 1 13 27
M  V30 29 1 14 28
M  V30 30 1 14 29
M  V30 31 1 16 30
M  V30 32 1 16 31
M  V30 33 1 17 32
M  V30 34 1 17 33
M  V30 END BOND
M  V30 END CTAB
M  END
>  <Dataset>  (56) 
ChEMBL_Kinases

>  <Ligand_Instance>  (56) 
nan

>  <PDB_ID>  (56) 
nan

>  <Standardized_SMILES>  (56) 
CN(C)c1nc(C(=O)O)nc(N2CCOCC2)n1

>  <Name>  (56) 
nan

>  <Pocket>  (56) 
nan

>  <ATP_Site>  (56) 
nan

>  <Peripheral>  (56) 
nan

>  <Num_H_Atoms_ProtBoundConf>  (56) 
nan

>  <Num_Resolved_Atoms>  (56) 
nan

>  <Num_Not_Resolved_Atoms>  (56) 
nan

$$$$
CHEMBL150894
     RDKit          3D

  0  0  0  0  0  0  0  0  0  0999 V3000
M  V30 BEGIN CTAB
M  V30 COUNTS 61 66 0 0 0
M  V30 BEGIN ATOM
M  V30 1 C 4.259479 2.650568 4.402813 0
M  V30 2 C 3.082797 3.519838 4.004506 0
M  V30 3 C 2.579560 4.208360 5.247342 0
M  V30 4 O 2.151814 2.754479 3.368911 0
M  V30 5 C 1.860246 3.086594 2.066569 0
M  V30 6 C 0.843100 2.191040 1.486651 0
M  V30 7 C -0.488006 2.525485 1.607613 0
M  V30 8 C -1.426567 1.683919 1.063653 0
M  V30 9 C -1.151540 0.491484 0.382575 0
M  V30 10 C 0.198582 0.223480 0.301406 0
M  V30 11 C 1.169492 1.026780 0.824857 0
M  V30 12 C 0.283454 -0.957219 -0.385271 0
M  V30 13 C 1.337652 -1.762343 -0.819239 0
M  V30 14 C 1.060804 -2.908782 -1.529430 0
M  V30 15 C -0.220966 -3.276070 -1.819430 0
M  V30 16 C -1.285428 -2.503656 -1.404054 0
M  V30 17 C -1.004577 -1.348933 -0.686349 0
M  V30 18 N -1.890680 -0.465988 -0.216836 0
M  V30 19 C -3.332779 -0.350934 -0.135705 0
M  V30 20 C -3.811670 -0.753498 1.222032 0
M  V30 21 C -3.502469 -2.158314 1.632451 0
M  V30 22 O -3.981428 -2.374287 2.961395 0
M  V30 23 C -2.532724 -3.114764 -1.872188 0
M  V30 24 C -2.042133 -4.332711 -2.596450 0
M  V30 25 C -2.887538 -5.232163 -3.211091 0
M  V30 26 C -2.354872 -6.322151 -3.855620 0
M  V30 27 C -0.989404 -6.476740 -3.863929 0
M  V30 28 C -0.219415 -5.531871 -3.225815 0
M  V30 29 C -0.670663 -4.426696 -2.566547 0
M  V30 30 C 2.350522 -3.451506 -1.790929 0
M  V30 31 O 2.778761 -4.456905 -2.378359 0
M  V30 32 N 3.390921 -2.653327 -1.251997 0
M  V30 33 C 2.780694 -1.501721 -0.586061 0
M  V30 34 H 4.742220 3.026097 5.343528 0
M  V30 35 H 3.864315 1.650901 4.644159 0
M  V30 36 H 5.029596 2.595766 3.593464 0
M  V30 37 H 3.478523 4.326489 3.346005 0
M  V30 38 H 2.210861 5.254027 5.037557 0
M  V30 39 H 3.456869 4.370084 5.910189 0
M  V30 40 H 1.850182 3.614271 5.823079 0
M  V30 41 H 1.552816 4.142100 1.934908 0
M  V30 42 H 2.786493 2.982638 1.451832 0
M  V30 43 H -0.777476 3.431692 2.120716 0
M  V30 44 H -2.454462 1.994380 1.187475 0
M  V30 45 H 2.212164 0.769628 0.732920 0
M  V30 46 H -3.600513 0.709348 -0.351497 0
M  V30 47 H -3.808158 -0.946335 -0.948547 0
M  V30 48 H -3.459107 -0.045145 2.017749 0
M  V30 49 H -4.937509 -0.627323 1.215419 0
M  V30 50 H -4.014700 -2.897368 0.975006 0
M  V30 51 H -2.424791 -2.374313 1.617701 0
M  V30 52 H -4.681441 -1.687292 3.166944 0
M  V30 53 H -3.217274 -3.420386 -1.074564 0
M  V30 54 H -3.045589 -2.473097 -2.637048 0
M  V30 55 H -3.962262 -5.167031 -3.239769 0
M  V30 56 H -2.976712 -7.053068 -4.350900 0
M  V30 57 H -0.560806 -7.324132 -4.364112 0
M  V30 58 H 0.830017 -5.705225 -3.265936 0
M  V30 59 H 4.427343 -2.668540 -1.206445 0
M  V30 60 H 2.995498 -1.540415 0.488095 0
M  V30 61 H 3.121069 -0.599816 -1.109971 0
M  V30 END ATOM
M  V30 BEGIN BOND
M  V30 1 1 1 2
M  V30 2 1 2 3
M  V30 3 1 2 4
M  V30 4 1 4 5
M  V30 5 1 5 6
M  V30 6 2 6 7
M  V30 7 1 7 8
M  V30 8 2 8 9
M  V30 9 1 9 10
M  V30 10 2 10 11
M  V30 11 1 10 12
M  V30 12 2 12 13
M  V30 13 1 13 14
M  V30 14 2 14 15
M  V30 15 1 15 16
M  V30 16 2 16 17
M  V30 17 1 17 18
M  V30 18 1 18 19
M  V30 19 1 19 20
M  V30 20 1 20 21
M  V30 21 1 21 22
M  V30 22 1 16 23
M  V30 23 1 23 24
M  V30 24 2 24 25
M  V30 25 1 25 26
M  V30 26 2 26 27
M  V30 27 1 27 28
M  V30 28 2 28 29
M  V30 29 1 14 30
M  V30 30 2 30 31
M  V30 31 1 30 32
M  V30 32 1 32 33
M  V30 33 1 11 6
M  V30 34 1 17 12
M  V30 35 1 29 24
M  V30 36 1 18 9
M  V30 37 1 33 13
M  V30 38 1 29 15
M  V30 39 1 1 34
M  V30 40 1 1 35
M  V30 41 1 1 36
M  V30 42 1 2 37
M  V30 43 1 3 38
M  V30 44 1 3 39
M  V30 45 1 3 40
M  V30 46 1 5 41
M  V30 47 1 5 42
M  V30 48 1 7 43
M  V30 49 1 8 44
M  V30 50 1 11 45
M  V30 51 1 19 46
M  V30 52 1 19 47
M  V30 53 1 20 48
M  V30 54 1 20 49
M  V30 55 1 21 50
M  V30 56 1 21 51
M  V30 57 1 22 52
M  V30 58 1 23 53
M  V30 59 1 23 54
M  V30 60 1 25 55
M  V30 61 1 26 56
M  V30 62 1 27 57
M  V30 63 1 28 58
M  V30 64 1 32 59
M  V30 65 1 33 60
M  V30 66 1 33 61
M  V30 END BOND
M  V30 END CTAB
M  END
>  <Dataset>  (57) 
ChEMBL_Kinases

>  <Ligand_Instance>  (57) 
nan

>  <PDB_ID>  (57) 
nan

>  <Standardized_SMILES>  (57) 
CC(C)OCc1ccc2c(c1)c1c3c(c4c(c1n2CCCO)Cc1ccccc1-4)C(=O)NC3

>  <Name>  (57) 
CEP-5214

>  <Pocket>  (57) 
nan

>  <ATP_Site>  (57) 
nan

>  <Peripheral>  (57) 
nan

>  <Num_H_Atoms_ProtBoundConf>  (57) 
nan

>  <Num_Resolved_Atoms>  (57) 
nan

>  <Num_Not_Resolved_Atoms>  (57) 
nan

$$$$
CHEMBL1509003
     RDKit          3D

  0  0  0  0  0  0  0  0  0  0999 V3000
M  V30 BEGIN CTAB
M  V30 COUNTS 36 37 0 0 0
M  V30 BEGIN ATOM
M  V30 1 C -0.489666 -5.328448 3.897760 0
M  V30 2 C 0.303405 -4.500710 2.957041 0
M  V30 3 O 1.182425 -3.677912 3.315137 0
M  V30 4 N 0.148943 -4.553032 1.528668 0
M  V30 5 C 1.078330 -3.617438 0.935573 0
M  V30 6 C 2.341333 -4.068255 0.608067 0
M  V30 7 C 3.219086 -3.166025 0.042789 0
M  V30 8 C 2.844549 -1.853539 -0.187554 0
M  V30 9 C 1.570564 -1.448251 0.156538 0
M  V30 10 C 1.223651 -0.046221 -0.108554 0
M  V30 11 O 2.000200 0.788449 -0.618775 0
M  V30 12 O -0.025087 0.475440 0.194179 0
M  V30 13 C -0.359973 1.806399 -0.055453 0
M  V30 14 C -0.094303 2.704721 0.984577 0
M  V30 15 C -0.351906 4.061997 0.936255 0
M  V30 16 C -0.910868 4.504061 -0.247084 0
M  V30 17 C -1.195414 3.668890 -1.306296 0
M  V30 18 C -1.797057 4.190098 -2.560295 0
M  V30 19 C -0.913382 2.322574 -1.193217 0
M  V30 20 C 0.657569 -2.313455 0.724161 0
M  V30 21 O -0.614765 -1.889256 1.062401 0
M  V30 22 H -0.299952 -6.417978 3.794674 0
M  V30 23 H -1.566691 -5.188292 3.816961 0
M  V30 24 H -0.206727 -4.982856 4.914101 0
M  V30 25 H -0.576997 -5.226395 1.142086 0
M  V30 26 H 2.632416 -5.084359 0.786001 0
M  V30 27 H 4.193542 -3.523286 -0.207278 0
M  V30 28 H 3.575214 -1.185160 -0.635141 0
M  V30 29 H 0.349639 2.342608 1.919692 0
M  V30 30 H -0.123384 4.698392 1.772127 0
M  V30 31 H -1.138755 5.562726 -0.351051 0
M  V30 32 H -2.291760 5.176654 -2.389958 0
M  V30 33 H -1.075152 4.259707 -3.386132 0
M  V30 34 H -2.614892 3.486161 -2.850434 0
M  V30 35 H -1.110181 1.601471 -1.987636 0
M  V30 36 H -1.350286 -1.706349 0.391056 0
M  V30 END ATOM
M  V30 BEGIN BOND
M  V30 1 1 1 2
M  V30 2 2 2 3
M  V30 3 1 2 4
M  V30 4 1 4 5
M  V30 5 2 5 6
M  V30 6 1 6 7
M  V30 7 2 7 8
M  V30 8 1 8 9
M  V30 9 1 9 10
M  V30 10 2 10 11
M  V30 11 1 10 12
M  V30 12 1 12 13
M  V30 13 2 13 14
M  V30 14 1 14 15
M  V30 15 2 15 16
M  V30 16 1 16 17
M  V30 17 1 17 18
M  V30 18 2 17 19
M  V30 19 2 9 20
M  V30 20 1 20 21
M  V30 21 1 20 5
M  V30 22 1 19 13
M  V30 23 1 1 22
M  V30 24 1 1 23
M  V30 25 1 1 24
M  V30 26 1 4 25
M  V30 27 1 6 26
M  V30 28 1 7 27
M  V30 29 1 8 28
M  V30 30 1 14 29
M  V30 31 1 15 30
M  V30 32 1 16 31
M  V30 33 1 18 32
M  V30 34 1 18 33
M  V30 35 1 18 34
M  V30 36 1 19 35
M  V30 37 1 21 36
M  V30 END BOND
M  V30 END CTAB
M  END
>  <Dataset>  (58) 
ChEMBL_Kinases

>  <Ligand_Instance>  (58) 
nan

>  <PDB_ID>  (58) 
nan

>  <Standardized_SMILES>  (58) 
CC(=O)Nc1cccc(C(=O)Oc2cccc(C)c2)c1O

>  <Name>  (58) 
nan

>  <Pocket>  (58) 
nan

>  <ATP_Site>  (58) 
nan

>  <Peripheral>  (58) 
nan

>  <Num_H_Atoms_ProtBoundConf>  (58) 
nan

>  <Num_Resolved_Atoms>  (58) 
nan

>  <Num_Not_Resolved_Atoms>  (58) 
nan

$$$$
CHEMBL1509042
     RDKit          3D

  0  0  0  0  0  0  0  0  0  0999 V3000
M  V30 BEGIN CTAB
M  V30 COUNTS 43 45 0 0 0
M  V30 BEGIN ATOM
M  V30 1 C -1.984609 -3.099719 -2.260410 0
M  V30 2 N -1.369772 -1.804338 -2.469899 0
M  V30 3 C -1.928516 -0.900619 -1.471163 0
M  V30 4 C 0.067497 -1.942815 -2.187029 0
M  V30 5 C 0.800367 -0.667854 -2.389828 0
M  V30 6 C 1.045338 -0.313705 -3.702048 0
M  V30 7 O 0.629303 -1.101794 -4.768778 0
M  V30 8 C 1.724335 0.859974 -3.940386 0
M  V30 9 C 2.171912 1.700052 -2.928929 0
M  V30 10 C 1.872878 1.249336 -1.659940 0
M  V30 11 C 1.203310 0.098813 -1.305400 0
M  V30 12 O 1.093368 -0.015341 0.059197 0
M  V30 13 C 1.691595 1.067219 0.699299 0
M  V30 14 C 1.790847 1.315556 1.995195 0
M  V30 15 C 1.232741 0.397639 2.984220 0
M  V30 16 C 1.320883 0.626392 4.282436 0
M  V30 17 C 0.800358 -0.221280 5.345399 0
M  V30 18 C 0.131342 -1.398286 5.091895 0
M  V30 19 C -0.363645 -2.206985 6.098068 0
M  V30 20 C -0.203466 -1.859207 7.425219 0
M  V30 21 C 0.466714 -0.681659 7.646756 0
M  V30 22 C 0.964169 0.131560 6.644011 0
M  V30 23 C 2.210958 1.913202 -0.384814 0
M  V30 24 O 2.833879 3.011160 -0.231198 0
M  V30 25 H -2.880148 -2.983174 -1.620866 0
M  V30 26 H -2.359183 -3.536078 -3.212096 0
M  V30 27 H -1.259469 -3.818263 -1.777598 0
M  V30 28 H -1.433269 -1.069098 -0.482479 0
M  V30 29 H -1.805144 0.144945 -1.811750 0
M  V30 30 H -3.020452 -1.067694 -1.326847 0
M  V30 31 H 0.498504 -2.702886 -2.886220 0
M  V30 32 H 0.235956 -2.345507 -1.155525 0
M  V30 33 H -0.281090 -1.515875 -4.708975 0
M  V30 34 H 1.926227 1.153874 -4.980445 0
M  V30 35 H 2.700971 2.616062 -3.093929 0
M  V30 36 H 2.293714 2.214919 2.344652 0
M  V30 37 H 0.726039 -0.505559 2.675219 0
M  V30 38 H 1.837655 1.543659 4.532869 0
M  V30 39 H -0.039412 -1.747475 4.083454 0
M  V30 40 H -0.891460 -3.138209 5.858065 0
M  V30 41 H -0.564593 -2.443495 8.258274 0
M  V30 42 H 0.610699 -0.376156 8.693059 0
M  V30 43 H 1.477632 1.039330 6.928057 0
M  V30 END ATOM
M  V30 BEGIN BOND
M  V30 1 1 1 2
M  V30 2 1 2 3
M  V30 3 1 2 4
M  V30 4 1 4 5
M  V30 5 2 5 6
M  V30 6 1 6 7
M  V30 7 1 6 8
M  V30 8 2 8 9
M  V30 9 1 9 10
M  V30 10 2 10 11
M  V30 11 1 11 12
M  V30 12 1 12 13
M  V30 13 2 13 14
M  V30 14 1 14 15
M  V30 15 2 15 16
M  V30 16 1 16 17
M  V30 17 2 17 18
M  V30 18 1 18 19
M  V30 19 2 19 20
M  V30 20 1 20 21
M  V30 21 2 21 22
M  V30 22 1 13 23
M  V30 23 2 23 24
M  V30 24 1 11 5
M  V30 25 1 22 17
M  V30 26 1 23 10
M  V30 27 1 1 25
M  V30 28 1 1 26
M  V30 29 1 1 27
M  V30 30 1 3 28
M  V30 31 1 3 29
M  V30 32 1 3 30
M  V30 33 1 4 31
M  V30 34 1 4 32
M  V30 35 1 7 33
M  V30 36 1 8 34
M  V30 37 1 9 35
M  V30 38 1 14 36
M  V30 39 1 15 37
M  V30 40 1 16 38
M  V30 41 1 18 39
M  V30 42 1 19 40
M  V30 43 1 20 41
M  V30 44 1 21 42
M  V30 45 1 22 43
M  V30 END BOND
M  V30 END CTAB
M  END
>  <Dataset>  (59) 
ChEMBL_Kinases

>  <Ligand_Instance>  (59) 
nan

>  <PDB_ID>  (59) 
nan

>  <Standardized_SMILES>  (59) 
CN(C)Cc1c(O)ccc2c1O/C(=C\C=C\c1ccccc1)C2=O

>  <Name>  (59) 
nan

>  <Pocket>  (59) 
nan

>  <ATP_Site>  (59) 
nan

>  <Peripheral>  (59) 
nan

>  <Num_H_Atoms_ProtBoundConf>  (59) 
nan

>  <Num_Resolved_Atoms>  (59) 
nan

>  <Num_Not_Resolved_Atoms>  (59) 
nan

$$$$
CHEMBL1509065
     RDKit          3D

  0  0  0  0  0  0  0  0  0  0999 V3000
M  V30 BEGIN CTAB
M  V30 COUNTS 32 34 0 0 0
M  V30 BEGIN ATOM
M  V30 1 C 1.404390 -2.761211 3.562582 0
M  V30 2 N 1.725225 -3.692793 2.492776 0
M  V30 3 C 2.295514 -4.886964 2.677880 0
M  V30 4 C 2.450103 -5.489350 1.468952 0
M  V30 5 C 1.939597 -4.584891 0.559903 0
M  V30 6 C 1.481881 -3.454376 1.188780 0
M  V30 7 C 0.866405 -2.248231 0.615355 0
M  V30 8 O 0.522917 -1.329947 1.401780 0
M  V30 9 N 0.712882 -2.225795 -0.784328 0
M  V30 10 C 0.082099 -0.949070 -1.189193 0
M  V30 11 N -0.310667 0.012767 -0.689029 0
M  V30 12 C -0.856512 1.069181 -1.257523 0
M  V30 13 C -1.316289 2.232367 -0.504630 0
M  V30 14 C -1.237692 2.366021 0.864935 0
M  V30 15 C -1.670677 3.462567 1.578981 0
M  V30 16 C -2.227854 4.517806 0.894469 0
M  V30 17 C -2.311186 4.397430 -0.461497 0
M  V30 18 N -1.871014 3.302737 -1.097013 0
M  V30 19 C -0.968585 1.002608 -2.652135 0
M  V30 20 S -0.236263 -0.662742 -3.007602 0
M  V30 21 H 1.930505 -3.057237 4.504345 0
M  V30 22 H 0.313422 -2.687616 3.729181 0
M  V30 23 H 1.757921 -1.722372 3.346961 0
M  V30 24 H 2.582861 -5.292688 3.656544 0
M  V30 25 H 2.878108 -6.458678 1.277585 0
M  V30 26 H 1.898467 -4.735843 -0.524568 0
M  V30 27 H 0.966513 -2.928645 -1.476682 0
M  V30 28 H -0.796001 1.535387 1.433897 0
M  V30 29 H -1.568357 3.483757 2.673384 0
M  V30 30 H -2.573634 5.387263 1.436490 0
M  V30 31 H -2.747259 5.220338 -1.010533 0
M  V30 32 H -1.418934 1.833923 -3.302674 0
M  V30 END ATOM
M  V30 BEGIN BOND
M  V30 1 1 1 2
M  V30 2 1 2 3
M  V30 3 2 3 4
M  V30 4 1 4 5
M  V30 5 2 5 6
M  V30 6 1 6 7
M  V30 7 2 7 8
M  V30 8 1 7 9
M  V30 9 1 9 10
M  V30 10 2 10 11
M  V30 11 1 11 12
M  V30 12 1 12 13
M  V30 13 2 13 14
M  V30 14 1 14 15
M  V30 15 2 15 16
M  V30 16 1 16 17
M  V30 17 2 17 18
M  V30 18 2 12 19
M  V30 19 1 19 20
M  V30 20 1 6 2
M  V30 21 1 20 10
M  V30 22 1 18 13
M  V30 23 1 1 21
M  V30 24 1 1 22
M  V30 25 1 1 23
M  V30 26 1 3 24
M  V30 27 1 4 25
M  V30 28 1 5 26
M  V30 29 1 9 27
M  V30 30 1 14 28
M  V30 31 1 15 29
M  V30 32 1 16 30
M  V30 33 1 17 31
M  V30 34 1 19 32
M  V30 END BOND
M  V30 END CTAB
M  END
>  <Dataset>  (60) 
ChEMBL_Kinases

>  <Ligand_Instance>  (60) 
nan

>  <PDB_ID>  (60) 
nan

>  <Standardized_SMILES>  (60) 
Cn1cccc1C(=O)Nc1nc(-c2ccccn2)cs1

>  <Name>  (60) 
nan

>  <Pocket>  (60) 
nan

>  <ATP_Site>  (60) 
nan

>  <Peripheral>  (60) 
nan

>  <Num_H_Atoms_ProtBoundConf>  (60) 
nan

>  <Num_Resolved_Atoms>  (60) 
nan

>  <Num_Not_Resolved_Atoms>  (60) 
nan

$$$$
CHEMBL1509090
     RDKit          3D

  0  0  0  0  0  0  0  0  0  0999 V3000
M  V30 BEGIN CTAB
M  V30 COUNTS 65 68 0 0 0
M  V30 BEGIN ATOM
M  V30 1 C 5.394925 -0.097100 3.126563 0
M  V30 2 C 5.013391 -0.468637 1.720203 0
M  V30 3 N 5.545015 0.474951 0.760740 0
M  V30 4 C 5.187282 0.103051 -0.564778 0
M  V30 5 C 4.208573 0.957693 -1.276681 0
M  V30 6 N 3.433559 1.848953 -0.435562 0
M  V30 7 C 2.019232 1.921175 -0.328764 0
M  V30 8 C 1.419546 2.724609 0.652732 0
M  V30 9 C 0.049231 2.692470 0.616698 0
M  V30 10 C -0.738193 3.512271 1.607119 0
M  V30 11 C -0.726933 1.973967 -0.254997 0
M  V30 12 C -2.102164 1.938035 -0.298056 0
M  V30 13 C -2.707108 1.136740 -1.279234 0
M  V30 14 N -4.120576 1.144371 -1.286189 0
M  V30 15 C -4.276333 -0.009196 -0.428654 0
M  V30 16 O -3.295213 -0.697373 0.082754 0
M  V30 17 C -5.252510 -0.951940 0.254234 0
M  V30 18 C -4.657900 -2.263428 0.504443 0
M  V30 19 C -4.988718 -3.116756 -0.568320 0
M  V30 20 C -4.595160 -4.458663 -0.670706 0
M  V30 21 C -3.814507 -4.988587 0.374152 0
M  V30 22 O -3.433591 -6.313914 0.264090 0
M  V30 23 C -3.878710 -7.013274 -0.889188 0
M  V30 24 C -3.526923 -4.116122 1.380024 0
M  V30 25 O -2.748723 -4.729141 2.357299 0
M  V30 26 C -2.264985 -4.125577 3.514490 0
M  V30 27 C -3.894363 -2.820207 1.501254 0
M  V30 28 C -2.024606 0.380879 -2.204542 0
M  V30 29 C -0.646656 0.401668 -2.178519 0
M  V30 30 C -0.068700 1.192840 -1.210127 0
M  V30 31 N 1.274876 1.211228 -1.192763 0
M  V30 32 C 4.429982 2.624149 0.234713 0
M  V30 33 C 5.242940 1.793815 1.182580 0
M  V30 34 H 6.166748 0.714269 3.138236 0
M  V30 35 H 4.533342 0.276274 3.734169 0
M  V30 36 H 5.865784 -0.981435 3.633720 0
M  V30 37 H 5.323162 -1.508855 1.486077 0
M  V30 38 H 3.883500 -0.505766 1.703905 0
M  V30 39 H 6.152494 0.097830 -1.158058 0
M  V30 40 H 4.875759 -0.987849 -0.616778 0
M  V30 41 H 4.745456 1.556487 -2.057620 0
M  V30 42 H 3.514852 0.278151 -1.863002 0
M  V30 43 H 1.984648 3.305661 1.365077 0
M  V30 44 H -0.024381 3.919109 2.364739 0
M  V30 45 H -1.427994 2.835181 2.165296 0
M  V30 46 H -1.266701 4.344782 1.126159 0
M  V30 47 H -2.628484 2.527354 0.427882 0
M  V30 48 H -5.164839 1.145302 -1.287765 0
M  V30 49 H -5.417665 -0.497080 1.281066 0
M  V30 50 H -6.222444 -0.994265 -0.210310 0
M  V30 51 H -5.595013 -2.822029 -1.450269 0
M  V30 52 H -4.899977 -5.042707 -1.548945 0
M  V30 53 H -4.996143 -6.958967 -0.980289 0
M  V30 54 H -3.518386 -8.053522 -0.950790 0
M  V30 55 H -3.438328 -6.490208 -1.768073 0
M  V30 56 H -2.230600 -4.838725 4.382607 0
M  V30 57 H -2.882623 -3.238071 3.833734 0
M  V30 58 H -1.220661 -3.743011 3.407171 0
M  V30 59 H -3.672512 -2.151777 2.281575 0
M  V30 60 H -2.540503 -0.222568 -2.942590 0
M  V30 61 H -0.032206 -0.163993 -2.868796 0
M  V30 62 H 5.089330 3.188801 -0.463690 0
M  V30 63 H 3.938441 3.412633 0.845722 0
M  V30 64 H 6.212911 2.327183 1.340056 0
M  V30 65 H 4.755991 1.801055 2.187568 0
M  V30 END ATOM
M  V30 BEGIN BOND
M  V30 1 1 1 2
M  V30 2 1 2 3
M  V30 3 1 3 4
M  V30 4 1 4 5
M  V30 5 1 5 6
M  V30 6 1 6 7
M  V30 7 2 7 8
M  V30 8 1 8 9
M  V30 9 1 9 10
M  V30 10 2 9 11
M  V30 11 1 11 12
M  V30 12 2 12 13
M  V30 13 1 13 14
M  V30 14 1 14 15
M  V30 15 2 15 16
M  V30 16 1 15 17
M  V30 17 1 17 18
M  V30 18 2 18 19
M  V30 19 1 19 20
M  V30 20 2 20 21
M  V30 21 1 21 22
M  V30 22 1 22 23
M  V30 23 1 21 24
M  V30 24 1 24 25
M  V30 25 1 25 26
M  V30 26 2 24 27
M  V30 27 1 13 28
M  V30 28 2 28 29
M  V30 29 1 29 30
M  V30 30 2 30 31
M  V30 31 1 6 32
M  V30 32 1 32 33
M  V30 33 1 33 3
M  V30 34 1 31 7
M  V30 35 1 30 11
M  V30 36 1 27 18
M  V30 37 1 1 34
M  V30 38 1 1 35
M  V30 39 1 1 36
M  V30 40 1 2 37
M  V30 41 1 2 38
M  V30 42 1 4 39
M  V30 43 1 4 40
M  V30 44 1 5 41
M  V30 45 1 5 42
M  V30 46 1 8 43
M  V30 47 1 10 44
M  V30 48 1 10 45
M  V30 49 1 10 46
M  V30 50 1 12 47
M  V30 51 1 14 48
M  V30 52 1 17 49
M  V30 53 1 17 50
M  V30 54 1 19 51
M  V30 55 1 20 52
M  V30 56 1 23 53
M  V30 57 1 23 54
M  V30 58 1 23 55
M  V30 59 1 26 56
M  V30 60 1 26 57
M  V30 61 1 26 58
M  V30 62 1 27 59
M  V30 63 1 28 60
M  V30 64 1 29 61
M  V30 65 1 32 62
M  V30 66 1 32 63
M  V30 67 1 33 64
M  V30 68 1 33 65
M  V30 END BOND
M  V30 END CTAB
M  END
>  <Dataset>  (61) 
ChEMBL_Kinases

>  <Ligand_Instance>  (61) 
nan

>  <PDB_ID>  (61) 
nan

>  <Standardized_SMILES>  (61) 
CCN1CCN(c2cc(C)c3cc(NC(=O)Cc4ccc(OC)c(OC)c4)ccc3n2)CC1

>  <Name>  (61) 
nan

>  <Pocket>  (61) 
nan

>  <ATP_Site>  (61) 
nan

>  <Peripheral>  (61) 
nan

>  <Num_H_Atoms_ProtBoundConf>  (61) 
nan

>  <Num_Resolved_Atoms>  (61) 
nan

>  <Num_Not_Resolved_Atoms>  (61) 
nan

$$$$
CHEMBL1508370
     RDKit          3D

  0  0  0  0  0  0  0  0  0  0999 V3000
M  V30 BEGIN CTAB
M  V30 COUNTS 45 47 0 0 0
M  V30 BEGIN ATOM
M  V30 1 C 0.778101 -4.907370 2.874951 0
M  V30 2 C 0.553731 -3.459594 2.962507 0
M  V30 3 O 0.504672 -3.059629 4.162104 0
M  V30 4 C 0.401453 -2.557193 1.799769 0
M  V30 5 C 0.211856 -1.279597 2.046369 0
M  V30 6 C 0.136325 -0.665186 3.393965 0
M  V30 7 N 0.083903 -0.455748 0.901581 0
M  V30 8 C 0.146101 -0.915070 -0.440742 0
M  V30 9 S -0.009522 0.096919 -1.885275 0
M  V30 10 C -0.252269 1.842388 -1.440516 0
M  V30 11 C 0.984221 2.377005 -0.784656 0
M  V30 12 O 1.785747 1.414637 -0.789443 0
M  V30 13 C 1.191665 3.716181 -0.264400 0
M  V30 14 C 2.466787 3.888531 0.279296 0
M  V30 15 C 2.777529 5.135548 0.806006 0
M  V30 16 Cl 4.324252 5.500318 1.516290 0
M  V30 17 C 1.863935 6.194083 0.803223 0
M  V30 18 C 0.617950 5.947448 0.246368 0
M  V30 19 C 0.263809 4.718515 -0.291057 0
M  V30 20 Cl -1.298564 4.420075 -0.983263 0
M  V30 21 C 0.337569 -2.214908 -0.570327 0
M  V30 22 C 0.411988 -2.748905 -1.925308 0
M  V30 23 N 0.482246 -3.193640 -3.015748 0
M  V30 24 C 0.479412 -3.228976 0.480586 0
M  V30 25 C -0.592658 -4.252531 0.432799 0
M  V30 26 C -1.871193 -3.754063 0.677195 0
M  V30 27 C -2.795908 -4.802393 0.606095 0
M  V30 28 C -1.986729 -5.889544 0.315587 0
M  V30 29 O -0.740498 -5.560146 0.220769 0
M  V30 30 H 1.418676 -5.282993 3.703698 0
M  V30 31 H -0.158027 -5.499126 2.892910 0
M  V30 32 H 1.346018 -5.135406 1.929095 0
M  V30 33 H -0.023546 0.440961 3.279880 0
M  V30 34 H -0.707547 -1.091580 3.980905 0
M  V30 35 H 1.091179 -0.828723 3.917891 0
M  V30 36 H -0.069364 0.572656 1.048622 0
M  V30 37 H -1.090960 1.889597 -0.734768 0
M  V30 38 H -0.506688 2.427711 -2.339236 0
M  V30 39 H 3.228401 3.119643 0.318656 0
M  V30 40 H 2.095835 7.166693 1.210272 0
M  V30 41 H -0.099352 6.762902 0.239029 0
M  V30 42 H 1.479400 -3.709660 0.333484 0
M  V30 43 H -2.290836 -2.759668 0.903533 0
M  V30 44 H -3.868373 -4.818385 0.734893 0
M  V30 45 H -2.271891 -6.934781 0.166556 0
M  V30 END ATOM
M  V30 BEGIN BOND
M  V30 1 1 1 2
M  V30 2 2 2 3
M  V30 3 1 2 4
M  V30 4 2 4 5
M  V30 5 1 5 6
M  V30 6 1 5 7
M  V30 7 1 7 8
M  V30 8 1 8 9
M  V30 9 1 9 10
M  V30 10 1 10 11
M  V30 11 2 11 12
M  V30 12 1 11 13
M  V30 13 2 13 14
M  V30 14 1 14 15
M  V30 15 1 15 16
M  V30 16 2 15 17
M  V30 17 1 17 18
M  V30 18 2 18 19
M  V30 19 1 19 20
M  V30 20 2 8 21
M  V30 21 1 21 22
M  V30 22 3 22 23
M  V30 23 1 21 24
M  V30 24 1 24 25
M  V30 25 2 25 26
M  V30 26 1 26 27
M  V30 27 2 27 28
M  V30 28 1 28 29
M  V30 29 1 24 4
M  V30 30 1 29 25
M  V30 31 1 19 13
M  V30 32 1 1 30
M  V30 33 1 1 31
M  V30 34 1 1 32
M  V30 35 1 6 33
M  V30 36 1 6 34
M  V30 37 1 6 35
M  V30 38 1 7 36
M  V30 39 1 10 37
M  V30 40 1 10 38
M  V30 41 1 14 39
M  V30 42 1 17 40
M  V30 43 1 18 41
M  V30 44 1 24 42
M  V30 45 1 26 43
M  V30 46 1 27 44
M  V30 47 1 28 45
M  V30 END BOND
M  V30 END CTAB
M  END
>  <Dataset>  (62) 
ChEMBL_Kinases

>  <Ligand_Instance>  (62) 
nan

>  <PDB_ID>  (62) 
nan

>  <Standardized_SMILES>  (62) 
CC(=O)C1=C(C)NC(SCC(=O)c2cc(Cl)ccc2Cl)=C(C#N)C1c1ccco1

>  <Name>  (62) 
nan

>  <Pocket>  (62) 
nan

>  <ATP_Site>  (62) 
nan

>  <Peripheral>  (62) 
nan

>  <Num_H_Atoms_ProtBoundConf>  (62) 
nan

>  <Num_Resolved_Atoms>  (62) 
nan

>  <Num_Not_Resolved_Atoms>  (62) 
nan

$$$$
CHEMBL1478489
     RDKit          3D

  0  0  0  0  0  0  0  0  0  0999 V3000
M  V30 BEGIN CTAB
M  V30 COUNTS 28 30 0 0 0
M  V30 BEGIN ATOM
M  V30 1 C -2.113329 -2.497617 3.843635 0
M  V30 2 C -1.141720 -1.631935 3.656936 0
M  V30 3 C 0.170875 -2.093439 3.135911 0
M  V30 4 N 0.374224 -1.365336 1.880703 0
M  V30 5 C -0.055085 -1.864688 0.706462 0
M  V30 6 O -0.641764 -2.968219 0.653699 0
M  V30 7 C 0.159241 -1.143148 -0.447556 0
M  V30 8 C -0.286491 -1.662196 -1.664822 0
M  V30 9 C -0.061733 -0.923585 -2.808668 0
M  V30 10 C 0.576745 0.300655 -2.836948 0
M  V30 11 C 1.013964 0.803281 -1.618941 0
M  V30 12 C 0.796319 0.078193 -0.474971 0
M  V30 13 N 1.203851 0.531312 0.716762 0
M  V30 14 C 1.843600 1.655958 1.064439 0
M  V30 15 S 2.435454 3.041373 0.114751 0
M  V30 16 N 2.025959 1.642577 2.394176 0
M  V30 17 N 1.505759 0.513693 2.901530 0
M  V30 18 C 0.994269 -0.172096 1.837241 0
M  V30 19 H -2.075749 -3.564614 3.655043 0
M  V30 20 H -3.087756 -2.234931 4.217259 0
M  V30 21 H -1.336346 -0.606875 3.891846 0
M  V30 22 H 0.983712 -1.865883 3.852322 0
M  V30 23 H 0.132201 -3.166717 2.900181 0
M  V30 24 H -0.798666 -2.627971 -1.702141 0
M  V30 25 H -0.409836 -1.325329 -3.772616 0
M  V30 26 H 0.719220 0.827364 -3.777662 0
M  V30 27 H 1.501635 1.748508 -1.678006 0
M  V30 28 H 3.777052 3.318676 0.462046 0
M  V30 END ATOM
M  V30 BEGIN BOND
M  V30 1 2 1 2
M  V30 2 1 2 3
M  V30 3 1 3 4
M  V30 4 1 4 5
M  V30 5 2 5 6
M  V30 6 1 5 7
M  V30 7 2 7 8
M  V30 8 1 8 9
M  V30 9 2 9 10
M  V30 10 1 10 11
M  V30 11 2 11 12
M  V30 12 1 12 13
M  V30 13 1 13 14
M  V30 14 1 14 15
M  V30 15 2 14 16
M  V30 16 1 16 17
M  V30 17 2 17 18
M  V30 18 1 18 4
M  V30 19 1 12 7
M  V30 20 1 18 13
M  V30 21 1 1 19
M  V30 22 1 1 20
M  V30 23 1 2 21
M  V30 24 1 3 22
M  V30 25 1 3 23
M  V30 26 1 8 24
M  V30 27 1 9 25
M  V30 28 1 10 26
M  V30 29 1 11 27
M  V30 30 1 15 28
M  V30 END BOND
M  V30 END CTAB
M  END
>  <Dataset>  (63) 
ChEMBL_Kinases

>  <Ligand_Instance>  (63) 
nan

>  <PDB_ID>  (63) 
nan

>  <Standardized_SMILES>  (63) 
C=CCn1c(=O)c2ccccc2n2c(S)nnc12

>  <Name>  (63) 
nan

>  <Pocket>  (63) 
nan

>  <ATP_Site>  (63) 
nan

>  <Peripheral>  (63) 
nan

>  <Num_H_Atoms_ProtBoundConf>  (63) 
nan

>  <Num_Resolved_Atoms>  (63) 
nan

>  <Num_Not_Resolved_Atoms>  (63) 
nan

$$$$
CHEMBL1478482
     RDKit          3D

  0  0  0  0  0  0  0  0  0  0999 V3000
M  V30 BEGIN CTAB
M  V30 COUNTS 53 56 0 0 0
M  V30 BEGIN ATOM
M  V30 1 C 2.569706 -0.316306 4.790257 0
M  V30 2 O 1.333877 -0.256915 4.141788 0
M  V30 3 C 1.088927 -0.772204 2.882111 0
M  V30 4 C 2.088914 -1.396457 2.168960 0
M  V30 5 C 1.847001 -1.910515 0.915454 0
M  V30 6 C 0.610149 -1.831431 0.311213 0
M  V30 7 N 0.101660 -2.300381 -0.918810 0
M  V30 8 C 0.341026 -1.802173 -2.126958 0
M  V30 9 S 1.263873 -0.469195 -2.706261 0
M  V30 10 C 2.112833 0.581496 -1.549722 0
M  V30 11 C 1.081234 1.345060 -0.759155 0
M  V30 12 O -0.027589 0.991112 -1.222485 0
M  V30 13 N 1.570650 2.209460 0.235713 0
M  V30 14 C 0.902656 3.069727 1.152935 0
M  V30 15 C 0.389088 3.055871 2.431480 0
M  V30 16 C -0.138765 4.318776 2.641506 0
M  V30 17 C -0.777627 4.634846 3.943399 0
M  V30 18 O 0.059129 5.003123 1.561611 0
M  V30 19 N 0.676838 4.303585 0.642484 0
M  V30 20 N -0.242431 -2.415038 -3.199909 0
M  V30 21 C -1.041624 -3.488774 -3.099222 0
M  V30 22 C -1.654351 -4.140107 -4.176513 0
M  V30 23 C -2.461634 -5.238518 -3.988168 0
M  V30 24 C -2.709259 -5.754126 -2.734116 0
M  V30 25 O -3.510771 -6.856489 -2.471212 0
M  V30 26 C -2.097395 -5.099806 -1.683786 0
M  V30 27 C -1.280555 -3.993411 -1.840277 0
M  V30 28 C -0.692292 -3.376401 -0.754971 0
M  V30 29 O -0.956560 -3.890904 0.347967 0
M  V30 30 C -0.381178 -1.188505 1.068814 0
M  V30 31 C -0.167650 -0.665184 2.325139 0
M  V30 32 O -1.155794 -0.032323 3.065617 0
M  V30 33 C -2.450187 0.082894 2.503428 0
M  V30 34 H 3.232258 0.534304 4.531516 0
M  V30 35 H 3.116688 -1.280706 4.583056 0
M  V30 36 H 2.362814 -0.240630 5.891281 0
M  V30 37 H 3.091705 -1.515249 2.543104 0
M  V30 38 H 2.555171 -2.425963 0.253579 0
M  V30 39 H 2.750348 -0.005817 -0.885535 0
M  V30 40 H 2.741202 1.345704 -2.113324 0
M  V30 41 H 2.585990 2.293036 0.394339 0
M  V30 42 H 0.496306 2.140346 2.962916 0
M  V30 43 H -0.262027 4.132898 4.785103 0
M  V30 44 H -0.734957 5.726930 4.175755 0
M  V30 45 H -1.834504 4.292693 3.973677 0
M  V30 46 H -1.454859 -3.727923 -5.161654 0
M  V30 47 H -2.927779 -5.731164 -4.832393 0
M  V30 48 H -4.376271 -6.693244 -1.975808 0
M  V30 49 H -2.278556 -5.489722 -0.680439 0
M  V30 50 H -1.415542 -1.043609 0.733744 0
M  V30 51 H -3.141215 0.647223 3.154539 0
M  V30 52 H -2.843222 -0.953590 2.319278 0
M  V30 53 H -2.369383 0.579711 1.516561 0
M  V30 END ATOM
M  V30 BEGIN BOND
M  V30 1 1 1 2
M  V30 2 1 2 3
M  V30 3 2 3 4
M  V30 4 1 4 5
M  V30 5 2 5 6
M  V30 6 1 6 7
M  V30 7 1 7 8
M  V30 8 1 8 9
M  V30 9 1 9 10
M  V30 10 1 10 11
M  V30 11 2 11 12
M  V30 12 1 11 13
M  V30 13 1 13 14
M  V30 14 1 14 15
M  V30 15 2 15 16
M  V30 16 1 16 17
M  V30 17 1 16 18
M  V30 18 1 18 19
M  V30 19 2 8 20
M  V30 20 1 20 21
M  V30 21 2 21 22
M  V30 22 1 22 23
M  V30 23 2 23 24
M  V30 24 1 24 25
M  V30 25 1 24 26
M  V30 26 2 26 27
M  V30 27 1 27 28
M  V30 28 2 28 29
M  V30 29 1 6 30
M  V30 30 2 30 31
M  V30 31 1 31 32
M  V30 32 1 32 33
M  V30 33 1 31 3
M  V30 34 1 28 7
M  V30 35 2 19 14
M  V30 36 1 27 21
M  V30 37 1 1 34
M  V30 38 1 1 35
M  V30 39 1 1 36
M  V30 40 1 4 37
M  V30 41 1 5 38
M  V30 42 1 10 39
M  V30 43 1 10 40
M  V30 44 1 13 41
M  V30 45 1 15 42
M  V30 46 1 17 43
M  V30 47 1 17 44
M  V30 48 1 17 45
M  V30 49 1 22 46
M  V30 50 1 23 47
M  V30 51 1 25 48
M  V30 52 1 26 49
M  V30 53 1 30 50
M  V30 54 1 33 51
M  V30 55 1 33 52
M  V30 56 1 33 53
M  V30 END BOND
M  V30 END CTAB
M  END
>  <Dataset>  (64) 
ChEMBL_Kinases

>  <Ligand_Instance>  (64) 
nan

>  <PDB_ID>  (64) 
nan

>  <Standardized_SMILES>  (64) 
COc1ccc(-n2c(SCC(=O)Nc3cc(C)on3)nc3ccc(O)cc3c2=O)cc1OC

>  <Name>  (64) 
nan

>  <Pocket>  (64) 
nan

>  <ATP_Site>  (64) 
nan

>  <Peripheral>  (64) 
nan

>  <Num_H_Atoms_ProtBoundConf>  (64) 
nan

>  <Num_Resolved_Atoms>  (64) 
nan

>  <Num_Not_Resolved_Atoms>  (64) 
nan

$$$$
CHEMBL1478476
     RDKit          3D

  0  0  0  0  0  0  0  0  0  0999 V3000
M  V30 BEGIN CTAB
M  V30 COUNTS 44 44 0 0 0
M  V30 BEGIN ATOM
M  V30 1 C -2.993847 -2.285864 1.727737 0
M  V30 2 C -1.574503 -2.714384 1.417512 0
M  V30 3 O -1.037456 -1.807303 0.539944 0
M  V30 4 P 0.535466 -2.114742 0.077051 0
M  V30 5 O 1.157543 -3.245790 0.866995 0
M  V30 6 C 1.513171 -0.617324 0.359721 0
M  V30 7 C 0.567787 0.545899 0.476823 0
M  V30 8 C -0.213736 0.685501 -0.767712 0
M  V30 9 C -1.214585 1.793323 -0.814611 0
M  V30 10 O -0.143714 0.004513 -1.769005 0
M  V30 11 C 1.287473 1.836481 0.801816 0
M  V30 12 O 0.358938 2.843705 0.891580 0
M  V30 13 C 2.085377 1.673002 2.043116 0
M  V30 14 C 3.451941 1.499772 2.234944 0
M  V30 15 C 3.933225 1.372557 3.502441 0
M  V30 16 C 3.128477 1.407304 4.608636 0
M  V30 17 C 1.771797 1.577482 4.450860 0
M  V30 18 C 1.249367 1.710779 3.161827 0
M  V30 19 O 0.662181 -2.489146 -1.587679 0
M  V30 20 C -0.315963 -3.385034 -1.973927 0
M  V30 21 C -0.178645 -3.700661 -3.459040 0
M  V30 22 H -3.639188 -3.131044 2.016993 0
M  V30 23 H -3.386354 -1.788629 0.815749 0
M  V30 24 H -2.943776 -1.484204 2.503812 0
M  V30 25 H -0.969713 -2.874374 2.327415 0
M  V30 26 H -1.670770 -3.679241 0.838626 0
M  V30 27 H 2.247554 -0.488203 -0.441894 0
M  V30 28 H 2.066312 -0.688441 1.329722 0
M  V30 29 H -0.162937 0.393640 1.297013 0
M  V30 30 H -1.666041 1.914303 0.195590 0
M  V30 31 H -2.023095 1.578819 -1.545986 0
M  V30 32 H -0.713578 2.711051 -1.178911 0
M  V30 33 H 1.972676 2.077372 -0.042240 0
M  V30 34 H 0.360346 3.354709 1.732587 0
M  V30 35 H 3.967720 1.490745 1.285955 0
M  V30 36 H 4.997841 1.241960 3.572948 0
M  V30 37 H 3.550952 1.302467 5.597420 0
M  V30 38 H 1.181123 1.598178 5.350089 0
M  V30 39 H 0.173776 1.837694 3.181846 0
M  V30 40 H -1.313302 -2.909874 -1.844923 0
M  V30 41 H -0.201950 -4.335247 -1.409685 0
M  V30 42 H -0.198357 -2.780736 -4.057526 0
M  V30 43 H 0.755378 -4.270685 -3.639925 0
M  V30 44 H -1.017027 -4.331149 -3.796115 0
M  V30 END ATOM
M  V30 BEGIN BOND
M  V30 1 1 1 2
M  V30 2 1 2 3
M  V30 3 1 3 4
M  V30 4 2 4 5
M  V30 5 1 4 6
M  V30 6 1 6 7
M  V30 7 1 7 8
M  V30 8 1 8 9
M  V30 9 2 8 10
M  V30 10 1 7 11
M  V30 11 1 11 12
M  V30 12 1 11 13
M  V30 13 2 13 14
M  V30 14 1 14 15
M  V30 15 2 15 16
M  V30 16 1 16 17
M  V30 17 2 17 18
M  V30 18 1 4 19
M  V30 19 1 19 20
M  V30 20 1 20 21
M  V30 21 1 18 13
M  V30 22 1 1 22
M  V30 23 1 1 23
M  V30 24 1 1 24
M  V30 25 1 2 25
M  V30 26 1 2 26
M  V30 27 1 6 27
M  V30 28 1 6 28
M  V30 29 1 7 29
M  V30 30 1 9 30
M  V30 31 1 9 31
M  V30 32 1 9 32
M  V30 33 1 11 33
M  V30 34 1 12 34
M  V30 35 1 14 35
M  V30 36 1 15 36
M  V30 37 1 16 37
M  V30 38 1 17 38
M  V30 39 1 18 39
M  V30 40 1 20 40
M  V30 41 1 20 41
M  V30 42 1 21 42
M  V30 43 1 21 43
M  V30 44 1 21 44
M  V30 END BOND
M  V30 END CTAB
M  END
>  <Dataset>  (65) 
ChEMBL_Kinases

>  <Ligand_Instance>  (65) 
nan

>  <PDB_ID>  (65) 
nan

>  <Standardized_SMILES>  (65) 
CCOP(=O)(CC(C(C)=O)C(O)c1ccccc1)OCC

>  <Name>  (65) 
nan

>  <Pocket>  (65) 
nan

>  <ATP_Site>  (65) 
nan

>  <Peripheral>  (65) 
nan

>  <Num_H_Atoms_ProtBoundConf>  (65) 
nan

>  <Num_Resolved_Atoms>  (65) 
nan

>  <Num_Not_Resolved_Atoms>  (65) 
nan

$$$$
CHEMBL1478458
     RDKit          3D

  0  0  0  0  0  0  0  0  0  0999 V3000
M  V30 BEGIN CTAB
M  V30 COUNTS 34 36 0 0 0
M  V30 BEGIN ATOM
M  V30 1 C -3.968756 -0.760718 2.326785 0
M  V30 2 C -2.677564 -1.385936 2.832391 0
M  V30 3 C -1.503545 -0.604673 2.383831 0
M  V30 4 C -0.689079 -1.030879 1.357668 0
M  V30 5 C 0.398657 -0.287804 0.956581 0
M  V30 6 C 1.147930 -0.823789 -0.093945 0
M  V30 7 C 2.226936 -0.031087 -0.450123 0
M  V30 8 C 2.538957 1.164751 0.161198 0
M  V30 9 O 3.544589 1.797794 -0.249351 0
M  V30 10 O 1.767505 1.589797 1.149120 0
M  V30 11 C 0.724968 0.907952 1.555451 0
M  V30 12 C -0.096260 1.326099 2.581869 0
M  V30 13 C -1.196025 0.600580 3.006106 0
M  V30 14 O -1.997075 1.067232 4.051186 0
M  V30 15 C 3.045775 -0.597537 -1.584290 0
M  V30 16 C 2.030175 -0.811319 -2.684148 0
M  V30 17 C 1.058284 -1.876009 -2.329129 0
M  V30 18 C 0.925572 -2.070723 -0.817663 0
M  V30 19 H -4.802954 -1.502834 2.374388 0
M  V30 20 H -3.852688 -0.446049 1.261189 0
M  V30 21 H -4.206205 0.081374 3.004334 0
M  V30 22 H -2.739751 -1.520817 3.917792 0
M  V30 23 H -2.633181 -2.394620 2.353198 0
M  V30 24 H -0.966455 -1.958774 0.918020 0
M  V30 25 H 0.167270 2.266572 3.046643 0
M  V30 26 H -2.667024 1.788576 3.830609 0
M  V30 27 H 3.516073 -1.557807 -1.248851 0
M  V30 28 H 3.804924 0.140312 -1.901002 0
M  V30 29 H 1.472332 0.164160 -2.763421 0
M  V30 30 H 2.501244 -1.004025 -3.663668 0
M  V30 31 H 1.295987 -2.860343 -2.814651 0
M  V30 32 H 0.062589 -1.598240 -2.766473 0
M  V30 33 H -0.029881 -2.567443 -0.697231 0
M  V30 34 H 1.795070 -2.747257 -0.546170 0
M  V30 END ATOM
M  V30 BEGIN BOND
M  V30 1 1 1 2
M  V30 2 1 2 3
M  V30 3 2 3 4
M  V30 4 1 4 5
M  V30 5 1 5 6
M  V30 6 2 6 7
M  V30 7 1 7 8
M  V30 8 2 8 9
M  V30 9 1 8 10
M  V30 10 1 10 11
M  V30 11 1 11 12
M  V30 12 2 12 13
M  V30 13 1 13 14
M  V30 14 1 7 15
M  V30 15 1 15 16
M  V30 16 1 16 17
M  V30 17 1 17 18
M  V30 18 1 13 3
M  V30 19 2 11 5
M  V30 20 1 18 6
M  V30 21 1 1 19
M  V30 22 1 1 20
M  V30 23 1 1 21
M  V30 24 1 2 22
M  V30 25 1 2 23
M  V30 26 1 4 24
M  V30 27 1 12 25
M  V30 28 1 14 26
M  V30 29 1 15 27
M  V30 30 1 15 28
M  V30 31 1 16 29
M  V30 32 1 16 30
M  V30 33 1 17 31
M  V30 34 1 17 32
M  V30 35 1 18 33
M  V30 36 1 18 34
M  V30 END BOND
M  V30 END CTAB
M  END
>  <Dataset>  (66) 
ChEMBL_Kinases

>  <Ligand_Instance>  (66) 
nan

>  <PDB_ID>  (66) 
nan

>  <Standardized_SMILES>  (66) 
CCc1cc2c3c(c(=O)oc2cc1O)CCCC3

>  <Name>  (66) 
nan

>  <Pocket>  (66) 
nan

>  <ATP_Site>  (66) 
nan

>  <Peripheral>  (66) 
nan

>  <Num_H_Atoms_ProtBoundConf>  (66) 
nan

>  <Num_Resolved_Atoms>  (66) 
nan

>  <Num_Not_Resolved_Atoms>  (66) 
nan

$$$$
CHEMBL1478249
     RDKit          3D

  0  0  0  0  0  0  0  0  0  0999 V3000
M  V30 BEGIN CTAB
M  V30 COUNTS 35 37 0 0 0
M  V30 BEGIN ATOM
M  V30 1 Cl 2.565081 -1.464058 7.327904 0
M  V30 2 C 2.417172 -1.011990 5.622761 0
M  V30 3 C 3.153324 -1.620959 4.628136 0
M  V30 4 C 3.018369 -1.248443 3.303096 0
M  V30 5 C 2.129265 -0.241622 2.936611 0
M  V30 6 C 2.089437 0.048797 1.502689 0
M  V30 7 N 2.848514 0.822598 0.702833 0
M  V30 8 O 2.416025 0.758730 -0.522330 0
M  V30 9 C 1.378057 -0.043888 -0.567693 0
M  V30 10 C 0.493207 -0.483418 -1.697303 0
M  V30 11 N -0.635299 0.346878 -1.912284 0
M  V30 12 C -1.499185 -0.047415 -2.984299 0
M  V30 13 C -2.205855 -1.318291 -2.639156 0
M  V30 14 C -2.629357 -1.365387 -1.215831 0
M  V30 15 C -2.597573 -0.053243 -0.485725 0
M  V30 16 C -1.367018 0.761156 -0.763170 0
M  V30 17 N 1.151413 -0.504319 0.693860 0
M  V30 18 C 1.386938 0.375171 3.923888 0
M  V30 19 C 1.538993 -0.014145 5.241171 0
M  V30 20 H 3.854181 -2.415712 4.923393 0
M  V30 21 H 3.632464 -1.771466 2.560197 0
M  V30 22 H 0.180711 -1.539834 -1.554601 0
M  V30 23 H 1.133700 -0.466334 -2.602053 0
M  V30 24 H -2.282438 0.755598 -3.076306 0
M  V30 25 H -0.987376 -0.115968 -3.960557 0
M  V30 26 H -3.120442 -1.466455 -3.284459 0
M  V30 27 H -1.556842 -2.190902 -2.921732 0
M  V30 28 H -1.998972 -2.131166 -0.686775 0
M  V30 29 H -3.665218 -1.755453 -1.115243 0
M  V30 30 H -2.592849 -0.313395 0.595517 0
M  V30 31 H -3.541507 0.503965 -0.675076 0
M  V30 32 H -0.719314 0.856593 0.132645 0
M  V30 33 H -1.723491 1.814744 -0.958048 0
M  V30 34 H 0.710498 1.151957 3.582850 0
M  V30 35 H 0.919548 0.516223 5.974382 0
M  V30 END ATOM
M  V30 BEGIN BOND
M  V30 1 1 1 2
M  V30 2 2 2 3
M  V30 3 1 3 4
M  V30 4 2 4 5
M  V30 5 1 5 6
M  V30 6 2 6 7
M  V30 7 1 7 8
M  V30 8 1 8 9
M  V30 9 1 9 10
M  V30 10 1 10 11
M  V30 11 1 11 12
M  V30 12 1 12 13
M  V30 13 1 13 14
M  V30 14 1 14 15
M  V30 15 1 15 16
M  V30 16 2 9 17
M  V30 17 1 5 18
M  V30 18 2 18 19
M  V30 19 1 19 2
M  V30 20 1 17 6
M  V30 21 1 16 11
M  V30 22 1 3 20
M  V30 23 1 4 21
M  V30 24 1 10 22
M  V30 25 1 10 23
M  V30 26 1 12 24
M  V30 27 1 12 25
M  V30 28 1 13 26
M  V30 29 1 13 27
M  V30 30 1 14 28
M  V30 31 1 14 29
M  V30 32 1 15 30
M  V30 33 1 15 31
M  V30 34 1 16 32
M  V30 35 1 16 33
M  V30 36 1 18 34
M  V30 37 1 19 35
M  V30 END BOND
M  V30 END CTAB
M  END
>  <Dataset>  (67) 
ChEMBL_Kinases

>  <Ligand_Instance>  (67) 
nan

>  <PDB_ID>  (67) 
nan

>  <Standardized_SMILES>  (67) 
Clc1ccc(-c2noc(CN3CCCCC3)n2)cc1

>  <Name>  (67) 
nan

>  <Pocket>  (67) 
nan

>  <ATP_Site>  (67) 
nan

>  <Peripheral>  (67) 
nan

>  <Num_H_Atoms_ProtBoundConf>  (67) 
nan

>  <Num_Resolved_Atoms>  (67) 
nan

>  <Num_Not_Resolved_Atoms>  (67) 
nan

$$$$
CHEMBL1478226
     RDKit          3D

  0  0  0  0  0  0  0  0  0  0999 V3000
M  V30 BEGIN CTAB
M  V30 COUNTS 35 38 0 0 0
M  V30 BEGIN ATOM
M  V30 1 O -0.087367 -1.899293 -0.154296 0
M  V30 2 C 0.182060 -0.846445 0.490501 0
M  V30 3 C 1.403249 -0.681250 1.112704 0
M  V30 4 C 2.428470 -1.724665 1.044787 0
M  V30 5 C 2.112933 -3.055896 1.244670 0
M  V30 6 C 3.092155 -4.035785 1.177973 0
M  V30 7 F 2.753775 -5.333333 1.378249 0
M  V30 8 C 4.398460 -3.643709 0.904940 0
M  V30 9 C 4.759910 -2.326275 0.698447 0
M  V30 10 F 6.049996 -1.976549 0.432870 0
M  V30 11 C 3.755750 -1.370360 0.772145 0
M  V30 12 N 1.648843 0.472928 1.797568 0
M  V30 13 C 0.683857 1.435099 1.851535 0
M  V30 14 C 1.014601 2.572861 2.565834 0
M  V30 15 N 0.078237 3.562814 2.646322 0
M  V30 16 C -1.102946 3.347726 2.016891 0
M  V30 17 N -1.472188 2.265197 1.313155 0
M  V30 18 C -0.550127 1.268787 1.223122 0
M  V30 19 N -0.767946 0.105378 0.545921 0
M  V30 20 C -2.048650 0.009668 -0.067887 0
M  V30 21 C -3.304686 0.172186 0.476731 0
M  V30 22 C -4.410980 0.027133 -0.332579 0
M  V30 23 C -4.305482 -0.276315 -1.674464 0
M  V30 24 C -3.047736 -0.440783 -2.227550 0
M  V30 25 C -1.937071 -0.297691 -1.426394 0
M  V30 26 H 1.072181 -3.318812 1.456846 0
M  V30 27 H 5.135356 -4.439985 0.861120 0
M  V30 28 H 4.061964 -0.351930 0.607787 0
M  V30 29 H 1.977702 2.678735 3.044346 0
M  V30 30 H -1.809850 4.169135 2.114636 0
M  V30 31 H -3.274691 0.405410 1.524290 0
M  V30 32 H -5.367916 0.165673 0.148167 0
M  V30 33 H -5.199288 -0.382529 -2.279212 0
M  V30 34 H -3.018196 -0.677225 -3.280672 0
M  V30 35 H -1.010217 -0.451356 -1.979213 0
M  V30 END ATOM
M  V30 BEGIN BOND
M  V30 1 2 1 2
M  V30 2 1 2 3
M  V30 3 1 3 4
M  V30 4 2 4 5
M  V30 5 1 5 6
M  V30 6 1 6 7
M  V30 7 2 6 8
M  V30 8 1 8 9
M  V30 9 1 9 10
M  V30 10 2 9 11
M  V30 11 2 3 12
M  V30 12 1 12 13
M  V30 13 2 13 14
M  V30 14 1 14 15
M  V30 15 2 15 16
M  V30 16 1 16 17
M  V30 17 2 17 18
M  V30 18 1 18 19
M  V30 19 1 19 20
M  V30 20 2 20 21
M  V30 21 1 21 22
M  V30 22 2 22 23
M  V30 23 1 23 24
M  V30 24 2 24 25
M  V30 25 1 19 2
M  V30 26 1 25 20
M  V30 27 1 11 4
M  V30 28 1 18 13
M  V30 29 1 5 26
M  V30 30 1 8 27
M  V30 31 1 11 28
M  V30 32 1 14 29
M  V30 33 1 16 30
M  V30 34 1 21 31
M  V30 35 1 22 32
M  V30 36 1 23 33
M  V30 37 1 24 34
M  V30 38 1 25 35
M  V30 END BOND
M  V30 END CTAB
M  END
>  <Dataset>  (68) 
ChEMBL_Kinases

>  <Ligand_Instance>  (68) 
nan

>  <PDB_ID>  (68) 
nan

>  <Standardized_SMILES>  (68) 
O=c1c(-c2cc(F)cc(F)c2)nc2cncnc2n1-c1ccccc1

>  <Name>  (68) 
nan

>  <Pocket>  (68) 
nan

>  <ATP_Site>  (68) 
nan

>  <Peripheral>  (68) 
nan

>  <Num_H_Atoms_ProtBoundConf>  (68) 
nan

>  <Num_Resolved_Atoms>  (68) 
nan

>  <Num_Not_Resolved_Atoms>  (68) 
nan

$$$$
CHEMBL1478187
     RDKit          3D

  0  0  0  0  0  0  0  0  0  0999 V3000
M  V30 BEGIN CTAB
M  V30 COUNTS 44 46 0 0 0
M  V30 BEGIN ATOM
M  V30 1 N -1.046134 2.692524 2.478159 0
M  V30 2 C -0.905776 1.668471 1.528570 0
M  V30 3 C -1.965946 1.416066 0.693907 0
M  V30 4 C -1.952070 0.439997 -0.277020 0
M  V30 5 C -0.838502 -0.348444 -0.456544 0
M  V30 6 N -0.723311 -1.381392 -1.426848 0
M  V30 7 C 0.406196 -2.243507 -1.709965 0
M  V30 8 C 0.153164 -3.659777 -1.240402 0
M  V30 9 C -1.328968 -3.966781 -1.176506 0
M  V30 10 C -2.035143 -3.275499 -2.321832 0
M  V30 11 C -1.760724 -1.784822 -2.353876 0
M  V30 12 C 0.241706 -0.119097 0.366025 0
M  V30 13 C 0.217398 0.864769 1.339035 0
M  V30 14 N 1.303760 1.148312 2.219361 0
M  V30 15 C 1.196360 1.050450 3.653484 0
M  V30 16 C 2.595760 1.163035 4.232676 0
M  V30 17 C 3.435576 0.140203 3.501484 0
M  V30 18 C 3.655540 0.514679 2.066446 0
M  V30 19 C 2.604349 1.559383 1.713240 0
M  V30 20 H -0.673258 3.673496 2.476627 0
M  V30 21 H -1.638488 2.243757 3.236382 0
M  V30 22 H -2.887595 2.004687 0.778396 0
M  V30 23 H -2.816062 0.286220 -0.905297 0
M  V30 24 H 0.697471 -2.207434 -2.798450 0
M  V30 25 H 1.320979 -1.909784 -1.180703 0
M  V30 26 H 0.602233 -4.362527 -1.970861 0
M  V30 27 H 0.601414 -3.850336 -0.244133 0
M  V30 28 H -1.782828 -3.737425 -0.189307 0
M  V30 29 H -1.441059 -5.058632 -1.335215 0
M  V30 30 H -3.124344 -3.462462 -2.250428 0
M  V30 31 H -1.676371 -3.765543 -3.249656 0
M  V30 32 H -1.376546 -1.540048 -3.389143 0
M  V30 33 H -2.687635 -1.192154 -2.266334 0
M  V30 34 H 1.172410 -0.628775 0.366534 0
M  V30 35 H 0.596114 1.889277 4.060145 0
M  V30 36 H 0.829214 0.051948 4.008028 0
M  V30 37 H 2.565997 0.835919 5.291743 0
M  V30 38 H 2.999108 2.190599 4.188798 0
M  V30 39 H 4.404452 -0.057593 3.969010 0
M  V30 40 H 2.806108 -0.791775 3.481294 0
M  V30 41 H 3.480189 -0.331996 1.363873 0
M  V30 42 H 4.654643 0.932604 1.857059 0
M  V30 43 H 2.640588 1.670492 0.617836 0
M  V30 44 H 2.877916 2.568097 2.131993 0
M  V30 END ATOM
M  V30 BEGIN BOND
M  V30 1 1 1 2
M  V30 2 2 2 3
M  V30 3 1 3 4
M  V30 4 2 4 5
M  V30 5 1 5 6
M  V30 6 1 6 7
M  V30 7 1 7 8
M  V30 8 1 8 9
M  V30 9 1 9 10
M  V30 10 1 10 11
M  V30 11 1 5 12
M  V30 12 2 12 13
M  V30 13 1 13 14
M  V30 14 1 14 15
M  V30 15 1 15 16
M  V30 16 1 16 17
M  V30 17 1 17 18
M  V30 18 1 18 19
M  V30 19 1 13 2
M  V30 20 1 19 14
M  V30 21 1 11 6
M  V30 22 1 1 20
M  V30 23 1 1 21
M  V30 24 1 3 22
M  V30 25 1 4 23
M  V30 26 1 7 24
M  V30 27 1 7 25
M  V30 28 1 8 26
M  V30 29 1 8 27
M  V30 30 1 9 28
M  V30 31 1 9 29
M  V30 32 1 10 30
M  V30 33 1 10 31
M  V30 34 1 11 32
M  V30 35 1 11 33
M  V30 36 1 12 34
M  V30 37 1 15 35
M  V30 38 1 15 36
M  V30 39 1 16 37
M  V30 40 1 16 38
M  V30 41 1 17 39
M  V30 42 1 17 40
M  V30 43 1 18 41
M  V30 44 1 18 42
M  V30 45 1 19 43
M  V30 46 1 19 44
M  V30 END BOND
M  V30 END CTAB
M  END
>  <Dataset>  (69) 
ChEMBL_Kinases

>  <Ligand_Instance>  (69) 
nan

>  <PDB_ID>  (69) 
nan

>  <Standardized_SMILES>  (69) 
Nc1ccc(N2CCCCC2)cc1N1CCCCC1

>  <Name>  (69) 
nan

>  <Pocket>  (69) 
nan

>  <ATP_Site>  (69) 
nan

>  <Peripheral>  (69) 
nan

>  <Num_H_Atoms_ProtBoundConf>  (69) 
nan

>  <Num_Resolved_Atoms>  (69) 
nan

>  <Num_Not_Resolved_Atoms>  (69) 
nan

$$$$
CHEMBL1478074
     RDKit          3D

  0  0  0  0  0  0  0  0  0  0999 V3000
M  V30 BEGIN CTAB
M  V30 COUNTS 41 44 0 0 0
M  V30 BEGIN ATOM
M  V30 1 C 0.484432 -7.018008 2.971479 0
M  V30 2 O 0.772730 -5.673245 3.326172 0
M  V30 3 C 0.439177 -4.682844 2.412658 0
M  V30 4 C -0.150361 -5.047576 1.216262 0
M  V30 5 C -0.513867 -4.130409 0.252717 0
M  V30 6 C -0.262271 -2.810679 0.533036 0
M  V30 7 C -0.571007 -1.671054 -0.356787 0
M  V30 8 N -0.484964 -0.494595 -0.405002 0
M  V30 9 N -0.892506 0.223494 -1.424063 0
M  V30 10 C -0.841021 1.560867 -1.578623 0
M  V30 11 C -0.379960 2.719950 -0.816861 0
M  V30 12 C -1.237318 3.599263 -0.169778 0
M  V30 13 C -0.724964 4.672746 0.530791 0
M  V30 14 C 0.647065 4.913913 0.616117 0
M  V30 15 C 1.491448 4.034435 -0.030298 0
M  V30 16 C 2.974621 4.285413 0.055471 0
M  V30 17 C 0.977032 2.957151 -0.733348 0
M  V30 18 N -1.379931 1.804717 -2.786241 0
M  V30 19 N -1.760594 0.692911 -3.384493 0
M  V30 20 C -1.452415 -0.327546 -2.519203 0
M  V30 21 S -1.379762 -2.113619 -2.008676 0
M  V30 22 C 0.312912 -2.396421 1.688743 0
M  V30 23 C 0.671479 -3.349475 2.648805 0
M  V30 24 O 1.264304 -3.025814 3.860402 0
M  V30 25 C 1.520286 -1.658142 4.140684 0
M  V30 26 H -0.618624 -7.188066 2.903891 0
M  V30 27 H 0.960745 -7.303772 2.002124 0
M  V30 28 H 0.827540 -7.724641 3.755321 0
M  V30 29 H -0.364931 -6.094939 0.961795 0
M  V30 30 H -0.974724 -4.354202 -0.694528 0
M  V30 31 H -2.302246 3.422945 -0.228683 0
M  V30 32 H -1.434128 5.332581 1.020177 0
M  V30 33 H 0.997574 5.774059 1.180926 0
M  V30 34 H 3.316309 4.101923 1.091704 0
M  V30 35 H 3.194042 5.328088 -0.245456 0
M  V30 36 H 3.500328 3.523625 -0.563884 0
M  V30 37 H 1.676151 2.287101 -1.229002 0
M  V30 38 H 0.534425 -1.397157 1.967683 0
M  V30 39 H 2.085864 -1.223206 3.283151 0
M  V30 40 H 0.544951 -1.118084 4.232102 0
M  V30 41 H 2.085014 -1.527738 5.077794 0
M  V30 END ATOM
M  V30 BEGIN BOND
M  V30 1 1 1 2
M  V30 2 1 2 3
M  V30 3 2 3 4
M  V30 4 1 4 5
M  V30 5 2 5 6
M  V30 6 1 6 7
M  V30 7 2 7 8
M  V30 8 1 8 9
M  V30 9 1 9 10
M  V30 10 1 10 11
M  V30 11 2 11 12
M  V30 12 1 12 13
M  V30 13 2 13 14
M  V30 14 1 14 15
M  V30 15 1 15 16
M  V30 16 2 15 17
M  V30 17 2 10 18
M  V30 18 1 18 19
M  V30 19 2 19 20
M  V30 20 1 20 21
M  V30 21 1 6 22
M  V30 22 2 22 23
M  V30 23 1 23 24
M  V30 24 1 24 25
M  V30 25 1 23 3
M  V30 26 1 21 7
M  V30 27 1 20 9
M  V30 28 1 17 11
M  V30 29 1 1 26
M  V30 30 1 1 27
M  V30 31 1 1 28
M  V30 32 1 4 29
M  V30 33 1 5 30
M  V30 34 1 12 31
M  V30 35 1 13 32
M  V30 36 1 14 33
M  V30 37 1 16 34
M  V30 38 1 16 35
M  V30 39 1 16 36
M  V30 40 1 17 37
M  V30 41 1 22 38
M  V30 42 1 25 39
M  V30 43 1 25 40
M  V30 44 1 25 41
M  V30 END BOND
M  V30 END CTAB
M  END
>  <Dataset>  (70) 
ChEMBL_Kinases

>  <Ligand_Instance>  (70) 
nan

>  <PDB_ID>  (70) 
nan

>  <Standardized_SMILES>  (70) 
COc1ccc(-c2nn3c(-c4cccc(C)c4)nnc3s2)cc1OC

>  <Name>  (70) 
nan

>  <Pocket>  (70) 
nan

>  <ATP_Site>  (70) 
nan

>  <Peripheral>  (70) 
nan

>  <Num_H_Atoms_ProtBoundConf>  (70) 
nan

>  <Num_Resolved_Atoms>  (70) 
nan

>  <Num_Not_Resolved_Atoms>  (70) 
nan

$$$$
CHEMBL1478023
     RDKit          3D

  0  0  0  0  0  0  0  0  0  0999 V3000
M  V30 BEGIN CTAB
M  V30 COUNTS 29 31 0 0 0
M  V30 BEGIN ATOM
M  V30 1 O -1.990402 -2.473646 2.811375 0
M  V30 2 C -0.829827 -2.352028 2.407157 0
M  V30 3 C -0.420866 -1.224000 1.596082 0
M  V30 4 C -1.110714 -0.193097 1.156633 0
M  V30 5 C -0.701145 0.943128 0.343443 0
M  V30 6 C 0.408506 1.785762 0.520371 0
M  V30 7 C 0.638178 2.799300 -0.378905 0
M  V30 8 C -0.181432 3.051825 -1.492672 0
M  V30 9 O 0.083253 4.085929 -2.387361 0
M  V30 10 C -1.279757 2.200597 -1.653514 0
M  V30 11 O -2.166597 2.352823 -2.730805 0
M  V30 12 C -1.536726 1.176103 -0.763016 0
M  V30 13 O 0.938811 -1.307621 1.256568 0
M  V30 14 C 1.454143 -2.488423 1.835099 0
M  V30 15 C 2.679074 -3.118336 1.867837 0
M  V30 16 C 2.858328 -4.301364 2.540420 0
M  V30 17 C 1.824251 -4.925410 3.222260 0
M  V30 18 C 0.581967 -4.318108 3.207748 0
M  V30 19 C 0.416516 -3.127204 2.524825 0
M  V30 20 H -2.165391 -0.213577 1.458763 0
M  V30 21 H 1.005772 1.550702 1.376105 0
M  V30 22 H 1.523331 3.435272 -0.196078 0
M  V30 23 H 0.976620 4.331192 -2.717326 0
M  V30 24 H -1.905127 1.817104 -3.576595 0
M  V30 25 H -2.414109 0.534627 -0.952853 0
M  V30 26 H 3.520973 -2.642786 1.329394 0
M  V30 27 H 3.829880 -4.772121 2.543532 0
M  V30 28 H 1.915892 -5.865445 3.766204 0
M  V30 29 H -0.230504 -4.793597 3.734003 0
M  V30 END ATOM
M  V30 BEGIN BOND
M  V30 1 2 1 2
M  V30 2 1 2 3
M  V30 3 2 3 4
M  V30 4 1 4 5
M  V30 5 2 5 6
M  V30 6 1 6 7
M  V30 7 2 7 8
M  V30 8 1 8 9
M  V30 9 1 8 10
M  V30 10 1 10 11
M  V30 11 2 10 12
M  V30 12 1 3 13
M  V30 13 1 13 14
M  V30 14 2 14 15
M  V30 15 1 15 16
M  V30 16 2 16 17
M  V30 17 1 17 18
M  V30 18 2 18 19
M  V30 19 1 19 2
M  V30 20 1 12 5
M  V30 21 1 19 14
M  V30 22 1 4 20
M  V30 23 1 6 21
M  V30 24 1 7 22
M  V30 25 1 9 23
M  V30 26 1 11 24
M  V30 27 1 12 25
M  V30 28 1 15 26
M  V30 29 1 16 27
M  V30 30 1 17 28
M  V30 31 1 18 29
M  V30 END BOND
M  V30 END CTAB
M  END
>  <Dataset>  (71) 
ChEMBL_Kinases

>  <Ligand_Instance>  (71) 
nan

>  <PDB_ID>  (71) 
nan

>  <Standardized_SMILES>  (71) 
O=C1/C(=C/c2ccc(O)c(O)c2)Oc2ccccc21

>  <Name>  (71) 
nan

>  <Pocket>  (71) 
nan

>  <ATP_Site>  (71) 
nan

>  <Peripheral>  (71) 
nan

>  <Num_H_Atoms_ProtBoundConf>  (71) 
nan

>  <Num_Resolved_Atoms>  (71) 
nan

>  <Num_Not_Resolved_Atoms>  (71) 
nan

$$$$
CHEMBL1477982
     RDKit          3D

  0  0  0  0  0  0  0  0  0  0999 V3000
M  V30 BEGIN CTAB
M  V30 COUNTS 35 37 0 0 0
M  V30 BEGIN ATOM
M  V30 1 C -1.226582 -1.468762 4.150961 0
M  V30 2 C -0.196852 -1.707018 3.113828 0
M  V30 3 C -0.476325 -2.013077 1.798922 0
M  V30 4 N 0.469722 -2.231658 0.868957 0
M  V30 5 C 1.760108 -2.152755 1.215056 0
M  V30 6 C 2.802333 -2.406220 0.194672 0
M  V30 7 N 3.096290 -1.173765 -0.510968 0
M  V30 8 C 1.806696 -0.840592 -1.044778 0
M  V30 9 C 1.390111 -1.540541 -2.154073 0
M  V30 10 C 0.146339 -1.294253 -2.756529 0
M  V30 11 N -0.626534 -0.335367 -2.196770 0
M  V30 12 C -0.224898 0.354428 -1.111247 0
M  V30 13 C -1.080669 1.386482 -0.504768 0
M  V30 14 C -0.650238 2.088240 0.582510 0
M  V30 15 C -1.501014 3.038098 1.111194 0
M  V30 16 C -2.722118 3.223862 0.520229 0
M  V30 17 N -3.155618 2.527797 -0.563231 0
M  V30 18 C -2.331634 1.597013 -1.087628 0
M  V30 19 N 0.983447 0.096463 -0.546742 0
M  V30 20 C 2.038732 -1.849573 2.516508 0
M  V30 21 N 1.122331 -1.623459 3.482510 0
M  V30 22 H -2.212397 -1.798469 3.728073 0
M  V30 23 H -0.992594 -2.135324 5.014542 0
M  V30 24 H -1.191045 -0.399866 4.409430 0
M  V30 25 H -1.556707 -2.054669 1.617108 0
M  V30 26 H 3.735969 -2.787856 0.707113 0
M  V30 27 H 2.474515 -3.182315 -0.540200 0
M  V30 28 H 4.028161 -0.701743 -0.575953 0
M  V30 29 H 2.036507 -2.315746 -2.587784 0
M  V30 30 H -0.100773 -1.891608 -3.621933 0
M  V30 31 H 0.333461 1.898930 1.004770 0
M  V30 32 H -1.178997 3.610123 1.978912 0
M  V30 33 H -3.330702 3.979762 0.987703 0
M  V30 34 H -2.656687 1.018187 -1.964030 0
M  V30 35 H 3.081822 -1.786203 2.792922 0
M  V30 END ATOM
M  V30 BEGIN BOND
M  V30 1 1 1 2
M  V30 2 2 2 3
M  V30 3 1 3 4
M  V30 4 2 4 5
M  V30 5 1 5 6
M  V30 6 1 6 7
M  V30 7 1 7 8
M  V30 8 2 8 9
M  V30 9 1 9 10
M  V30 10 2 10 11
M  V30 11 1 11 12
M  V30 12 1 12 13
M  V30 13 2 13 14
M  V30 14 1 14 15
M  V30 15 2 15 16
M  V30 16 1 16 17
M  V30 17 2 17 18
M  V30 18 2 12 19
M  V30 19 1 5 20
M  V30 20 2 20 21
M  V30 21 1 21 2
M  V30 22 1 19 8
M  V30 23 1 18 13
M  V30 24 1 1 22
M  V30 25 1 1 23
M  V30 26 1 1 24
M  V30 27 1 3 25
M  V30 28 1 6 26
M  V30 29 1 6 27
M  V30 30 1 7 28
M  V30 31 1 9 29
M  V30 32 1 10 30
M  V30 33 1 14 31
M  V30 34 1 15 32
M  V30 35 1 16 33
M  V30 36 1 18 34
M  V30 37 1 20 35
M  V30 END BOND
M  V30 END CTAB
M  END
>  <Dataset>  (72) 
ChEMBL_Kinases

>  <Ligand_Instance>  (72) 
nan

>  <PDB_ID>  (72) 
nan

>  <Standardized_SMILES>  (72) 
Cc1cnc(CNc2ccnc(-c3cccnc3)n2)cn1

>  <Name>  (72) 
nan

>  <Pocket>  (72) 
nan

>  <ATP_Site>  (72) 
nan

>  <Peripheral>  (72) 
nan

>  <Num_H_Atoms_ProtBoundConf>  (72) 
nan

>  <Num_Resolved_Atoms>  (72) 
nan

>  <Num_Not_Resolved_Atoms>  (72) 
nan

$$$$
CHEMBL1477714
     RDKit          3D

  0  0  0  0  0  0  0  0  0  0999 V3000
M  V30 BEGIN CTAB
M  V30 COUNTS 34 35 0 0 0
M  V30 BEGIN ATOM
M  V30 1 C -3.435904 -1.796902 2.451924 0
M  V30 2 C -2.459285 -2.626401 1.645472 0
M  V30 3 C -1.147915 -1.975544 1.528699 0
M  V30 4 N -0.140016 -2.448154 2.320820 0
M  V30 5 C 1.098652 -1.932570 2.303366 0
M  V30 6 N 2.095195 -2.471843 3.151500 0
M  V30 7 C 1.340772 -0.882879 1.442248 0
M  V30 8 C 2.666475 -0.350334 1.476412 0
M  V30 9 N 3.737897 0.092351 1.520950 0
M  V30 10 C 0.413072 -0.324349 0.600385 0
M  V30 11 C 0.669538 0.760047 -0.328908 0
M  V30 12 C -0.080158 1.919896 -0.443841 0
M  V30 13 C 0.406782 2.745267 -1.439530 0
M  V30 14 C 1.490799 2.067096 -1.950950 0
M  V30 15 N 1.607688 0.917672 -1.276844 0
M  V30 16 C 2.663756 -0.013652 -1.620307 0
M  V30 17 C -0.845499 -0.925866 0.688861 0
M  V30 18 C -1.947452 -0.440662 -0.160426 0
M  V30 19 H -3.551884 -0.810334 1.981584 0
M  V30 20 H -4.387766 -2.303419 2.620954 0
M  V30 21 H -2.917821 -1.615234 3.436624 0
M  V30 22 H -2.366229 -3.592628 2.198206 0
M  V30 23 H -2.896006 -2.903643 0.661454 0
M  V30 24 H 2.626525 -3.048799 2.466223 0
M  V30 25 H 2.091599 -2.209437 4.172091 0
M  V30 26 H -0.957788 2.254259 0.119369 0
M  V30 27 H 0.048784 3.708425 -1.771627 0
M  V30 28 H 2.094404 2.461137 -2.758606 0
M  V30 29 H 2.376016 -1.047873 -1.291751 0
M  V30 30 H 3.645355 0.259712 -1.238198 0
M  V30 31 H 2.670903 -0.114177 -2.750271 0
M  V30 32 H -2.464406 0.419946 0.259712 0
M  V30 33 H -1.455121 -0.114792 -1.123191 0
M  V30 34 H -2.692571 -1.199800 -0.434162 0
M  V30 END ATOM
M  V30 BEGIN BOND
M  V30 1 1 1 2
M  V30 2 1 2 3
M  V30 3 2 3 4
M  V30 4 1 4 5
M  V30 5 1 5 6
M  V30 6 2 5 7
M  V30 7 1 7 8
M  V30 8 3 8 9
M  V30 9 1 7 10
M  V30 10 1 10 11
M  V30 11 2 11 12
M  V30 12 1 12 13
M  V30 13 2 13 14
M  V30 14 1 14 15
M  V30 15 1 15 16
M  V30 16 2 10 17
M  V30 17 1 17 18
M  V30 18 1 17 3
M  V30 19 1 15 11
M  V30 20 1 1 19
M  V30 21 1 1 20
M  V30 22 1 1 21
M  V30 23 1 2 22
M  V30 24 1 2 23
M  V30 25 1 6 24
M  V30 26 1 6 25
M  V30 27 1 12 26
M  V30 28 1 13 27
M  V30 29 1 14 28
M  V30 30 1 16 29
M  V30 31 1 16 30
M  V30 32 1 16 31
M  V30 33 1 18 32
M  V30 34 1 18 33
M  V30 35 1 18 34
M  V30 END BOND
M  V30 END CTAB
M  END
>  <Dataset>  (73) 
ChEMBL_Kinases

>  <Ligand_Instance>  (73) 
nan

>  <PDB_ID>  (73) 
nan

>  <Standardized_SMILES>  (73) 
CCc1nc(N)c(C#N)c(-c2cccn2C)c1C

>  <Name>  (73) 
nan

>  <Pocket>  (73) 
nan

>  <ATP_Site>  (73) 
nan

>  <Peripheral>  (73) 
nan

>  <Num_H_Atoms_ProtBoundConf>  (73) 
nan

>  <Num_Resolved_Atoms>  (73) 
nan

>  <Num_Not_Resolved_Atoms>  (73) 
nan

$$$$
CHEMBL1477411
     RDKit          3D

  0  0  0  0  0  0  0  0  0  0999 V3000
M  V30 BEGIN CTAB
M  V30 COUNTS 38 39 0 0 0
M  V30 BEGIN ATOM
M  V30 1 C -2.186550 -4.321796 1.901174 0
M  V30 2 C -0.998767 -4.673938 1.083373 0
M  V30 3 C 0.286181 -4.808154 1.771140 0
M  V30 4 C 1.012414 -3.725652 2.414767 0
M  V30 5 C 0.479206 -2.908378 3.502325 0
M  V30 6 S -0.896903 -1.832360 3.205774 0
M  V30 7 C -0.507574 -0.498701 2.087767 0
M  V30 8 N 0.699939 -0.344374 1.541879 0
M  V30 9 N 0.999655 0.639563 0.712757 0
M  V30 10 C 0.116141 1.581542 0.338414 0
M  V30 11 C 0.571036 2.605920 -0.575845 0
M  V30 12 C -0.131509 3.659621 -1.096590 0
M  V30 13 C 0.364887 4.601626 -1.965169 0
M  V30 14 Br -0.721865 6.013520 -2.610628 0
M  V30 15 C 1.677909 4.512722 -2.370534 0
M  V30 16 C 2.425208 3.468322 -1.872611 0
M  V30 17 C 1.879599 2.549364 -1.003370 0
M  V30 18 N 2.790015 1.515985 -0.572238 0
M  V30 19 C -1.125935 1.422959 0.899762 0
M  V30 20 O -2.106319 2.329204 0.586341 0
M  V30 21 N -1.421806 0.418564 1.742521 0
M  V30 22 H -2.027202 -4.437876 2.976145 0
M  V30 23 H -2.623265 -3.380234 1.558314 0
M  V30 24 H -2.989768 -5.106925 1.640010 0
M  V30 25 H -1.213366 -5.666999 0.559770 0
M  V30 26 H -0.931225 -3.981084 0.177879 0
M  V30 27 H 1.028598 -5.336184 1.055754 0
M  V30 28 H 0.136351 -5.674899 2.527927 0
M  V30 29 H 2.043068 -4.107453 2.792586 0
M  V30 30 H 1.372479 -2.993570 1.595496 0
M  V30 31 H 0.163989 -3.589683 4.367991 0
M  V30 32 H 1.288407 -2.286211 4.014699 0
M  V30 33 H -1.161629 3.780291 -0.816077 0
M  V30 34 H 2.127753 5.221221 -3.050844 0
M  V30 35 H 3.451742 3.410399 -2.197987 0
M  V30 36 H 3.141859 0.670934 -1.101407 0
M  V30 37 H 3.277609 1.399799 0.341493 0
M  V30 38 H -2.815644 2.051783 -0.080582 0
M  V30 END ATOM
M  V30 BEGIN BOND
M  V30 1 1 1 2
M  V30 2 1 2 3
M  V30 3 1 3 4
M  V30 4 1 4 5
M  V30 5 1 5 6
M  V30 6 1 6 7
M  V30 7 2 7 8
M  V30 8 1 8 9
M  V30 9 2 9 10
M  V30 10 1 10 11
M  V30 11 2 11 12
M  V30 12 1 12 13
M  V30 13 1 13 14
M  V30 14 2 13 15
M  V30 15 1 15 16
M  V30 16 2 16 17
M  V30 17 1 17 18
M  V30 18 1 10 19
M  V30 19 1 19 20
M  V30 20 2 19 21
M  V30 21 1 21 7
M  V30 22 1 17 11
M  V30 23 1 1 22
M  V30 24 1 1 23
M  V30 25 1 1 24
M  V30 26 1 2 25
M  V30 27 1 2 26
M  V30 28 1 3 27
M  V30 29 1 3 28
M  V30 30 1 4 29
M  V30 31 1 4 30
M  V30 32 1 5 31
M  V30 33 1 5 32
M  V30 34 1 12 33
M  V30 35 1 15 34
M  V30 36 1 16 35
M  V30 37 1 18 36
M  V30 38 1 18 37
M  V30 39 1 20 38
M  V30 END BOND
M  V30 END CTAB
M  END
>  <Dataset>  (74) 
ChEMBL_Kinases

>  <Ligand_Instance>  (74) 
nan

>  <PDB_ID>  (74) 
nan

>  <Standardized_SMILES>  (74) 
CCCCCSc1nnc(-c2cc(Br)ccc2N)c(O)n1

>  <Name>  (74) 
nan

>  <Pocket>  (74) 
nan

>  <ATP_Site>  (74) 
nan

>  <Peripheral>  (74) 
nan

>  <Num_H_Atoms_ProtBoundConf>  (74) 
nan

>  <Num_Resolved_Atoms>  (74) 
nan

>  <Num_Not_Resolved_Atoms>  (74) 
nan

$$$$
CHEMBL1477311
     RDKit          3D

  0  0  0  0  0  0  0  0  0  0999 V3000
M  V30 BEGIN CTAB
M  V30 COUNTS 57 61 0 0 0
M  V30 BEGIN ATOM
M  V30 1 O -2.969883 -0.147037 1.884046 0
M  V30 2 C -2.555588 -1.358123 1.913803 0
M  V30 3 C -1.154616 -1.068438 2.058691 0
M  V30 4 C -0.355930 -0.512094 3.027884 0
M  V30 5 C 0.987163 -0.366705 2.804650 0
M  V30 6 C 1.662597 -0.732046 1.664782 0
M  V30 7 C 3.122826 -0.558307 1.485354 0
M  V30 8 N 3.501135 0.730793 0.938877 0
M  V30 9 C 3.589564 0.850323 -0.401313 0
M  V30 10 O 3.366283 -0.079958 -1.238043 0
M  V30 11 N 3.939541 2.009975 -1.035842 0
M  V30 12 C 4.183923 3.009010 -0.176526 0
M  V30 13 C 4.546145 4.247438 -0.685708 0
M  V30 14 C 4.824654 5.366429 0.079586 0
M  V30 15 C 4.725821 5.205096 1.446043 0
M  V30 16 C 4.368395 4.004141 2.089917 0
M  V30 17 C 4.129902 3.007617 1.177080 0
M  V30 18 C 3.760359 1.777075 1.777388 0
M  V30 19 O 3.677033 1.654212 3.016837 0
M  V30 20 C 0.846925 -1.300038 0.678671 0
M  V30 21 C -0.535259 -1.468675 0.864161 0
M  V30 22 N -3.313959 -2.578419 1.822508 0
M  V30 23 C -3.176661 -4.047963 1.843520 0
M  V30 24 C -3.940760 -4.631045 0.644076 0
M  V30 25 N -4.014025 -3.544874 -0.309716 0
M  V30 26 C -3.210931 -3.434993 -1.473461 0
M  V30 27 C -2.438455 -4.476678 -1.924242 0
M  V30 28 C -1.631586 -4.383519 -3.053948 0
M  V30 29 C -1.601030 -3.190293 -3.758518 0
M  V30 30 C -2.367107 -2.127924 -3.326879 0
M  V30 31 C -3.147405 -2.281646 -2.200691 0
M  V30 32 C -5.028774 -2.564787 0.082078 0
M  V30 33 C -4.722429 -2.235004 1.554449 0
M  V30 34 H -0.953366 -0.249581 3.883039 0
M  V30 35 H 1.524995 0.080980 3.631518 0
M  V30 36 H 3.441205 -1.364927 0.747079 0
M  V30 37 H 3.646694 -0.753677 2.440856 0
M  V30 38 H 4.018444 2.149949 -2.060594 0
M  V30 39 H 4.641909 4.431974 -1.761898 0
M  V30 40 H 5.105640 6.335744 -0.322150 0
M  V30 41 H 4.939188 6.076286 2.070791 0
M  V30 42 H 4.295121 3.885945 3.149375 0
M  V30 43 H 1.365720 -1.604928 -0.243130 0
M  V30 44 H -0.974646 -1.930387 -0.037383 0
M  V30 45 H -2.128418 -4.346835 1.831295 0
M  V30 46 H -3.727591 -4.367419 2.749991 0
M  V30 47 H -4.973938 -4.935458 0.934264 0
M  V30 48 H -3.468970 -5.546465 0.246959 0
M  V30 49 H -2.402097 -5.431596 -1.441368 0
M  V30 50 H -1.027796 -5.213522 -3.395394 0
M  V30 51 H -0.968699 -3.097937 -4.653721 0
M  V30 52 H -2.295801 -1.228797 -3.925285 0
M  V30 53 H -3.699307 -1.380730 -1.968485 0
M  V30 54 H -5.047112 -1.664755 -0.528511 0
M  V30 55 H -6.004023 -3.074531 0.066450 0
M  V30 56 H -4.977881 -1.198338 1.780751 0
M  V30 57 H -5.335127 -2.858291 2.227126 0
M  V30 END ATOM
M  V30 BEGIN BOND
M  V30 1 2 1 2
M  V30 2 1 2 3
M  V30 3 2 3 4
M  V30 4 1 4 5
M  V30 5 2 5 6
M  V30 6 1 6 7
M  V30 7 1 7 8
M  V30 8 1 8 9
M  V30 9 2 9 10
M  V30 10 1 9 11
M  V30 11 1 11 12
M  V30 12 2 12 13
M  V30 13 1 13 14
M  V30 14 2 14 15
M  V30 15 1 15 16
M  V30 16 2 16 17
M  V30 17 1 17 18
M  V30 18 2 18 19
M  V30 19 1 6 20
M  V30 20 2 20 21
M  V30 21 1 2 22
M  V30 22 1 22 23
M  V30 23 1 23 24
M  V30 24 1 24 25
M  V30 25 1 25 26
M  V30 26 2 26 27
M  V30 27 1 27 28
M  V30 28 2 28 29
M  V30 29 1 29 30
M  V30 30 2 30 31
M  V30 31 1 25 32
M  V30 32 1 32 33
M  V30 33 1 21 3
M  V30 34 1 33 22
M  V30 35 1 18 8
M  V30 36 1 31 26
M  V30 37 1 17 12
M  V30 38 1 4 34
M  V30 39 1 5 35
M  V30 40 1 7 36
M  V30 41 1 7 37
M  V30 42 1 11 38
M  V30 43 1 13 39
M  V30 44 1 14 40
M  V30 45 1 15 41
M  V30 46 1 16 42
M  V30 47 1 20 43
M  V30 48 1 21 44
M  V30 49 1 23 45
M  V30 50 1 23 46
M  V30 51 1 24 47
M  V30 52 1 24 48
M  V30 53 1 27 49
M  V30 54 1 28 50
M  V30 55 1 29 51
M  V30 56 1 30 52
M  V30 57 1 31 53
M  V30 58 1 32 54
M  V30 59 1 32 55
M  V30 60 1 33 56
M  V30 61 1 33 57
M  V30 END BOND
M  V30 END CTAB
M  END
>  <Dataset>  (75) 
ChEMBL_Kinases

>  <Ligand_Instance>  (75) 
nan

>  <PDB_ID>  (75) 
nan

>  <Standardized_SMILES>  (75) 
O=C(c1ccc(Cn2c(=O)[nH]c3ccccc3c2=O)cc1)N1CCN(c2ccccc2)CC1

>  <Name>  (75) 
nan

>  <Pocket>  (75) 
nan

>  <ATP_Site>  (75) 
nan

>  <Peripheral>  (75) 
nan

>  <Num_H_Atoms_ProtBoundConf>  (75) 
nan

>  <Num_Resolved_Atoms>  (75) 
nan

>  <Num_Not_Resolved_Atoms>  (75) 
nan

$$$$
CHEMBL1477258
     RDKit          3D

  0  0  0  0  0  0  0  0  0  0999 V3000
M  V30 BEGIN CTAB
M  V30 COUNTS 49 52 0 0 0
M  V30 BEGIN ATOM
M  V30 1 C 3.614015 -6.353545 4.889210 0
M  V30 2 C 3.042134 -5.253033 4.039358 0
M  V30 3 O 4.005502 -4.188379 3.972420 0
M  V30 4 C 3.749785 -3.044202 3.268210 0
M  V30 5 O 2.604682 -3.139014 2.757730 0
M  V30 6 C 4.455391 -1.785311 2.973634 0
M  V30 7 C 3.587837 -0.901656 2.114530 0
M  V30 8 C 2.743527 0.026962 2.751452 0
M  V30 9 S 1.887811 0.862356 1.304671 0
M  V30 10 C 2.820619 -0.189243 0.063818 0
M  V30 11 N 2.641491 -0.050374 -1.367395 0
M  V30 12 S 1.498617 1.083016 -1.930988 0
M  V30 13 O 1.584530 1.077519 -3.424808 0
M  V30 14 O 1.903831 2.442572 -1.380607 0
M  V30 15 C -0.116663 0.733376 -1.414140 0
M  V30 16 C -0.470965 -0.359036 -0.643439 0
M  V30 17 C -1.754780 -0.646212 -0.224823 0
M  V30 18 C -2.716355 0.254070 -0.632602 0
M  V30 19 C -2.397584 1.350899 -1.399555 0
M  V30 20 C -3.467790 2.135655 -1.713990 0
M  V30 21 C -3.240752 3.258938 -2.482925 0
M  V30 22 C -1.942552 3.570993 -2.920255 0
M  V30 23 C -0.882899 2.751480 -2.581600 0
M  V30 24 C -1.095080 1.624575 -1.813217 0
M  V30 25 C -4.632719 1.502407 -1.093222 0
M  V30 26 O -5.806332 1.927787 -1.155449 0
M  V30 27 N -4.141494 0.341164 -0.430779 0
M  V30 28 C -4.926525 -0.629166 0.337798 0
M  V30 29 C -4.950271 -0.143667 1.788942 0
M  V30 30 N 3.214959 -0.561753 0.992192 0
M  V30 31 H 4.690632 -6.491817 4.660481 0
M  V30 32 H 3.117741 -7.324380 4.687162 0
M  V30 33 H 3.547440 -6.157949 5.971113 0
M  V30 34 H 2.076614 -4.934667 4.434984 0
M  V30 35 H 2.882423 -5.683528 3.022746 0
M  V30 36 H 4.750581 -1.242619 3.892927 0
M  V30 37 H 5.395813 -2.028690 2.458481 0
M  V30 38 H 2.530247 0.311246 3.864230 0
M  V30 39 H 3.303267 -0.729761 -1.794499 0
M  V30 40 H 0.298829 -1.059225 -0.336014 0
M  V30 41 H -1.997086 -1.503983 0.373530 0
M  V30 42 H -4.083898 3.893554 -2.742201 0
M  V30 43 H -1.768093 4.447993 -3.522316 0
M  V30 44 H 0.118903 2.941251 -2.888575 0
M  V30 45 H -5.937602 -0.753879 -0.070789 0
M  V30 46 H -4.357122 -1.588842 0.335667 0
M  V30 47 H -5.523062 -0.799693 2.441483 0
M  V30 48 H -3.890953 0.003352 2.081100 0
M  V30 49 H -5.373746 0.895009 1.731915 0
M  V30 END ATOM
M  V30 BEGIN BOND
M  V30 1 1 1 2
M  V30 2 1 2 3
M  V30 3 1 3 4
M  V30 4 2 4 5
M  V30 5 1 4 6
M  V30 6 1 6 7
M  V30 7 2 7 8
M  V30 8 1 8 9
M  V30 9 1 9 10
M  V30 10 1 10 11
M  V30 11 1 11 12
M  V30 12 2 12 13
M  V30 13 2 12 14
M  V30 14 1 12 15
M  V30 15 2 15 16
M  V30 16 1 16 17
M  V30 17 2 17 18
M  V30 18 1 18 19
M  V30 19 2 19 20
M  V30 20 1 20 21
M  V30 21 2 21 22
M  V30 22 1 22 23
M  V30 23 2 23 24
M  V30 24 1 20 25
M  V30 25 2 25 26
M  V30 26 1 25 27
M  V30 27 1 27 28
M  V30 28 1 28 29
M  V30 29 2 10 30
M  V30 30 1 30 7
M  V30 31 1 24 15
M  V30 32 1 27 18
M  V30 33 1 24 19
M  V30 34 1 1 31
M  V30 35 1 1 32
M  V30 36 1 1 33
M  V30 37 1 2 34
M  V30 38 1 2 35
M  V30 39 1 6 36
M  V30 40 1 6 37
M  V30 41 1 8 38
M  V30 42 1 11 39
M  V30 43 1 16 40
M  V30 44 1 17 41
M  V30 45 1 21 42
M  V30 46 1 22 43
M  V30 47 1 23 44
M  V30 48 1 28 45
M  V30 49 1 28 46
M  V30 50 1 29 47
M  V30 51 1 29 48
M  V30 52 1 29 49
M  V30 END BOND
M  V30 END CTAB
M  END
>  <Dataset>  (76) 
ChEMBL_Kinases

>  <Ligand_Instance>  (76) 
nan

>  <PDB_ID>  (76) 
nan

>  <Standardized_SMILES>  (76) 
CCOC(=O)Cc1csc(NS(=O)(=O)c2ccc3c4c(cccc24)C(=O)N3CC)n1

>  <Name>  (76) 
nan

>  <Pocket>  (76) 
nan

>  <ATP_Site>  (76) 
nan

>  <Peripheral>  (76) 
nan

>  <Num_H_Atoms_ProtBoundConf>  (76) 
nan

>  <Num_Resolved_Atoms>  (76) 
nan

>  <Num_Not_Resolved_Atoms>  (76) 
nan

$$$$
CHEMBL1476952
     RDKit          3D

  0  0  0  0  0  0  0  0  0  0999 V3000
M  V30 BEGIN CTAB
M  V30 COUNTS 50 54 0 0 0
M  V30 BEGIN ATOM
M  V30 1 O 2.599340 -3.742982 -0.578845 0
M  V30 2 C 3.018313 -2.650397 -0.171203 0
M  V30 3 C 4.356315 -2.354940 0.325173 0
M  V30 4 C 5.467735 -3.159479 0.472670 0
M  V30 5 C 6.591430 -2.550090 0.980613 0
M  V30 6 C 6.622974 -1.218678 1.326320 0
M  V30 7 C 5.484075 -0.460808 1.158387 0
M  V30 8 C 4.343920 -1.017541 0.658540 0
M  V30 9 C 3.030682 -0.416823 0.395970 0
M  V30 10 C 2.494476 0.854215 0.546876 0
M  V30 11 C 1.187404 1.083192 0.192463 0
M  V30 12 C 0.327869 0.137429 -0.315534 0
M  V30 13 N -0.995081 0.483042 -0.634236 0
M  V30 14 C -1.444848 1.846352 -0.310369 0
M  V30 15 C -1.800648 2.004209 1.096308 0
M  V30 16 C -1.206048 2.344751 2.276411 0
M  V30 17 C -1.794080 2.437818 3.510257 0
M  V30 18 C -3.136075 2.171888 3.651300 0
M  V30 19 Br -3.910983 2.313192 5.382252 0
M  V30 20 C -3.836944 1.817675 2.520442 0
M  V30 21 C -3.162145 1.749502 1.321727 0
M  V30 22 C -2.026151 -0.266431 -1.290799 0
M  V30 23 C -2.453938 -1.548737 -0.771341 0
M  V30 24 C -3.345643 -1.746058 0.276052 0
M  V30 25 C -3.814024 -2.942197 0.759192 0
M  V30 26 C -3.381644 -4.108343 0.173446 0
M  V30 27 Br -3.966082 -5.819861 0.763088 0
M  V30 28 C -2.495671 -4.056580 -0.876703 0
M  V30 29 C -2.095677 -2.810896 -1.275438 0
M  V30 30 C 0.944495 -1.080380 -0.428735 0
M  V30 31 C 2.236355 -1.422854 -0.108175 0
M  V30 32 H 5.378484 -4.187826 0.185206 0
M  V30 33 H 7.473370 -3.174592 1.101165 0
M  V30 34 H 7.509431 -0.734719 1.727831 0
M  V30 35 H 5.515958 0.575427 1.429751 0
M  V30 36 H 3.198901 1.558981 0.946247 0
M  V30 37 H 0.983862 2.115641 0.361542 0
M  V30 38 H -2.292177 2.154249 -0.974224 0
M  V30 39 H -0.618009 2.534011 -0.627181 0
M  V30 40 H -0.169126 2.571603 2.215947 0
M  V30 41 H -1.183383 2.720766 4.351550 0
M  V30 42 H -4.885327 1.617001 2.668960 0
M  V30 43 H -3.869092 1.454911 0.524589 0
M  V30 44 H -2.940727 0.343867 -1.476579 0
M  V30 45 H -1.635825 -0.434699 -2.363045 0
M  V30 46 H -3.756100 -0.920940 0.804365 0
M  V30 47 H -4.503994 -3.052091 1.572585 0
M  V30 48 H -2.136913 -4.941998 -1.357819 0
M  V30 49 H -1.388711 -2.808223 -2.124415 0
M  V30 50 H 0.381199 -1.901995 -0.823318 0
M  V30 END ATOM
M  V30 BEGIN BOND
M  V30 1 2 1 2
M  V30 2 1 2 3
M  V30 3 2 3 4
M  V30 4 1 4 5
M  V30 5 2 5 6
M  V30 6 1 6 7
M  V30 7 2 7 8
M  V30 8 1 8 9
M  V30 9 2 9 10
M  V30 10 1 10 11
M  V30 11 2 11 12
M  V30 12 1 12 13
M  V30 13 1 13 14
M  V30 14 1 14 15
M  V30 15 2 15 16
M  V30 16 1 16 17
M  V30 17 2 17 18
M  V30 18 1 18 19
M  V30 19 1 18 20
M  V30 20 2 20 21
M  V30 21 1 13 22
M  V30 22 1 22 23
M  V30 23 2 23 24
M  V30 24 1 24 25
M  V30 25 2 25 26
M  V30 26 1 26 27
M  V30 27 1 26 28
M  V30 28 2 28 29
M  V30 29 1 12 30
M  V30 30 2 30 31
M  V30 31 1 31 2
M  V30 32 1 8 3
M  V30 33 1 31 9
M  V30 34 1 21 15
M  V30 35 1 29 23
M  V30 36 1 4 32
M  V30 37 1 5 33
M  V30 38 1 6 34
M  V30 39 1 7 35
M  V30 40 1 10 36
M  V30 41 1 11 37
M  V30 42 1 14 38
M  V30 43 1 14 39
M  V30 44 1 16 40
M  V30 45 1 17 41
M  V30 46 1 20 42
M  V30 47 1 21 43
M  V30 48 1 22 44
M  V30 49 1 22 45
M  V30 50 1 24 46
M  V30 51 1 25 47
M  V30 52 1 28 48
M  V30 53 1 29 49
M  V30 54 1 30 50
M  V30 END BOND
M  V30 END CTAB
M  END
>  <Dataset>  (77) 
ChEMBL_Kinases

>  <Ligand_Instance>  (77) 
nan

>  <PDB_ID>  (77) 
nan

>  <Standardized_SMILES>  (77) 
O=C1c2ccccc2-c2ccc(N(Cc3ccc(Br)cc3)Cc3ccc(Br)cc3)cc21

>  <Name>  (77) 
nan

>  <Pocket>  (77) 
nan

>  <ATP_Site>  (77) 
nan

>  <Peripheral>  (77) 
nan

>  <Num_H_Atoms_ProtBoundConf>  (77) 
nan

>  <Num_Resolved_Atoms>  (77) 
nan

>  <Num_Not_Resolved_Atoms>  (77) 
nan

$$$$
CHEMBL1492414
     RDKit          3D

  0  0  0  0  0  0  0  0  0  0999 V3000
M  V30 BEGIN CTAB
M  V30 COUNTS 37 40 0 0 0
M  V30 BEGIN ATOM
M  V30 1 Cl -0.442497 -5.514361 3.548251 0
M  V30 2 C 0.693620 -4.419568 2.744426 0
M  V30 3 C 2.028263 -4.438098 3.089212 0
M  V30 4 C 2.910264 -3.583676 2.460843 0
M  V30 5 C 2.419578 -2.729023 1.496448 0
M  V30 6 C 1.092315 -2.658984 1.102580 0
M  V30 7 N 0.632733 -1.756140 0.098044 0
M  V30 8 C -0.808107 -1.811160 -0.191081 0
M  V30 9 C -1.285563 -0.662695 -1.015492 0
M  V30 10 N -0.290895 0.390969 -1.050155 0
M  V30 11 C -0.704495 1.670778 -0.567793 0
M  V30 12 N -1.260564 2.661660 -1.288717 0
M  V30 13 C -1.597790 3.816590 -0.686917 0
M  V30 14 N -1.396968 4.022614 0.630925 0
M  V30 15 C -0.855555 3.116988 1.443729 0
M  V30 16 N -0.526032 2.997525 2.747787 0
M  V30 17 C 0.013708 1.761451 2.933024 0
M  V30 18 N 0.050688 1.060860 1.790917 0
M  V30 19 C -0.477706 1.840581 0.802551 0
M  V30 20 C 0.984379 -0.051092 -1.582714 0
M  V30 21 C 1.634250 -0.899280 -0.512603 0
M  V30 22 C 0.280933 -3.536572 1.771100 0
M  V30 23 H 2.427024 -5.103022 3.843819 0
M  V30 24 H 3.954325 -3.601897 2.734282 0
M  V30 25 H 3.154985 -2.072673 1.027869 0
M  V30 26 H -1.093229 -2.799033 -0.624430 0
M  V30 27 H -1.315822 -1.739277 0.812665 0
M  V30 28 H -1.368915 -1.009331 -2.086874 0
M  V30 29 H -2.291060 -0.300277 -0.765584 0
M  V30 30 H -1.396845 2.453045 -2.312185 0
M  V30 31 H -2.045577 4.602909 -1.289179 0
M  V30 32 H 0.360168 1.415869 3.891342 0
M  V30 33 H 0.779205 -0.643297 -2.513013 0
M  V30 34 H 1.622219 0.806758 -1.878137 0
M  V30 35 H 2.463498 -1.484787 -0.959797 0
M  V30 36 H 2.032170 -0.195109 0.257597 0
M  V30 37 H -0.779057 -3.565668 1.540232 0
M  V30 END ATOM
M  V30 BEGIN BOND
M  V30 1 1 1 2
M  V30 2 2 2 3
M  V30 3 1 3 4
M  V30 4 2 4 5
M  V30 5 1 5 6
M  V30 6 1 6 7
M  V30 7 1 7 8
M  V30 8 1 8 9
M  V30 9 1 9 10
M  V30 10 1 10 11
M  V30 11 1 11 12
M  V30 12 1 12 13
M  V30 13 2 13 14
M  V30 14 1 14 15
M  V30 15 2 15 16
M  V30 16 1 16 17
M  V30 17 2 17 18
M  V30 18 1 18 19
M  V30 19 1 10 20
M  V30 20 1 20 21
M  V30 21 2 6 22
M  V30 22 1 22 2
M  V30 23 1 21 7
M  V30 24 2 19 11
M  V30 25 1 19 15
M  V30 26 1 3 23
M  V30 27 1 4 24
M  V30 28 1 5 25
M  V30 29 1 8 26
M  V30 30 1 8 27
M  V30 31 1 9 28
M  V30 32 1 9 29
M  V30 33 1 12 30
M  V30 34 1 13 31
M  V30 35 1 17 32
M  V30 36 1 20 33
M  V30 37 1 20 34
M  V30 38 1 21 35
M  V30 39 1 21 36
M  V30 40 1 22 37
M  V30 END BOND
M  V30 END CTAB
M  END
>  <Dataset>  (78) 
ChEMBL_Kinases

>  <Ligand_Instance>  (78) 
nan

>  <PDB_ID>  (78) 
nan

>  <Standardized_SMILES>  (78) 
Clc1cccc(N2CCN(c3[nH]cnc4ncnc3-4)CC2)c1

>  <Name>  (78) 
nan

>  <Pocket>  (78) 
nan

>  <ATP_Site>  (78) 
nan

>  <Peripheral>  (78) 
nan

>  <Num_H_Atoms_ProtBoundConf>  (78) 
nan

>  <Num_Resolved_Atoms>  (78) 
nan

>  <Num_Not_Resolved_Atoms>  (78) 
nan

$$$$
CHEMBL1474402
     RDKit          3D

  0  0  0  0  0  0  0  0  0  0999 V3000
M  V30 BEGIN CTAB
M  V30 COUNTS 44 47 0 0 0
M  V30 BEGIN ATOM
M  V30 1 C 2.744791 -5.209402 0.129665 0
M  V30 2 C 2.086735 -4.678871 -1.097924 0
M  V30 3 O 1.467483 -5.497575 -1.843403 0
M  V30 4 N 2.183417 -3.282702 -1.375789 0
M  V30 5 C 1.555081 -2.740182 -2.559050 0
M  V30 6 C 1.764869 -1.254408 -2.682153 0
M  V30 7 N 1.219185 -0.528073 -1.552530 0
M  V30 8 C 1.352437 0.893012 -1.548890 0
M  V30 9 N 1.951907 1.533009 -2.538465 0
M  V30 10 C 2.089568 2.870897 -2.557550 0
M  V30 11 N 1.622017 3.656085 -1.561254 0
M  V30 12 C 0.994540 3.070458 -0.510720 0
M  V30 13 C 0.510284 3.855829 0.516582 0
M  V30 14 C -0.124138 3.237913 1.574579 0
M  V30 15 C -0.273657 1.859720 1.608280 0
M  V30 16 C -0.954001 1.180836 2.740112 0
M  V30 17 C -0.892564 1.691902 4.036632 0
M  V30 18 C -1.531481 1.046104 5.076811 0
M  V30 19 C -2.246100 -0.119916 4.859677 0
M  V30 20 C -2.279612 -0.592839 3.548156 0
M  V30 21 C -1.653649 0.022561 2.475602 0
M  V30 22 O -3.061177 -1.759614 3.647683 0
M  V30 23 C -3.051296 -2.213589 4.987621 0
M  V30 24 O -2.971081 -0.967990 5.681461 0
M  V30 25 C 0.237254 1.144868 0.544247 0
M  V30 26 C 0.875626 1.697168 -0.532361 0
M  V30 27 H 3.096125 -6.230650 -0.016973 0
M  V30 28 H 3.549890 -4.537230 0.467767 0
M  V30 29 H 1.964288 -5.196726 0.935982 0
M  V30 30 H 2.697780 -2.656667 -0.739709 0
M  V30 31 H 0.453224 -2.933466 -2.516928 0
M  V30 32 H 1.928672 -3.234797 -3.478172 0
M  V30 33 H 1.271109 -0.848017 -3.581298 0
M  V30 34 H 2.869284 -1.102591 -2.773233 0
M  V30 35 H 0.771107 -1.112045 -0.831065 0
M  V30 36 H 2.582526 3.348762 -3.379633 0
M  V30 37 H 0.628791 4.933439 0.486954 0
M  V30 38 H -0.509860 3.849217 2.390668 0
M  V30 39 H -0.345875 2.590600 4.222053 0
M  V30 40 H -1.454882 1.482453 6.068792 0
M  V30 41 H -1.727825 -0.409917 1.483365 0
M  V30 42 H -2.141614 -2.814586 5.196306 0
M  V30 43 H -3.943446 -2.791196 5.251299 0
M  V30 44 H 0.092151 0.077397 0.624399 0
M  V30 END ATOM
M  V30 BEGIN BOND
M  V30 1 1 1 2
M  V30 2 2 2 3
M  V30 3 1 2 4
M  V30 4 1 4 5
M  V30 5 1 5 6
M  V30 6 1 6 7
M  V30 7 1 7 8
M  V30 8 2 8 9
M  V30 9 1 9 10
M  V30 10 2 10 11
M  V30 11 1 11 12
M  V30 12 2 12 13
M  V30 13 1 13 14
M  V30 14 2 14 15
M  V30 15 1 15 16
M  V30 16 2 16 17
M  V30 17 1 17 18
M  V30 18 2 18 19
M  V30 19 1 19 20
M  V30 20 2 20 21
M  V30 21 1 20 22
M  V30 22 1 22 23
M  V30 23 1 23 24
M  V30 24 1 15 25
M  V30 25 2 25 26
M  V30 26 1 26 8
M  V30 27 1 26 12
M  V30 28 1 21 16
M  V30 29 1 24 19
M  V30 30 1 1 27
M  V30 31 1 1 28
M  V30 32 1 1 29
M  V30 33 1 4 30
M  V30 34 1 5 31
M  V30 35 1 5 32
M  V30 36 1 6 33
M  V30 37 1 6 34
M  V30 38 1 7 35
M  V30 39 1 10 36
M  V30 40 1 13 37
M  V30 41 1 14 38
M  V30 42 1 17 39
M  V30 43 1 18 40
M  V30 44 1 21 41
M  V30 45 1 23 42
M  V30 46 1 23 43
M  V30 47 1 25 44
M  V30 END BOND
M  V30 END CTAB
M  END
>  <Dataset>  (79) 
ChEMBL_Kinases

>  <Ligand_Instance>  (79) 
nan

>  <PDB_ID>  (79) 
nan

>  <Standardized_SMILES>  (79) 
CC(=O)NCCNc1ncnc2ccc(-c3ccc4c(c3)OCO4)cc12

>  <Name>  (79) 
nan

>  <Pocket>  (79) 
nan

>  <ATP_Site>  (79) 
nan

>  <Peripheral>  (79) 
nan

>  <Num_H_Atoms_ProtBoundConf>  (79) 
nan

>  <Num_Resolved_Atoms>  (79) 
nan

>  <Num_Not_Resolved_Atoms>  (79) 
nan

$$$$
CHEMBL1474471
     RDKit          3D

  0  0  0  0  0  0  0  0  0  0999 V3000
M  V30 BEGIN CTAB
M  V30 COUNTS 49 52 0 0 0
M  V30 BEGIN ATOM
M  V30 1 C -1.046637 -3.421128 4.625531 0
M  V30 2 C -0.691215 -4.400313 3.523628 0
M  V30 3 N 0.589409 -4.072283 2.925501 0
M  V30 4 C 0.794846 -2.811715 2.304986 0
M  V30 5 N 1.190197 -1.934287 3.249921 0
M  V30 6 C 1.473679 -0.628523 2.974864 0
M  V30 7 C 1.351532 -0.184195 1.675183 0
M  V30 8 N 1.617336 1.087421 1.320686 0
M  V30 9 C 1.499702 1.510247 0.044570 0
M  V30 10 C 1.772861 2.873033 -0.399525 0
M  V30 11 C 0.930799 3.548868 -1.258375 0
M  V30 12 C 1.259719 4.853240 -1.640844 0
M  V30 13 C 2.429694 5.397878 -1.126463 0
M  V30 14 C 3.267265 4.714330 -0.266815 0
M  V30 15 C 2.947651 3.424237 0.115034 0
M  V30 16 C 1.086067 0.541215 -0.871685 0
M  V30 17 O 0.976495 0.940804 -2.068404 0
M  V30 18 N 0.799186 -0.764705 -0.584763 0
M  V30 19 C 0.398667 -1.604655 -1.674030 0
M  V30 20 C -1.082629 -1.543680 -1.859967 0
M  V30 21 C -1.881614 -1.977684 -0.711392 0
M  V30 22 C -2.231321 -1.036994 0.220057 0
M  V30 23 C -2.985681 -1.397215 1.309695 0
M  V30 24 C -3.369822 -2.724228 1.424569 0
M  V30 25 C -3.023803 -3.693208 0.488321 0
M  V30 26 C -2.269936 -3.284441 -0.581712 0
M  V30 27 C 0.946414 -1.086283 0.711213 0
M  V30 28 N 0.671351 -2.378082 1.013860 0
M  V30 29 H -0.167524 -3.128453 5.220989 0
M  V30 30 H -1.878361 -3.796754 5.252816 0
M  V30 31 H -1.421323 -2.481496 4.131341 0
M  V30 32 H -1.515419 -4.494777 2.812573 0
M  V30 33 H -0.559032 -5.386440 4.044293 0
M  V30 34 H 1.457304 -4.678785 2.879900 0
M  V30 35 H 1.791374 0.105403 3.695124 0
M  V30 36 H 0.034890 3.090509 -1.632152 0
M  V30 37 H 0.637469 5.437544 -2.314761 0
M  V30 38 H 2.689807 6.408834 -1.419635 0
M  V30 39 H 4.171537 5.161629 0.118482 0
M  V30 40 H 3.597390 2.875518 0.790172 0
M  V30 41 H 0.778749 -2.634180 -1.527882 0
M  V30 42 H 0.908075 -1.232954 -2.596432 0
M  V30 43 H -1.364651 -2.233668 -2.710288 0
M  V30 44 H -1.418200 -0.536034 -2.214314 0
M  V30 45 H -1.951405 0.019439 0.170794 0
M  V30 46 H -3.318576 -0.739220 2.105539 0
M  V30 47 H -3.964843 -3.051861 2.267505 0
M  V30 48 H -3.337701 -4.714173 0.606266 0
M  V30 49 H -1.996867 -4.045185 -1.318374 0
M  V30 END ATOM
M  V30 BEGIN BOND
M  V30 1 1 1 2
M  V30 2 1 2 3
M  V30 3 1 3 4
M  V30 4 2 4 5
M  V30 5 1 5 6
M  V30 6 2 6 7
M  V30 7 1 7 8
M  V30 8 2 8 9
M  V30 9 1 9 10
M  V30 10 2 10 11
M  V30 11 1 11 12
M  V30 12 2 12 13
M  V30 13 1 13 14
M  V30 14 2 14 15
M  V30 15 1 9 16
M  V30 16 2 16 17
M  V30 17 1 16 18
M  V30 18 1 18 19
M  V30 19 1 19 20
M  V30 20 1 20 21
M  V30 21 2 21 22
M  V30 22 1 22 23
M  V30 23 2 23 24
M  V30 24 1 24 25
M  V30 25 2 25 26
M  V30 26 1 18 27
M  V30 27 2 27 28
M  V30 28 1 28 4
M  V30 29 1 27 7
M  V30 30 1 15 10
M  V30 31 1 26 21
M  V30 32 1 1 29
M  V30 33 1 1 30
M  V30 34 1 1 31
M  V30 35 1 2 32
M  V30 36 1 2 33
M  V30 37 1 3 34
M  V30 38 1 6 35
M  V30 39 1 11 36
M  V30 40 1 12 37
M  V30 41 1 13 38
M  V30 42 1 14 39
M  V30 43 1 15 40
M  V30 44 1 19 41
M  V30 45 1 19 42
M  V30 46 1 20 43
M  V30 47 1 20 44
M  V30 48 1 22 45
M  V30 49 1 23 46
M  V30 50 1 24 47
M  V30 51 1 25 48
M  V30 52 1 26 49
M  V30 END BOND
M  V30 END CTAB
M  END
>  <Dataset>  (80) 
ChEMBL_Kinases

>  <Ligand_Instance>  (80) 
nan

>  <PDB_ID>  (80) 
nan

>  <Standardized_SMILES>  (80) 
CCNc1ncc2nc(-c3ccccc3)c(=O)n(CCc3ccccc3)c2n1

>  <Name>  (80) 
nan

>  <Pocket>  (80) 
nan

>  <ATP_Site>  (80) 
nan

>  <Peripheral>  (80) 
nan

>  <Num_H_Atoms_ProtBoundConf>  (80) 
nan

>  <Num_Resolved_Atoms>  (80) 
nan

>  <Num_Not_Resolved_Atoms>  (80) 
nan

$$$$
CHEMBL1474486
     RDKit          3D

  0  0  0  0  0  0  0  0  0  0999 V3000
M  V30 BEGIN CTAB
M  V30 COUNTS 19 19 0 0 0
M  V30 BEGIN ATOM
M  V30 1 N -0.920450 -1.666985 1.845285 0
M  V30 2 C 0.473454 -1.400420 1.523791 0 CFG=2
M  V30 3 C 1.131853 -0.594468 2.575036 0
M  V30 4 C 1.739364 0.577067 2.596768 0
M  V30 5 C 1.779016 1.238272 1.302707 0
M  V30 6 C 1.208378 0.571243 0.322579 0
M  V30 7 C 1.246870 1.242025 -0.997922 0
M  V30 8 O 0.787537 0.859339 -2.130688 0
M  V30 9 O 1.821060 2.463258 -1.228410 0
M  V30 10 C 0.505987 -0.727825 0.177309 0
M  V30 11 H -1.547655 -1.492156 1.027243 0
M  V30 12 H -1.027096 -2.665881 2.089011 0
M  V30 13 H 1.036820 -2.360979 1.479127 0
M  V30 14 H 1.077548 -1.132786 3.535900 0
M  V30 15 H 2.158848 0.991843 3.485010 0
M  V30 16 H 2.231473 2.183941 1.156524 0
M  V30 17 H 1.516619 3.183932 -1.867417 0
M  V30 18 H -0.517040 -0.588389 -0.233654 0
M  V30 19 H 1.095911 -1.389404 -0.527271 0
M  V30 END ATOM
M  V30 BEGIN BOND
M  V30 1 1 1 2
M  V30 2 1 2 3
M  V30 3 2 3 4
M  V30 4 1 4 5
M  V30 5 2 5 6
M  V30 6 1 6 7
M  V30 7 2 7 8
M  V30 8 1 7 9
M  V30 9 1 6 10
M  V30 10 1 10 2
M  V30 11 1 1 11
M  V30 12 1 1 12
M  V30 13 1 2 13 CFG=3
M  V30 14 1 3 14
M  V30 15 1 4 15
M  V30 16 1 5 16
M  V30 17 1 9 17
M  V30 18 1 10 18
M  V30 19 1 10 19
M  V30 END BOND
M  V30 END CTAB
M  END
>  <Dataset>  (81) 
ChEMBL_Kinases

>  <Ligand_Instance>  (81) 
nan

>  <PDB_ID>  (81) 
nan

>  <Standardized_SMILES>  (81) 
N[C@@H]1C=CC=C(C(=O)O)C1

>  <Name>  (81) 
nan

>  <Pocket>  (81) 
nan

>  <ATP_Site>  (81) 
nan

>  <Peripheral>  (81) 
nan

>  <Num_H_Atoms_ProtBoundConf>  (81) 
nan

>  <Num_Resolved_Atoms>  (81) 
nan

>  <Num_Not_Resolved_Atoms>  (81) 
nan

$$$$
CHEMBL1474578
     RDKit          3D

  0  0  0  0  0  0  0  0  0  0999 V3000
M  V30 BEGIN CTAB
M  V30 COUNTS 56 60 0 0 0
M  V30 BEGIN ATOM
M  V30 1 C 1.078605 -4.508693 1.138618 0
M  V30 2 O 2.356271 -4.085754 1.507592 0
M  V30 3 C 2.850120 -2.877982 1.039334 0
M  V30 4 C 4.105959 -2.534151 1.443815 0
M  V30 5 C 4.650498 -1.352939 1.015498 0
M  V30 6 C 3.900964 -0.549434 0.184060 0
M  V30 7 C 2.618839 -0.833997 -0.267553 0
M  V30 8 C 1.865008 0.074664 -1.164678 0
M  V30 9 N 1.073915 1.058881 -0.452882 0
M  V30 10 C 1.537290 2.267991 -0.097535 0
M  V30 11 O 2.716784 2.507527 -0.419144 0
M  V30 12 C 0.798521 3.214221 0.577265 0
M  V30 13 C 1.333093 4.529447 0.953103 0
M  V30 14 C 2.503507 5.123792 0.789974 0
M  V30 15 C 2.746914 6.370733 1.241077 0
M  V30 16 C 1.684614 6.994186 1.891283 0
M  V30 17 S 0.325861 5.680923 1.811576 0
M  V30 18 N -0.455135 2.865081 0.877745 0
M  V30 19 C -0.973540 1.671742 0.548789 0
M  V30 20 C -2.283672 1.476989 0.934683 0
M  V30 21 N -2.819918 0.267421 0.603216 0
M  V30 22 C -2.082517 -0.636234 -0.052760 0
M  V30 23 N -2.733969 -1.864011 -0.350521 0
M  V30 24 C -4.109501 -2.063700 0.063152 0
M  V30 25 C -4.631651 -3.401440 -0.338659 0
M  V30 26 N -3.774377 -4.507399 -0.035795 0
M  V30 27 C -4.137687 -5.213690 1.169624 0
M  V30 28 C -2.369750 -4.194543 -0.120289 0
M  V30 29 C -2.180353 -3.006639 -1.050107 0
M  V30 30 N -0.807288 -0.406333 -0.410756 0
M  V30 31 C -0.194137 0.756576 -0.127163 0
M  V30 32 C 2.142512 -2.037569 0.206651 0
M  V30 33 H 0.795865 -5.343440 1.839511 0
M  V30 34 H 0.341296 -3.709167 1.208647 0
M  V30 35 H 1.149781 -4.935596 0.110815 0
M  V30 36 H 4.681608 -3.172312 2.094712 0
M  V30 37 H 5.639608 -1.085586 1.335924 0
M  V30 38 H 4.394503 0.365540 -0.115051 0
M  V30 39 H 1.219882 -0.470259 -1.881233 0
M  V30 40 H 2.605122 0.639461 -1.780874 0
M  V30 41 H 3.307947 4.607355 0.278621 0
M  V30 42 H 3.657536 6.953475 1.166077 0
M  V30 43 H 1.730583 8.124471 2.362911 0
M  V30 44 H -2.847721 2.233656 1.464865 0
M  V30 45 H -4.713667 -1.287961 -0.458758 0
M  V30 46 H -4.229899 -1.872403 1.155084 0
M  V30 47 H -5.574118 -3.566135 0.258916 0
M  V30 48 H -4.955592 -3.401770 -1.413168 0
M  V30 49 H -4.932053 -5.939004 0.872026 0
M  V30 50 H -3.244114 -5.760702 1.545674 0
M  V30 51 H -4.483591 -4.498414 1.947561 0
M  V30 52 H -1.851041 -5.085595 -0.539525 0
M  V30 53 H -2.025949 -3.899713 0.878460 0
M  V30 54 H -2.817911 -3.231104 -1.940806 0
M  V30 55 H -1.112962 -2.896370 -1.292297 0
M  V30 56 H 1.152612 -2.359956 -0.084458 0
M  V30 END ATOM
M  V30 BEGIN BOND
M  V30 1 1 1 2
M  V30 2 1 2 3
M  V30 3 2 3 4
M  V30 4 1 4 5
M  V30 5 2 5 6
M  V30 6 1 6 7
M  V30 7 1 7 8
M  V30 8 1 8 9
M  V30 9 1 9 10
M  V30 10 2 10 11
M  V30 11 1 10 12
M  V30 12 1 12 13
M  V30 13 2 13 14
M  V30 14 1 14 15
M  V30 15 2 15 16
M  V30 16 1 16 17
M  V30 17 2 12 18
M  V30 18 1 18 19
M  V30 19 2 19 20
M  V30 20 1 20 21
M  V30 21 2 21 22
M  V30 22 1 22 23
M  V30 23 1 23 24
M  V30 24 1 24 25
M  V30 25 1 25 26
M  V30 26 1 26 27
M  V30 27 1 26 28
M  V30 28 1 28 29
M  V30 29 1 22 30
M  V30 30 2 30 31
M  V30 31 2 7 32
M  V30 32 1 32 3
M  V30 33 1 31 9
M  V30 34 1 17 13
M  V30 35 1 31 19
M  V30 36 1 29 23
M  V30 37 1 1 33
M  V30 38 1 1 34
M  V30 39 1 1 35
M  V30 40 1 4 36
M  V30 41 1 5 37
M  V30 42 1 6 38
M  V30 43 1 8 39
M  V30 44 1 8 40
M  V30 45 1 14 41
M  V30 46 1 15 42
M  V30 47 1 16 43
M  V30 48 1 20 44
M  V30 49 1 24 45
M  V30 50 1 24 46
M  V30 51 1 25 47
M  V30 52 1 25 48
M  V30 53 1 27 49
M  V30 54 1 27 50
M  V30 55 1 27 51
M  V30 56 1 28 52
M  V30 57 1 28 53
M  V30 58 1 29 54
M  V30 59 1 29 55
M  V30 60 1 32 56
M  V30 END BOND
M  V30 END CTAB
M  END
>  <Dataset>  (82) 
ChEMBL_Kinases

>  <Ligand_Instance>  (82) 
nan

>  <PDB_ID>  (82) 
nan

>  <Standardized_SMILES>  (82) 
COc1cccc(Cn2c(=O)c(-c3cccs3)nc3cnc(N4CCN(C)CC4)nc32)c1

>  <Name>  (82) 
nan

>  <Pocket>  (82) 
nan

>  <ATP_Site>  (82) 
nan

>  <Peripheral>  (82) 
nan

>  <Num_H_Atoms_ProtBoundConf>  (82) 
nan

>  <Num_Resolved_Atoms>  (82) 
nan

>  <Num_Not_Resolved_Atoms>  (82) 
nan

$$$$
CHEMBL1474681
     RDKit          3D

  0  0  0  0  0  0  0  0  0  0999 V3000
M  V30 BEGIN CTAB
M  V30 COUNTS 32 34 0 0 0
M  V30 BEGIN ATOM
M  V30 1 Cl -0.313274 -3.364614 1.575913 0
M  V30 2 C 1.220088 -2.692797 2.032097 0
M  V30 3 C 1.876501 -2.956295 3.231666 0
M  V30 4 C 3.099422 -2.394332 3.547819 0
M  V30 5 C 3.702447 -1.540053 2.651912 0
M  V30 6 C 3.044437 -1.289187 1.473613 0
M  V30 7 C 1.822381 -1.838562 1.135464 0
M  V30 8 C 1.286244 -1.441571 -0.175538 0
M  V30 9 C 1.579914 -2.168647 -1.312312 0
M  V30 10 N 1.082207 -1.794125 -2.507492 0
M  V30 11 C 0.289859 -0.683951 -2.539671 0
M  V30 12 N -0.001696 0.030587 -1.437655 0
M  V30 13 C 0.471173 -0.303437 -0.222755 0
M  V30 14 N 0.137271 0.481658 0.916150 0
M  V30 15 C -0.707852 1.658405 0.856427 0
M  V30 16 C -2.012337 1.370230 0.368600 0
M  V30 17 C -3.165803 0.997446 1.095130 0
M  V30 18 C -4.323189 0.771251 0.393594 0
M  V30 19 C -4.301920 0.923194 -1.023815 0
M  V30 20 S -2.534705 1.414091 -1.360904 0
M  V30 21 H 1.388392 -3.628211 3.921197 0
M  V30 22 H 3.597819 -2.604671 4.477341 0
M  V30 23 H 4.646771 -1.109787 2.902742 0
M  V30 24 H 3.568277 -0.603027 0.797294 0
M  V30 25 H 2.220907 -3.043665 -1.202277 0
M  V30 26 H -0.092677 -0.409812 -3.508187 0
M  V30 27 H 0.557422 0.137238 1.819404 0
M  V30 28 H -0.792605 2.050867 1.894652 0
M  V30 29 H -0.230536 2.503471 0.288518 0
M  V30 30 H -3.108468 0.901412 2.167470 0
M  V30 31 H -5.257119 0.483184 0.849011 0
M  V30 32 H -5.051466 0.799412 -1.698034 0
M  V30 END ATOM
M  V30 BEGIN BOND
M  V30 1 1 1 2
M  V30 2 2 2 3
M  V30 3 1 3 4
M  V30 4 2 4 5
M  V30 5 1 5 6
M  V30 6 2 6 7
M  V30 7 1 7 8
M  V30 8 2 8 9
M  V30 9 1 9 10
M  V30 10 2 10 11
M  V30 11 1 11 12
M  V30 12 2 12 13
M  V30 13 1 13 14
M  V30 14 1 14 15
M  V30 15 1 15 16
M  V30 16 2 16 17
M  V30 17 1 17 18
M  V30 18 2 18 19
M  V30 19 1 19 20
M  V30 20 1 7 2
M  V30 21 1 13 8
M  V30 22 1 20 16
M  V30 23 1 3 21
M  V30 24 1 4 22
M  V30 25 1 5 23
M  V30 26 1 6 24
M  V30 27 1 9 25
M  V30 28 1 11 26
M  V30 29 1 14 27
M  V30 30 1 15 28
M  V30 31 1 15 29
M  V30 32 1 17 30
M  V30 33 1 18 31
M  V30 34 1 19 32
M  V30 END BOND
M  V30 END CTAB
M  END
>  <Dataset>  (83) 
ChEMBL_Kinases

>  <Ligand_Instance>  (83) 
nan

>  <PDB_ID>  (83) 
nan

>  <Standardized_SMILES>  (83) 
Clc1ccccc1-c1cncnc1NCc1cccs1

>  <Name>  (83) 
nan

>  <Pocket>  (83) 
nan

>  <ATP_Site>  (83) 
nan

>  <Peripheral>  (83) 
nan

>  <Num_H_Atoms_ProtBoundConf>  (83) 
nan

>  <Num_Resolved_Atoms>  (83) 
nan

>  <Num_Not_Resolved_Atoms>  (83) 
nan

$$$$
CHEMBL1475
     RDKit          3D

  0  0  0  0  0  0  0  0  0  0999 V3000
M  V30 BEGIN CTAB
M  V30 COUNTS 29 31 0 0 0
M  V30 BEGIN ATOM
M  V30 1 C -0.702213 -3.612078 4.331511 0
M  V30 2 C -0.323418 -2.668804 3.227786 0
M  V30 3 C -1.282112 -2.126654 2.364792 0
M  V30 4 C -0.530442 -1.332224 1.519308 0
M  V30 5 C -0.878472 -0.527598 0.447384 0
M  V30 6 C 0.066308 0.200392 -0.277644 0
M  V30 7 C -0.370624 0.970070 -1.323222 0
M  V30 8 C -1.793814 1.065245 -1.718600 0
M  V30 9 C 0.582062 1.696213 -2.044401 0
M  V30 10 C 1.877527 1.536911 -1.593813 0
M  V30 11 O 2.825621 2.144660 -2.168117 0
M  V30 12 O 2.245423 0.785243 -0.584130 0
M  V30 13 C 1.377695 0.075519 0.133071 0
M  V30 14 C 1.771544 -0.713067 1.193880 0
M  V30 15 C 3.209524 -0.775852 1.551700 0
M  V30 16 C 0.803913 -1.415549 1.882629 0
M  V30 17 O 0.877440 -2.237401 2.922708 0
M  V30 18 H 0.196851 -4.094988 4.712695 0
M  V30 19 H -1.205513 -3.055511 5.139951 0
M  V30 20 H -1.418512 -4.381569 3.970899 0
M  V30 21 H -2.330320 -2.289911 2.364846 0
M  V30 22 H -1.934659 -0.492423 0.198208 0
M  V30 23 H -1.859970 1.434375 -2.777747 0
M  V30 24 H -2.209255 0.034960 -1.754475 0
M  V30 25 H -2.392938 1.755378 -1.119001 0
M  V30 26 H 0.335511 2.331348 -2.885057 0
M  V30 27 H 3.725382 -1.568728 0.977262 0
M  V30 28 H 3.722615 0.172867 1.331210 0
M  V30 29 H 3.337744 -0.963224 2.625065 0
M  V30 END ATOM
M  V30 BEGIN BOND
M  V30 1 1 1 2
M  V30 2 2 2 3
M  V30 3 1 3 4
M  V30 4 2 4 5
M  V30 5 1 5 6
M  V30 6 1 6 7
M  V30 7 1 7 8
M  V30 8 2 7 9
M  V30 9 1 9 10
M  V30 10 2 10 11
M  V30 11 1 10 12
M  V30 12 1 12 13
M  V30 13 1 13 14
M  V30 14 1 14 15
M  V30 15 2 14 16
M  V30 16 1 16 17
M  V30 17 1 17 2
M  V30 18 1 16 4
M  V30 19 2 13 6
M  V30 20 1 1 18
M  V30 21 1 1 19
M  V30 22 1 1 20
M  V30 23 1 3 21
M  V30 24 1 5 22
M  V30 25 1 8 23
M  V30 26 1 8 24
M  V30 27 1 8 25
M  V30 28 1 9 26
M  V30 29 1 15 27
M  V30 30 1 15 28
M  V30 31 1 15 29
M  V30 END BOND
M  V30 END CTAB
M  END
>  <Dataset>  (84) 
ChEMBL_Kinases

>  <Ligand_Instance>  (84) 
nan

>  <PDB_ID>  (84) 
nan

>  <Standardized_SMILES>  (84) 
Cc1cc2cc3c(C)cc(=O)oc3c(C)c2o1

>  <Name>  (84) 
TRIOXSALEN

>  <Pocket>  (84) 
nan

>  <ATP_Site>  (84) 
nan

>  <Peripheral>  (84) 
nan

>  <Num_H_Atoms_ProtBoundConf>  (84) 
nan

>  <Num_Resolved_Atoms>  (84) 
nan

>  <Num_Not_Resolved_Atoms>  (84) 
nan

$$$$
CHEMBL1475255
     RDKit          3D

  0  0  0  0  0  0  0  0  0  0999 V3000
M  V30 BEGIN CTAB
M  V30 COUNTS 41 44 0 0 0
M  V30 BEGIN ATOM
M  V30 1 C 3.161618 -5.825318 0.635398 0
M  V30 2 N 2.162240 -5.361546 1.592570 0
M  V30 3 C 1.783235 -6.267006 2.641716 0
M  V30 4 C 1.593594 -4.067811 1.483756 0
M  V30 5 C 0.643340 -3.566201 2.355380 0
M  V30 6 C 0.105935 -2.301284 2.225758 0
M  V30 7 C 0.532095 -1.501063 1.184421 0
M  V30 8 C -0.029264 -0.159988 1.036486 0
M  V30 9 N 0.373070 0.634933 0.028424 0
M  V30 10 C -0.130654 1.884744 -0.133773 0
M  V30 11 N 0.242933 2.780771 -1.169964 0
M  V30 12 C -0.062076 2.826701 -2.479877 0
M  V30 13 C 0.583668 3.929350 -3.033932 0
M  V30 14 N 1.268148 4.527747 -2.039500 0
M  V30 15 C 1.065887 3.829845 -0.888392 0
M  V30 16 C -1.089206 2.345450 0.774131 0
M  V30 17 C -1.616729 3.599546 0.639045 0
M  V30 18 C -2.563437 4.027775 1.552754 0
M  V30 19 C -2.975257 3.207663 2.588676 0
M  V30 20 C -2.449808 1.925716 2.744027 0
M  V30 21 C -1.500542 1.518210 1.813975 0
M  V30 22 N -0.952110 0.294368 1.903718 0
M  V30 23 C 1.477302 -1.934770 0.276035 0
M  V30 24 C 1.984678 -3.225938 0.459915 0
M  V30 25 H 3.169846 -6.953773 0.599158 0
M  V30 26 H 2.904031 -5.538775 -0.414344 0
M  V30 27 H 4.187766 -5.521680 0.933509 0
M  V30 28 H 2.590198 -7.034675 2.825719 0
M  V30 29 H 1.509091 -5.763041 3.598667 0
M  V30 30 H 0.898214 -6.876647 2.352172 0
M  V30 31 H 0.304969 -4.174459 3.164988 0
M  V30 32 H -0.632609 -1.962516 2.935632 0
M  V30 33 H -0.710114 2.077067 -2.913642 0
M  V30 34 H 0.439428 4.108819 -4.090824 0
M  V30 35 H 1.534758 4.151695 0.036991 0
M  V30 36 H -1.331636 4.282753 -0.151337 0
M  V30 37 H -2.991826 5.032362 1.451836 0
M  V30 38 H -3.708121 3.512969 3.312611 0
M  V30 39 H -2.750489 1.259159 3.543373 0
M  V30 40 H 1.808515 -1.305974 -0.537657 0
M  V30 41 H 2.722155 -3.511228 -0.282517 0
M  V30 END ATOM
M  V30 BEGIN BOND
M  V30 1 1 1 2
M  V30 2 1 2 3
M  V30 3 1 2 4
M  V30 4 2 4 5
M  V30 5 1 5 6
M  V30 6 2 6 7
M  V30 7 1 7 8
M  V30 8 2 8 9
M  V30 9 1 9 10
M  V30 10 1 10 11
M  V30 11 1 11 12
M  V30 12 2 12 13
M  V30 13 1 13 14
M  V30 14 2 14 15
M  V30 15 2 10 16
M  V30 16 1 16 17
M  V30 17 2 17 18
M  V30 18 1 18 19
M  V30 19 2 19 20
M  V30 20 1 20 21
M  V30 21 2 21 22
M  V30 22 1 7 23
M  V30 23 2 23 24
M  V30 24 1 24 4
M  V30 25 1 22 8
M  V30 26 1 15 11
M  V30 27 1 21 16
M  V30 28 1 1 25
M  V30 29 1 1 26
M  V30 30 1 1 27
M  V30 31 1 3 28
M  V30 32 1 3 29
M  V30 33 1 3 30
M  V30 34 1 5 31
M  V30 35 1 6 32
M  V30 36 1 12 33
M  V30 37 1 13 34
M  V30 38 1 15 35
M  V30 39 1 17 36
M  V30 40 1 18 37
M  V30 41 1 19 38
M  V30 42 1 20 39
M  V30 43 1 23 40
M  V30 44 1 24 41
M  V30 END BOND
M  V30 END CTAB
M  END
>  <Dataset>  (85) 
ChEMBL_Kinases

>  <Ligand_Instance>  (85) 
nan

>  <PDB_ID>  (85) 
nan

>  <Standardized_SMILES>  (85) 
CN(C)c1ccc(-c2nc(-n3ccnc3)c3ccccc3n2)cc1

>  <Name>  (85) 
nan

>  <Pocket>  (85) 
nan

>  <ATP_Site>  (85) 
nan

>  <Peripheral>  (85) 
nan

>  <Num_H_Atoms_ProtBoundConf>  (85) 
nan

>  <Num_Resolved_Atoms>  (85) 
nan

>  <Num_Not_Resolved_Atoms>  (85) 
nan

$$$$
CHEMBL1476670
     RDKit          3D

  0  0  0  0  0  0  0  0  0  0999 V3000
M  V30 BEGIN CTAB
M  V30 COUNTS 55 59 0 0 0
M  V30 BEGIN ATOM
M  V30 1 C 4.994478 -3.342095 0.836495 0
M  V30 2 O 3.793780 -2.878270 0.258565 0
M  V30 3 C 3.717300 -1.544567 -0.102828 0
M  V30 4 C 4.770830 -0.671828 0.087086 0
M  V30 5 C 4.767494 0.664490 -0.248309 0
M  V30 6 C 3.584826 1.102081 -0.816231 0
M  V30 7 C 2.456614 0.350635 -1.064870 0
M  V30 8 C 1.216845 0.864823 -1.686890 0
M  V30 9 N 0.286424 1.458898 -0.756128 0
M  V30 10 C 0.331999 2.770741 -0.465866 0
M  V30 11 O 1.207835 3.483854 -1.023283 0
M  V30 12 C -0.528896 3.406930 0.414043 0
M  V30 13 C -0.500668 4.814475 0.763354 0
M  V30 14 C 0.339188 5.787734 0.367699 0
M  V30 15 C 0.212138 7.050241 0.808859 0
M  V30 16 C -0.879771 7.285364 1.730570 0
M  V30 17 S -1.642596 5.551093 1.860236 0
M  V30 18 N -1.442142 2.603092 0.974698 0
M  V30 19 C -1.504793 1.290263 0.698421 0
M  V30 20 C -2.511020 0.581529 1.369119 0
M  V30 21 N -2.529508 -0.717599 1.068275 0
M  V30 22 C -1.724826 -1.372748 0.234460 0
M  V30 23 N -1.891392 -2.769432 0.059010 0
M  V30 24 C -2.938770 -3.520463 0.647448 0
M  V30 25 C -4.151185 -3.026553 1.037211 0
M  V30 26 C -5.120586 -3.825239 1.663679 0
M  V30 27 C -4.735482 -5.151852 1.848719 0
M  V30 28 C -3.530450 -5.720658 1.480692 0
M  V30 29 O -3.519822 -7.055137 1.830090 0
M  V30 30 C -2.372362 -7.815420 1.537927 0
M  V30 31 C -2.666058 -4.848690 0.879378 0
M  V30 32 N -0.785426 -0.634365 -0.374245 0
M  V30 33 C -0.637527 0.682484 -0.177513 0
M  V30 34 C 2.594399 -0.971076 -0.680496 0
M  V30 35 H 5.878885 -3.023648 0.241464 0
M  V30 36 H 4.964885 -4.455561 0.756206 0
M  V30 37 H 5.110566 -2.991721 1.885706 0
M  V30 38 H 5.710463 -1.021459 0.538970 0
M  V30 39 H 5.598284 1.329813 -0.091944 0
M  V30 40 H 3.577057 2.156631 -1.089707 0
M  V30 41 H 1.523154 1.577750 -2.488596 0
M  V30 42 H 0.731946 -0.027888 -2.184870 0
M  V30 43 H 1.166457 5.653617 -0.315721 0
M  V30 44 H 0.758968 7.962363 0.624487 0
M  V30 45 H -1.185165 8.318958 2.244728 0
M  V30 46 H -3.233090 0.961722 2.068720 0
M  V30 47 H -1.174051 -3.218079 -0.546953 0
M  V30 48 H -4.412934 -2.001335 0.867029 0
M  V30 49 H -6.042083 -3.380975 1.941364 0
M  V30 50 H -5.573962 -5.666407 2.376737 0
M  V30 51 H -2.201296 -7.865806 0.431936 0
M  V30 52 H -2.438346 -8.804439 1.996307 0
M  V30 53 H -1.500638 -7.263160 2.000975 0
M  V30 54 H -1.736747 -5.388473 0.621339 0
M  V30 55 H 1.761860 -1.675574 -0.830307 0
M  V30 END ATOM
M  V30 BEGIN BOND
M  V30 1 1 1 2
M  V30 2 1 2 3
M  V30 3 2 3 4
M  V30 4 1 4 5
M  V30 5 2 5 6
M  V30 6 1 6 7
M  V30 7 1 7 8
M  V30 8 1 8 9
M  V30 9 1 9 10
M  V30 10 2 10 11
M  V30 11 1 10 12
M  V30 12 1 12 13
M  V30 13 2 13 14
M  V30 14 1 14 15
M  V30 15 2 15 16
M  V30 16 1 16 17
M  V30 17 2 12 18
M  V30 18 1 18 19
M  V30 19 2 19 20
M  V30 20 1 20 21
M  V30 21 2 21 22
M  V30 22 1 22 23
M  V30 23 1 23 24
M  V30 24 2 24 25
M  V30 25 1 25 26
M  V30 26 2 26 27
M  V30 27 1 27 28
M  V30 28 1 28 29
M  V30 29 1 29 30
M  V30 30 2 28 31
M  V30 31 1 22 32
M  V30 32 2 32 33
M  V30 33 2 7 34
M  V30 34 1 34 3
M  V30 35 1 33 9
M  V30 36 1 17 13
M  V30 37 1 33 19
M  V30 38 1 31 24
M  V30 39 1 1 35
M  V30 40 1 1 36
M  V30 41 1 1 37
M  V30 42 1 4 38
M  V30 43 1 5 39
M  V30 44 1 6 40
M  V30 45 1 8 41
M  V30 46 1 8 42
M  V30 47 1 14 43
M  V30 48 1 15 44
M  V30 49 1 16 45
M  V30 50 1 20 46
M  V30 51 1 23 47
M  V30 52 1 25 48
M  V30 53 1 26 49
M  V30 54 1 27 50
M  V30 55 1 30 51
M  V30 56 1 30 52
M  V30 57 1 30 53
M  V30 58 1 31 54
M  V30 59 1 34 55
M  V30 END BOND
M  V30 END CTAB
M  END
>  <Dataset>  (86) 
ChEMBL_Kinases

>  <Ligand_Instance>  (86) 
nan

>  <PDB_ID>  (86) 
nan

>  <Standardized_SMILES>  (86) 
COc1cccc(Cn2c(=O)c(-c3cccs3)nc3cnc(Nc4cccc(OC)c4)nc32)c1

>  <Name>  (86) 
nan

>  <Pocket>  (86) 
nan

>  <ATP_Site>  (86) 
nan

>  <Peripheral>  (86) 
nan

>  <Num_H_Atoms_ProtBoundConf>  (86) 
nan

>  <Num_Resolved_Atoms>  (86) 
nan

>  <Num_Not_Resolved_Atoms>  (86) 
nan

$$$$
CHEMBL1475487
     RDKit          3D

  0  0  0  0  0  0  0  0  0  0999 V3000
M  V30 BEGIN CTAB
M  V30 COUNTS 33 35 0 0 0
M  V30 BEGIN ATOM
M  V30 1 C -1.119192 -2.183182 2.748994 0
M  V30 2 N -0.963511 -2.882793 1.463845 0
M  V30 3 C -2.234908 -3.549995 1.147209 0
M  V30 4 C 0.164657 -2.968707 0.598234 0
M  V30 5 N 0.674625 -4.158475 0.305858 0
M  V30 6 C 1.738894 -4.310335 -0.506938 0
M  V30 7 N 2.303733 -3.201125 -1.041644 0
M  V30 8 C 1.828334 -1.975015 -0.779180 0
M  V30 9 C 2.424109 -0.862004 -1.337434 0
M  V30 10 C 1.932011 0.402984 -1.064690 0
M  V30 11 C 0.825887 0.538770 -0.218110 0
M  V30 12 C 0.211640 1.816987 0.148291 0
M  V30 13 C -1.121227 2.042118 0.437658 0
M  V30 14 C -1.534907 3.318611 0.766297 0
M  V30 15 C -0.639382 4.364910 0.808872 0
M  V30 16 N 0.649402 4.118136 0.523305 0
M  V30 17 C 1.095435 2.880891 0.196500 0
M  V30 18 C 0.233349 -0.585646 0.338649 0
M  V30 19 C 0.739698 -1.834236 0.053444 0
M  V30 20 H -1.393212 -2.934843 3.534755 0
M  V30 21 H -0.200742 -1.672465 3.050173 0
M  V30 22 H -2.008002 -1.512021 2.669283 0
M  V30 23 H -2.168410 -4.176083 0.243722 0
M  V30 24 H -2.409225 -4.257375 2.003460 0
M  V30 25 H -3.085661 -2.857596 1.119228 0
M  V30 26 H 2.141869 -5.291862 -0.735017 0
M  V30 27 H 3.291242 -0.933017 -2.004015 0
M  V30 28 H 2.341351 1.334905 -1.462301 0
M  V30 29 H -1.747634 1.162906 0.378814 0
M  V30 30 H -2.573659 3.455470 0.984107 0
M  V30 31 H -1.003029 5.349715 1.070521 0
M  V30 32 H 2.161603 2.891295 0.002966 0
M  V30 33 H -0.614159 -0.512990 0.990251 0
M  V30 END ATOM
M  V30 BEGIN BOND
M  V30 1 1 1 2
M  V30 2 1 2 3
M  V30 3 1 2 4
M  V30 4 2 4 5
M  V30 5 1 5 6
M  V30 6 2 6 7
M  V30 7 1 7 8
M  V30 8 2 8 9
M  V30 9 1 9 10
M  V30 10 2 10 11
M  V30 11 1 11 12
M  V30 12 2 12 13
M  V30 13 1 13 14
M  V30 14 2 14 15
M  V30 15 1 15 16
M  V30 16 2 16 17
M  V30 17 1 11 18
M  V30 18 2 18 19
M  V30 19 1 19 4
M  V30 20 1 19 8
M  V30 21 1 17 12
M  V30 22 1 1 20
M  V30 23 1 1 21
M  V30 24 1 1 22
M  V30 25 1 3 23
M  V30 26 1 3 24
M  V30 27 1 3 25
M  V30 28 1 6 26
M  V30 29 1 9 27
M  V30 30 1 10 28
M  V30 31 1 13 29
M  V30 32 1 14 30
M  V30 33 1 15 31
M  V30 34 1 17 32
M  V30 35 1 18 33
M  V30 END BOND
M  V30 END CTAB
M  END
>  <Dataset>  (87) 
ChEMBL_Kinases

>  <Ligand_Instance>  (87) 
nan

>  <PDB_ID>  (87) 
nan

>  <Standardized_SMILES>  (87) 
CN(C)c1ncnc2ccc(-c3cccnc3)cc12

>  <Name>  (87) 
nan

>  <Pocket>  (87) 
nan

>  <ATP_Site>  (87) 
nan

>  <Peripheral>  (87) 
nan

>  <Num_H_Atoms_ProtBoundConf>  (87) 
nan

>  <Num_Resolved_Atoms>  (87) 
nan

>  <Num_Not_Resolved_Atoms>  (87) 
nan

$$$$
CHEMBL1475657
     RDKit          3D

  0  0  0  0  0  0  0  0  0  0999 V3000
M  V30 BEGIN CTAB
M  V30 COUNTS 43 46 0 0 0
M  V30 BEGIN ATOM
M  V30 1 N 3.087973 0.058610 3.580680 0
M  V30 2 C 2.568639 -0.788722 2.961025 0
M  V30 3 C 1.923754 -1.857554 2.210945 0
M  V30 4 C 1.782134 -1.476087 0.769771 0
M  V30 5 N 0.987786 -0.295339 0.654526 0
M  V30 6 C 1.368081 0.992933 0.630465 0
M  V30 7 O 2.588428 1.182279 0.712120 0
M  V30 8 C 0.476032 2.038699 0.522221 0
M  V30 9 C 1.016194 3.405754 0.507099 0
M  V30 10 C 0.652803 4.428016 -0.345411 0
M  V30 11 C 1.248574 5.656781 -0.238114 0
M  V30 12 F 0.851127 6.627218 -1.104944 0
M  V30 13 C 2.216858 5.916570 0.708022 0
M  V30 14 C 2.578485 4.887297 1.561713 0
M  V30 15 F 3.544824 5.225804 2.470748 0
M  V30 16 C 1.989259 3.631429 1.473630 0
M  V30 17 N -0.841299 1.760740 0.435856 0
M  V30 18 C -1.273122 0.467384 0.456021 0
M  V30 19 C -2.632051 0.299603 0.361982 0
M  V30 20 N -3.066355 -0.972228 0.381089 0
M  V30 21 C -2.195715 -2.017034 0.487840 0
M  V30 22 O -2.666746 -3.340432 0.506303 0
M  V30 23 C -1.789596 -4.417836 0.614828 0
M  V30 24 C -1.340816 -4.904387 -0.617498 0
M  V30 25 C -0.468794 -5.965652 -0.705432 0
M  V30 26 C -0.030844 -6.560194 0.475836 0
M  V30 27 C -0.466238 -6.089365 1.695463 0
M  V30 28 Cl 0.059621 -6.808321 3.214888 0
M  V30 29 C -1.341487 -5.023702 1.774356 0
M  V30 30 N -0.874046 -1.784398 0.576499 0
M  V30 31 C -0.350825 -0.550064 0.565502 0
M  V30 32 H 0.893047 -2.016678 2.626424 0
M  V30 33 H 2.512284 -2.804903 2.310772 0
M  V30 34 H 2.823611 -1.333571 0.380726 0
M  V30 35 H 1.363158 -2.321151 0.184051 0
M  V30 36 H -0.108873 4.167806 -1.064859 0
M  V30 37 H 2.661438 6.897493 0.759660 0
M  V30 38 H 2.393688 2.966826 2.212250 0
M  V30 39 H -3.306284 1.133259 0.278326 0
M  V30 40 H -1.660228 -4.466103 -1.571847 0
M  V30 41 H -0.125426 -6.336695 -1.672592 0
M  V30 42 H 0.665461 -7.410022 0.453674 0
M  V30 43 H -1.739546 -4.583444 2.694177 0
M  V30 END ATOM
M  V30 BEGIN BOND
M  V30 1 3 1 2
M  V30 2 1 2 3
M  V30 3 1 3 4
M  V30 4 1 4 5
M  V30 5 1 5 6
M  V30 6 2 6 7
M  V30 7 1 6 8
M  V30 8 1 8 9
M  V30 9 2 9 10
M  V30 10 1 10 11
M  V30 11 1 11 12
M  V30 12 2 11 13
M  V30 13 1 13 14
M  V30 14 1 14 15
M  V30 15 2 14 16
M  V30 16 2 8 17
M  V30 17 1 17 18
M  V30 18 2 18 19
M  V30 19 1 19 20
M  V30 20 2 20 21
M  V30 21 1 21 22
M  V30 22 1 22 23
M  V30 23 2 23 24
M  V30 24 1 24 25
M  V30 25 2 25 26
M  V30 26 1 26 27
M  V30 27 1 27 28
M  V30 28 2 27 29
M  V30 29 1 21 30
M  V30 30 2 30 31
M  V30 31 1 31 5
M  V30 32 1 16 9
M  V30 33 1 31 18
M  V30 34 1 29 23
M  V30 35 1 3 32
M  V30 36 1 3 33
M  V30 37 1 4 34
M  V30 38 1 4 35
M  V30 39 1 10 36
M  V30 40 1 13 37
M  V30 41 1 16 38
M  V30 42 1 19 39
M  V30 43 1 24 40
M  V30 44 1 25 41
M  V30 45 1 26 42
M  V30 46 1 29 43
M  V30 END BOND
M  V30 END CTAB
M  END
>  <Dataset>  (88) 
ChEMBL_Kinases

>  <Ligand_Instance>  (88) 
nan

>  <PDB_ID>  (88) 
nan

>  <Standardized_SMILES>  (88) 
N#CCCn1c(=O)c(-c2cc(F)cc(F)c2)nc2cnc(Oc3cccc(Cl)c3)nc21

>  <Name>  (88) 
nan

>  <Pocket>  (88) 
nan

>  <ATP_Site>  (88) 
nan

>  <Peripheral>  (88) 
nan

>  <Num_H_Atoms_ProtBoundConf>  (88) 
nan

>  <Num_Resolved_Atoms>  (88) 
nan

>  <Num_Not_Resolved_Atoms>  (88) 
nan

$$$$
CHEMBL1475695
     RDKit          3D

  0  0  0  0  0  0  0  0  0  0999 V3000
M  V30 BEGIN CTAB
M  V30 COUNTS 47 50 0 0 0
M  V30 BEGIN ATOM
M  V30 1 C 1.363045 -3.833878 0.756452 0
M  V30 2 S 1.815228 -4.257445 -0.899449 0
M  V30 3 O 2.417145 -5.630031 -0.894811 0
M  V30 4 O 0.578605 -4.335001 -1.756847 0
M  V30 5 N 2.921519 -3.108997 -1.589177 0
M  V30 6 C 2.538201 -1.750531 -1.752612 0
M  V30 7 C 2.901934 -1.264948 -3.013955 0
M  V30 8 C 2.633562 0.032349 -3.404099 0
M  V30 9 C 1.986321 0.866856 -2.514767 0
M  V30 10 C 1.624450 0.396176 -1.269818 0
M  V30 11 C 0.939364 1.259435 -0.310048 0
M  V30 12 C 1.298241 2.591119 -0.409501 0
M  V30 13 C 0.695385 3.481627 0.463419 0
M  V30 14 C -0.230324 3.095524 1.408613 0
M  V30 15 N -0.846431 3.932867 2.262309 0
M  V30 16 C -1.749359 3.464945 3.143634 0
M  V30 17 N -2.056237 2.160114 3.194535 0
M  V30 18 C -1.481590 1.240361 2.369532 0
M  V30 19 N -1.859138 -0.140096 2.569777 0
M  V30 20 C -3.288402 -0.298838 2.886652 0
M  V30 21 C -3.356989 -1.065832 4.185156 0
M  V30 22 O -2.778993 -2.330413 4.036840 0
M  V30 23 C -1.444862 -2.268908 3.750682 0
M  V30 24 C -1.101687 -1.378767 2.548996 0
M  V30 25 C -0.568203 1.765707 1.486539 0
M  V30 26 C 0.015371 0.861232 0.630449 0
M  V30 27 C 1.902550 -0.903528 -0.901121 0
M  V30 28 H 2.190670 -3.343293 1.277914 0
M  V30 29 H 1.175534 -4.791241 1.306858 0
M  V30 30 H 0.410279 -3.260652 0.791157 0
M  V30 31 H 3.871326 -3.452469 -1.876731 0
M  V30 32 H 3.418633 -1.844772 -3.792515 0
M  V30 33 H 2.901076 0.434226 -4.367394 0
M  V30 34 H 1.771166 1.884319 -2.809603 0
M  V30 35 H 2.011520 3.005187 -1.111022 0
M  V30 36 H 0.952999 4.531084 0.412700 0
M  V30 37 H -2.225715 4.182097 3.817742 0
M  V30 38 H -3.804986 0.646450 3.030046 0
M  V30 39 H -3.789870 -0.865126 2.072179 0
M  V30 40 H -2.878907 -0.476040 4.982310 0
M  V30 41 H -4.419985 -1.237298 4.409294 0
M  V30 42 H -1.106775 -3.287502 3.457202 0
M  V30 43 H -0.814047 -1.961156 4.608948 0
M  V30 44 H 0.000627 -1.216714 2.632534 0
M  V30 45 H -1.402664 -1.944816 1.646568 0
M  V30 46 H -0.196574 -0.174611 0.607865 0
M  V30 47 H 1.657072 -1.353038 0.048164 0
M  V30 END ATOM
M  V30 BEGIN BOND
M  V30 1 1 1 2
M  V30 2 2 2 3
M  V30 3 2 2 4
M  V30 4 1 2 5
M  V30 5 1 5 6
M  V30 6 2 6 7
M  V30 7 1 7 8
M  V30 8 2 8 9
M  V30 9 1 9 10
M  V30 10 1 10 11
M  V30 11 2 11 12
M  V30 12 1 12 13
M  V30 13 2 13 14
M  V30 14 1 14 15
M  V30 15 2 15 16
M  V30 16 1 16 17
M  V30 17 2 17 18
M  V30 18 1 18 19
M  V30 19 1 19 20
M  V30 20 1 20 21
M  V30 21 1 21 22
M  V30 22 1 22 23
M  V30 23 1 23 24
M  V30 24 1 18 25
M  V30 25 2 25 26
M  V30 26 2 10 27
M  V30 27 1 27 6
M  V30 28 1 26 11
M  V30 29 1 25 14
M  V30 30 1 24 19
M  V30 31 1 1 28
M  V30 32 1 1 29
M  V30 33 1 1 30
M  V30 34 1 5 31
M  V30 35 1 7 32
M  V30 36 1 8 33
M  V30 37 1 9 34
M  V30 38 1 12 35
M  V30 39 1 13 36
M  V30 40 1 16 37
M  V30 41 1 20 38
M  V30 42 1 20 39
M  V30 43 1 21 40
M  V30 44 1 21 41
M  V30 45 1 23 42
M  V30 46 1 23 43
M  V30 47 1 24 44
M  V30 48 1 24 45
M  V30 49 1 26 46
M  V30 50 1 27 47
M  V30 END BOND
M  V30 END CTAB
M  END
>  <Dataset>  (89) 
ChEMBL_Kinases

>  <Ligand_Instance>  (89) 
nan

>  <PDB_ID>  (89) 
nan

>  <Standardized_SMILES>  (89) 
CS(=O)(=O)Nc1cccc(-c2ccc3ncnc(N4CCOCC4)c3c2)c1

>  <Name>  (89) 
nan

>  <Pocket>  (89) 
nan

>  <ATP_Site>  (89) 
nan

>  <Peripheral>  (89) 
nan

>  <Num_H_Atoms_ProtBoundConf>  (89) 
nan

>  <Num_Resolved_Atoms>  (89) 
nan

>  <Num_Not_Resolved_Atoms>  (89) 
nan

$$$$
CHEMBL1475758
     RDKit          2D

  0  0  0  0  0  0  0  0  0  0999 V3000
M  V30 BEGIN CTAB
M  V30 COUNTS 35 37 0 0 0
M  V30 BEGIN ATOM
M  V30 1 O 3.817278 0.540170 0.000000 0
M  V30 2 C 2.390693 1.003696 0.000000 0
M  V30 3 O 2.078826 2.470917 0.000000 0
M  V30 4 C 1.275976 0.000000 0.000000 0
M  V30 5 C 0.394298 1.213525 0.000000 0
M  V30 6 C -1.032286 0.750000 0.000000 0
M  V30 7 C -1.032286 -0.750000 0.000000 0
M  V30 8 C -1.913964 0.463525 0.000000 0
M  V30 9 Br -3.028682 -0.540170 0.000000 0
M  V30 10 C -1.032286 1.677051 0.000000 0
M  V30 11 N -2.331325 2.427051 0.000000 0
M  V30 12 C -3.701643 1.816946 0.000000 0
M  V30 13 O -4.013510 0.349725 0.000000 0
M  V30 14 C -4.705339 2.931663 0.000000 0
M  V30 15 C -3.955339 4.230701 0.000000 0
M  V30 16 C -2.488117 3.918834 0.000000 0
M  V30 17 O -1.373400 4.922530 0.000000 0
M  V30 18 C 0.394298 -1.213525 0.000000 0
M  V30 19 C 1.693336 -1.963525 0.000000 0
M  V30 20 O 2.811763 -1.488817 0.000000 0
M  V30 21 O 1.693336 -3.463525 0.000000 0
M  V30 22 H 3.193543 3.474613 0.000000 0
M  V30 23 H 2.271265 -0.696869 0.000000 0
M  V30 24 H 0.857824 2.640110 0.000000 0
M  V30 25 H -1.821684 0.860986 0.000000 0
M  V30 26 H -1.689916 2.098156 0.000000 0
M  V30 27 H -2.245812 -1.631678 0.000000 0
M  V30 28 H -3.238424 1.167661 0.000000 0
M  V30 29 H -0.422181 3.047369 0.000000 0
M  V30 30 H -5.709035 1.816946 0.000000 0
M  V30 31 H -5.918864 3.813341 0.000000 0
M  V30 32 H -5.325657 4.840806 0.000000 0
M  V30 33 H -3.491813 5.657286 0.000000 0
M  V30 34 H -0.215807 -2.583844 0.000000 0
M  V30 35 H 2.992375 -4.213525 0.000000 0
M  V30 END ATOM
M  V30 BEGIN BOND
M  V30 1 2 1 2
M  V30 2 1 2 3
M  V30 3 1 2 4
M  V30 4 1 4 5
M  V30 5 1 5 6
M  V30 6 1 6 7
M  V30 7 1 7 8
M  V30 8 1 8 9
M  V30 9 1 8 10
M  V30 10 1 10 11
M  V30 11 1 11 12
M  V30 12 2 12 13
M  V30 13 1 12 14
M  V30 14 1 14 15
M  V30 15 1 15 16
M  V30 16 2 16 17
M  V30 17 1 7 18
M  V30 18 1 18 19
M  V30 19 2 19 20
M  V30 20 1 19 21
M  V30 21 1 18 4
M  V30 22 1 10 5
M  V30 23 1 16 11
M  V30 24 1 3 22
M  V30 25 1 4 23 CFG=3
M  V30 26 1 5 24 CFG=1
M  V30 27 1 6 25
M  V30 28 1 6 26
M  V30 29 1 7 27 CFG=3
M  V30 30 1 8 28 CFG=3
M  V30 31 1 10 29 CFG=3
M  V30 32 1 14 30
M  V30 33 1 14 31
M  V30 34 1 15 32
M  V30 35 1 15 33
M  V30 36 1 18 34 CFG=3
M  V30 37 1 21 35
M  V30 END BOND
M  V30 END CTAB
M  END
>  <Dataset>  (90) 
ChEMBL_Kinases

>  <Ligand_Instance>  (90) 
nan

>  <PDB_ID>  (90) 
nan

>  <Standardized_SMILES>  (90) 
O=C(O)[C@@H]1[C@@H]2C[C@H]([C@@H](Br)[C@H]2N2C(=O)CCC2=O)[C@@H]1C(=O)O

>  <Name>  (90) 
nan

>  <Pocket>  (90) 
nan

>  <ATP_Site>  (90) 
nan

>  <Peripheral>  (90) 
nan

>  <Num_H_Atoms_ProtBoundConf>  (90) 
nan

>  <Num_Resolved_Atoms>  (90) 
nan

>  <Num_Not_Resolved_Atoms>  (90) 
nan

$$$$
CHEMBL1475782
     RDKit          3D

  0  0  0  0  0  0  0  0  0  0999 V3000
M  V30 BEGIN CTAB
M  V30 COUNTS 55 58 0 0 0
M  V30 BEGIN ATOM
M  V30 1 C 0.624695 -1.934252 0.403041 0
M  V30 2 C 0.588452 -0.587085 1.010958 0 CFG=1
M  V30 3 C 1.591352 -0.647057 2.171684 0
M  V30 4 C 2.949869 -1.085191 1.773979 0
M  V30 5 C 3.447480 -0.526238 0.462614 0
M  V30 6 O 4.767914 -0.045536 0.552288 0
M  V30 7 S 5.642651 -0.821941 -0.653665 0
M  V30 8 O 7.005773 -1.215535 -0.143384 0
M  V30 9 O 5.762206 0.153998 -1.792113 0
M  V30 10 O 4.876441 -2.230755 -1.153176 0
M  V30 11 C 2.602269 0.703030 0.193410 0
M  V30 12 C 1.144750 0.406402 0.032688 0 CFG=2
M  V30 13 C 0.419219 1.731819 0.098202 0
M  V30 14 C -0.998335 1.467898 -0.351271 0
M  V30 15 C -1.662679 0.568046 0.641957 0
M  V30 16 C -0.719283 -0.117106 1.577463 0
M  V30 17 C -1.420844 -1.124442 2.417050 0
M  V30 18 C -2.945344 -1.035392 2.269381 0
M  V30 19 C -3.396367 -1.234194 0.851458 0 CFG=2
M  V30 20 C -4.902623 -1.033003 0.867559 0
M  V30 21 C -3.152693 -2.574377 0.302753 0
M  V30 22 O -3.290632 -3.648805 0.848541 0
M  V30 23 C -2.680699 -2.441659 -1.110168 0
M  V30 24 C -2.270186 -0.990424 -1.282757 0
M  V30 25 C -2.680660 -0.264494 -0.058940 0
M  V30 26 H -0.260826 -2.559022 0.481200 0
M  V30 27 H 1.474914 -2.592360 0.741219 0
M  V30 28 H 0.804595 -1.869471 -0.712287 0
M  V30 29 H 1.174625 -1.454023 2.842014 0
M  V30 30 H 1.590621 0.334979 2.652455 0
M  V30 31 H 3.656372 -0.658843 2.546749 0
M  V30 32 H 3.131855 -2.191466 1.860826 0
M  V30 33 H 3.427967 -1.243857 -0.358706 0
M  V30 34 H 4.445664 -2.048918 -2.026021 0
M  V30 35 H 2.939174 1.264265 -0.685614 0
M  V30 36 H 2.717237 1.344636 1.100439 0
M  V30 37 H 1.004349 0.007963 -1.001839 0
M  V30 38 H 0.462110 2.187315 1.090121 0
M  V30 39 H 0.874091 2.370940 -0.690578 0
M  V30 40 H -0.980700 1.116963 -1.384813 0
M  V30 41 H -1.463295 2.496213 -0.411532 0
M  V30 42 H -2.283814 1.267647 1.288895 0
M  V30 43 H -0.393372 0.691181 2.309535 0
M  V30 44 H -1.282085 -0.978109 3.530429 0
M  V30 45 H -1.182276 -2.171027 2.254817 0
M  V30 46 H -3.348617 -1.863349 2.879750 0
M  V30 47 H -3.289282 -0.042083 2.585635 0
M  V30 48 H -5.398724 -1.702038 0.138525 0
M  V30 49 H -5.332282 -1.107443 1.880120 0
M  V30 50 H -5.083442 0.019529 0.541244 0
M  V30 51 H -3.455449 -2.783890 -1.796627 0
M  V30 52 H -1.802412 -3.132254 -1.265581 0
M  V30 53 H -1.208940 -0.899583 -1.582975 0
M  V30 54 H -2.810466 -0.669646 -2.224638 0
M  V30 55 H -3.485238 0.451108 -0.405065 0
M  V30 END ATOM
M  V30 BEGIN BOND
M  V30 1 1 2 1 CFG=3
M  V30 2 1 2 3
M  V30 3 1 3 4
M  V30 4 1 4 5
M  V30 5 1 5 6
M  V30 6 1 6 7
M  V30 7 2 7 8
M  V30 8 2 7 9
M  V30 9 1 7 10
M  V30 10 1 5 11
M  V30 11 1 11 12
M  V30 12 1 12 13
M  V30 13 1 13 14
M  V30 14 1 14 15
M  V30 15 1 15 16
M  V30 16 1 16 17
M  V30 17 1 17 18
M  V30 18 1 18 19
M  V30 19 1 19 20 CFG=1
M  V30 20 1 19 21
M  V30 21 2 21 22
M  V30 22 1 21 23
M  V30 23 1 23 24
M  V30 24 1 24 25
M  V30 25 1 12 2
M  V30 26 1 25 15
M  V30 27 1 16 2
M  V30 28 1 25 19
M  V30 29 1 1 26
M  V30 30 1 1 27
M  V30 31 1 1 28
M  V30 32 1 3 29
M  V30 33 1 3 30
M  V30 34 1 4 31
M  V30 35 1 4 32
M  V30 36 1 5 33
M  V30 37 1 10 34
M  V30 38 1 11 35
M  V30 39 1 11 36
M  V30 40 1 12 37 CFG=3
M  V30 41 1 13 38
M  V30 42 1 13 39
M  V30 43 1 14 40
M  V30 44 1 14 41
M  V30 45 1 15 42
M  V30 46 1 16 43
M  V30 47 1 17 44
M  V30 48 1 17 45
M  V30 49 1 18 46
M  V30 50 1 18 47
M  V30 51 1 20 48
M  V30 52 1 20 49
M  V30 53 1 20 50
M  V30 54 1 23 51
M  V30 55 1 23 52
M  V30 56 1 24 53
M  V30 57 1 24 54
M  V30 58 1 25 55
M  V30 END BOND
M  V30 END CTAB
M  END
>  <Dataset>  (91) 
ChEMBL_Kinases

>  <Ligand_Instance>  (91) 
nan

>  <PDB_ID>  (91) 
nan

>  <Standardized_SMILES>  (91) 
C[C@@]12CCC(OS(=O)(=O)O)C[C@@H]1CCC1C2CC[C@]2(C)C(=O)CCC12

>  <Name>  (91) 
nan

>  <Pocket>  (91) 
nan

>  <ATP_Site>  (91) 
nan

>  <Peripheral>  (91) 
nan

>  <Num_H_Atoms_ProtBoundConf>  (91) 
nan

>  <Num_Resolved_Atoms>  (91) 
nan

>  <Num_Not_Resolved_Atoms>  (91) 
nan

$$$$
CHEMBL1476021
     RDKit          3D

  0  0  0  0  0  0  0  0  0  0999 V3000
M  V30 BEGIN CTAB
M  V30 COUNTS 50 53 0 0 0
M  V30 BEGIN ATOM
M  V30 1 C 0.317052 -5.339704 -1.374474 0
M  V30 2 O 1.643265 -4.930046 -1.214995 0
M  V30 3 C 2.092712 -3.955784 -0.365021 0
M  V30 4 C 3.449717 -3.667659 -0.326720 0
M  V30 5 C 3.952022 -2.691728 0.515585 0
M  V30 6 C 3.067042 -2.007011 1.321935 0
M  V30 7 C 1.688743 -2.246474 1.333714 0
M  V30 8 C 0.827263 -1.467123 2.226038 0
M  V30 9 N 0.303325 -0.257027 1.672268 0
M  V30 10 C 0.967058 0.911123 1.785580 0
M  V30 11 O 2.057264 1.003815 2.369193 0
M  V30 12 C 0.482464 2.091435 1.260275 0
M  V30 13 C 1.153158 3.383594 1.350475 0
M  V30 14 C 1.731847 3.879613 2.502551 0
M  V30 15 C 2.354828 5.112001 2.530875 0
M  V30 16 C 2.414638 5.897802 1.375325 0
M  V30 17 Cl 3.196875 7.481490 1.347893 0
M  V30 18 C 1.847225 5.437291 0.200875 0
M  V30 19 C 1.224214 4.185131 0.206732 0
M  V30 20 N -0.713417 2.042190 0.608710 0
M  V30 21 C -1.397092 0.896521 0.479489 0
M  V30 22 C -2.588941 0.967583 -0.195647 0
M  V30 23 N -3.265895 -0.212837 -0.313152 0
M  V30 24 C -2.793977 -1.369262 0.199986 0
M  V30 25 N -3.595977 -2.526812 0.008674 0
M  V30 26 C -4.846075 -2.404291 -0.710659 0
M  V30 27 C -3.163035 -3.809256 0.529021 0
M  V30 28 N -1.621386 -1.401436 0.855945 0
M  V30 29 C -0.874296 -0.269935 1.022910 0
M  V30 30 C 1.267585 -3.231021 0.469068 0
M  V30 31 H -0.210997 -4.712929 -2.133898 0
M  V30 32 H 0.329956 -6.388720 -1.757290 0
M  V30 33 H -0.179516 -5.290019 -0.375594 0
M  V30 34 H 4.103729 -4.235385 -0.981323 0
M  V30 35 H 5.002704 -2.519363 0.496888 0
M  V30 36 H 3.551743 -1.264392 1.945117 0
M  V30 37 H -0.016638 -2.111796 2.604183 0
M  V30 38 H 1.367848 -1.189361 3.175434 0
M  V30 39 H 1.681719 3.262402 3.399221 0
M  V30 40 H 2.808307 5.499205 3.436263 0
M  V30 41 H 1.854586 5.986779 -0.727008 0
M  V30 42 H 0.772521 3.805910 -0.706199 0
M  V30 43 H -2.980900 1.884865 -0.612384 0
M  V30 44 H -4.816265 -2.882706 -1.717698 0
M  V30 45 H -5.681717 -2.918531 -0.158885 0
M  V30 46 H -5.090057 -1.335587 -0.881190 0
M  V30 47 H -2.109253 -3.922375 0.195907 0
M  V30 48 H -3.796529 -4.636071 0.213493 0
M  V30 49 H -3.100231 -3.715928 1.650222 0
M  V30 50 H 0.232305 -3.459616 0.431554 0
M  V30 END ATOM
M  V30 BEGIN BOND
M  V30 1 1 1 2
M  V30 2 1 2 3
M  V30 3 2 3 4
M  V30 4 1 4 5
M  V30 5 2 5 6
M  V30 6 1 6 7
M  V30 7 1 7 8
M  V30 8 1 8 9
M  V30 9 1 9 10
M  V30 10 2 10 11
M  V30 11 1 10 12
M  V30 12 1 12 13
M  V30 13 2 13 14
M  V30 14 1 14 15
M  V30 15 2 15 16
M  V30 16 1 16 17
M  V30 17 1 16 18
M  V30 18 2 18 19
M  V30 19 2 12 20
M  V30 20 1 20 21
M  V30 21 2 21 22
M  V30 22 1 22 23
M  V30 23 2 23 24
M  V30 24 1 24 25
M  V30 25 1 25 26
M  V30 26 1 25 27
M  V30 27 1 24 28
M  V30 28 2 28 29
M  V30 29 2 7 30
M  V30 30 1 30 3
M  V30 31 1 29 9
M  V30 32 1 19 13
M  V30 33 1 29 21
M  V30 34 1 1 31
M  V30 35 1 1 32
M  V30 36 1 1 33
M  V30 37 1 4 34
M  V30 38 1 5 35
M  V30 39 1 6 36
M  V30 40 1 8 37
M  V30 41 1 8 38
M  V30 42 1 14 39
M  V30 43 1 15 40
M  V30 44 1 18 41
M  V30 45 1 19 42
M  V30 46 1 22 43
M  V30 47 1 26 44
M  V30 48 1 26 45
M  V30 49 1 26 46
M  V30 50 1 27 47
M  V30 51 1 27 48
M  V30 52 1 27 49
M  V30 53 1 30 50
M  V30 END BOND
M  V30 END CTAB
M  END
>  <Dataset>  (92) 
ChEMBL_Kinases

>  <Ligand_Instance>  (92) 
nan

>  <PDB_ID>  (92) 
nan

>  <Standardized_SMILES>  (92) 
COc1cccc(Cn2c(=O)c(-c3ccc(Cl)cc3)nc3cnc(N(C)C)nc32)c1

>  <Name>  (92) 
nan

>  <Pocket>  (92) 
nan

>  <ATP_Site>  (92) 
nan

>  <Peripheral>  (92) 
nan

>  <Num_H_Atoms_ProtBoundConf>  (92) 
nan

>  <Num_Resolved_Atoms>  (92) 
nan

>  <Num_Not_Resolved_Atoms>  (92) 
nan

$$$$
CHEMBL1476107
     RDKit          3D

  0  0  0  0  0  0  0  0  0  0999 V3000
M  V30 BEGIN CTAB
M  V30 COUNTS 38 40 0 0 0
M  V30 BEGIN ATOM
M  V30 1 C -1.935678 -4.573555 0.981826 0
M  V30 2 O -0.914063 -4.353821 1.934427 0
M  V30 3 C -0.242995 -3.137480 1.922694 0
M  V30 4 C 0.730598 -3.073812 2.917179 0
M  V30 5 C 1.512770 -1.938778 3.071603 0
M  V30 6 C 1.319110 -0.864084 2.227192 0
M  V30 7 C 0.352651 -0.928485 1.240711 0
M  V30 8 C -0.427119 -2.056843 1.084862 0
M  V30 9 C 0.042382 0.149800 0.270528 0 CFG=2
M  V30 10 C -1.388687 0.562342 0.385121 0
M  V30 11 C 0.259960 -0.349268 -1.158074 0
M  V30 12 C 0.403902 0.741190 -2.146618 0
M  V30 13 C 0.228984 2.097147 -1.636451 0
M  V30 14 O -0.250651 3.001591 -2.314472 0
M  V30 15 C 0.614354 2.483645 -0.269981 0
M  V30 16 C 1.022404 1.256901 0.480681 0 CFG=1
M  V30 17 C 1.296700 1.520643 1.942123 0
M  V30 18 C 2.161897 0.351223 2.398155 0
M  V30 19 H -1.569193 -4.181828 0.010323 0
M  V30 20 H -2.180209 -5.649194 0.868776 0
M  V30 21 H -2.807972 -3.960228 1.285749 0
M  V30 22 H 0.957699 -3.865223 3.628589 0
M  V30 23 H 2.283342 -1.844780 3.832781 0
M  V30 24 H -1.203429 -2.203612 0.348991 0
M  V30 25 H -1.746753 0.493678 1.429814 0
M  V30 26 H -1.590365 1.585339 0.006377 0
M  V30 27 H -1.986063 -0.127408 -0.280507 0
M  V30 28 H 1.123682 -1.060371 -1.124119 0
M  V30 29 H -0.617284 -0.983485 -1.455645 0
M  V30 30 H 1.426352 0.660782 -2.619261 0
M  V30 31 H -0.308682 0.617206 -3.013457 0
M  V30 32 H -0.170941 3.075682 0.249369 0
M  V30 33 H 1.518516 3.144006 -0.332596 0
M  V30 34 H 2.000599 0.913884 0.044511 0
M  V30 35 H 1.756634 2.495979 2.104353 0
M  V30 36 H 0.322251 1.408397 2.496900 0
M  V30 37 H 3.069040 0.250895 1.794648 0
M  V30 38 H 2.410977 0.520791 3.475077 0
M  V30 END ATOM
M  V30 BEGIN BOND
M  V30 1 1 1 2
M  V30 2 1 2 3
M  V30 3 2 3 4
M  V30 4 1 4 5
M  V30 5 2 5 6
M  V30 6 1 6 7
M  V30 7 2 7 8
M  V30 8 1 7 9
M  V30 9 1 9 10 CFG=3
M  V30 10 1 9 11
M  V30 11 1 11 12
M  V30 12 1 12 13
M  V30 13 2 13 14
M  V30 14 1 13 15
M  V30 15 1 15 16
M  V30 16 1 16 17
M  V30 17 1 17 18
M  V30 18 1 8 3
M  V30 19 1 16 9
M  V30 20 1 18 6
M  V30 21 1 1 19
M  V30 22 1 1 20
M  V30 23 1 1 21
M  V30 24 1 4 22
M  V30 25 1 5 23
M  V30 26 1 8 24
M  V30 27 1 10 25
M  V30 28 1 10 26
M  V30 29 1 10 27
M  V30 30 1 11 28
M  V30 31 1 11 29
M  V30 32 1 12 30
M  V30 33 1 12 31
M  V30 34 1 15 32
M  V30 35 1 15 33
M  V30 36 1 16 34 CFG=3
M  V30 37 1 17 35
M  V30 38 1 17 36
M  V30 39 1 18 37
M  V30 40 1 18 38
M  V30 END BOND
M  V30 END CTAB
M  END
>  <Dataset>  (93) 
ChEMBL_Kinases

>  <Ligand_Instance>  (93) 
nan

>  <PDB_ID>  (93) 
nan

>  <Standardized_SMILES>  (93) 
COc1ccc2c(c1)[C@]1(C)CCC(=O)C[C@H]1CC2

>  <Name>  (93) 
nan

>  <Pocket>  (93) 
nan

>  <ATP_Site>  (93) 
nan

>  <Peripheral>  (93) 
nan

>  <Num_H_Atoms_ProtBoundConf>  (93) 
nan

>  <Num_Resolved_Atoms>  (93) 
nan

>  <Num_Not_Resolved_Atoms>  (93) 
nan

$$$$
CHEMBL1476155
     RDKit          3D

  0  0  0  0  0  0  0  0  0  0999 V3000
M  V30 BEGIN CTAB
M  V30 COUNTS 44 46 0 0 0
M  V30 BEGIN ATOM
M  V30 1 C 0.925352 -6.281358 0.098344 0
M  V30 2 O -0.063666 -5.682219 0.879402 0
M  V30 3 C -0.209671 -4.318227 1.062481 0
M  V30 4 C 0.664619 -3.419441 0.434520 0
M  V30 5 C 0.578396 -2.026946 0.583753 0
M  V30 6 C -0.449008 -1.561220 1.412472 0
M  V30 7 C -0.354489 -0.077399 1.511505 0
M  V30 8 C 1.016625 0.377144 1.898882 0
M  V30 9 O 1.712658 0.761283 0.696802 0
M  V30 10 C 1.277986 1.920391 0.071825 0
M  V30 11 C -0.111232 1.866380 -0.059645 0
M  V30 12 C -0.811055 2.926895 -0.657239 0
M  V30 13 C -0.139950 4.042013 -1.129014 0
M  V30 14 C 1.227655 4.081302 -0.997563 0
M  V30 15 O 2.029150 5.143656 -1.437557 0
M  V30 16 C 1.942839 3.056927 -0.413619 0
M  V30 17 O 3.315745 2.968701 -0.216114 0
M  V30 18 C 4.062319 2.372328 -1.288975 0
M  V30 19 C -0.906413 0.679608 0.373944 0
M  V30 20 C -1.313060 -2.439514 2.032068 0
M  V30 21 O -2.265696 -1.793455 2.812193 0
M  V30 22 C -1.935580 -1.555408 4.167978 0
M  V30 23 C -1.203974 -3.802191 1.865406 0
M  V30 24 O -2.109671 -4.615621 2.520146 0
M  V30 25 H 0.724556 -7.364508 -0.097897 0
M  V30 26 H 1.026232 -5.785195 -0.898646 0
M  V30 27 H 1.954597 -6.196125 0.557947 0
M  V30 28 H 1.454033 -3.842146 -0.205099 0
M  V30 29 H 1.325538 -1.455623 0.037443 0
M  V30 30 H -1.011245 0.179382 2.409891 0
M  V30 31 H 1.594015 -0.408415 2.437389 0
M  V30 32 H 0.924940 1.206763 2.622015 0
M  V30 33 H -1.897723 2.894896 -0.758796 0
M  V30 34 H -0.648575 4.886758 -1.596260 0
M  V30 35 H 1.803239 6.104557 -1.139122 0
M  V30 36 H 4.445495 1.417466 -0.905020 0
M  V30 37 H 3.470445 2.301800 -2.215075 0
M  V30 38 H 4.934233 3.054892 -1.522102 0
M  V30 39 H -1.117278 0.015836 -0.515657 0
M  V30 40 H -1.940150 1.080743 0.612351 0
M  V30 41 H -2.186587 -0.527558 4.515133 0
M  V30 42 H -0.854824 -1.723721 4.347831 0
M  V30 43 H -2.467238 -2.268438 4.841077 0
M  V30 44 H -3.015694 -4.865813 2.128190 0
M  V30 END ATOM
M  V30 BEGIN BOND
M  V30 1 1 1 2
M  V30 2 1 2 3
M  V30 3 2 3 4
M  V30 4 1 4 5
M  V30 5 2 5 6
M  V30 6 1 6 7
M  V30 7 1 7 8
M  V30 8 1 8 9
M  V30 9 1 9 10
M  V30 10 2 10 11
M  V30 11 1 11 12
M  V30 12 2 12 13
M  V30 13 1 13 14
M  V30 14 1 14 15
M  V30 15 2 14 16
M  V30 16 1 16 17
M  V30 17 1 17 18
M  V30 18 1 11 19
M  V30 19 1 6 20
M  V30 20 1 20 21
M  V30 21 1 21 22
M  V30 22 2 20 23
M  V30 23 1 23 24
M  V30 24 1 23 3
M  V30 25 1 19 7
M  V30 26 1 16 10
M  V30 27 1 1 25
M  V30 28 1 1 26
M  V30 29 1 1 27
M  V30 30 1 4 28
M  V30 31 1 5 29
M  V30 32 1 7 30
M  V30 33 1 8 31
M  V30 34 1 8 32
M  V30 35 1 12 33
M  V30 36 1 13 34
M  V30 37 1 15 35
M  V30 38 1 18 36
M  V30 39 1 18 37
M  V30 40 1 18 38
M  V30 41 1 19 39
M  V30 42 1 19 40
M  V30 43 1 22 41
M  V30 44 1 22 42
M  V30 45 1 22 43
M  V30 46 1 24 44
M  V30 END BOND
M  V30 END CTAB
M  END
>  <Dataset>  (94) 
ChEMBL_Kinases

>  <Ligand_Instance>  (94) 
nan

>  <PDB_ID>  (94) 
nan

>  <Standardized_SMILES>  (94) 
COc1ccc(C2COc3c(ccc(O)c3OC)C2)c(OC)c1O

>  <Name>  (94) 
nan

>  <Pocket>  (94) 
nan

>  <ATP_Site>  (94) 
nan

>  <Peripheral>  (94) 
nan

>  <Num_H_Atoms_ProtBoundConf>  (94) 
nan

>  <Num_Resolved_Atoms>  (94) 
nan

>  <Num_Not_Resolved_Atoms>  (94) 
nan

$$$$
CHEMBL1475366
     RDKit          3D

  0  0  0  0  0  0  0  0  0  0999 V3000
M  V30 BEGIN CTAB
M  V30 COUNTS 56 60 0 0 0
M  V30 BEGIN ATOM
M  V30 1 C 0.258456 -3.021625 3.835942 0
M  V30 2 O 1.335372 -3.710527 3.252241 0
M  V30 3 C 2.240646 -3.144271 2.366672 0
M  V30 4 C 3.264757 -3.951337 1.867227 0
M  V30 5 C 4.209740 -3.471276 0.982135 0
M  V30 6 C 4.169981 -2.148093 0.553727 0
M  V30 7 C 3.165151 -1.334848 1.036126 0
M  V30 8 C 2.993895 0.089396 0.682960 0
M  V30 9 C 4.108386 0.886636 0.409771 0
M  V30 10 C 3.898312 2.218231 0.081501 0
M  V30 11 C 2.626872 2.747512 0.024402 0
M  V30 12 N 2.436507 4.060780 -0.296512 0
M  V30 13 C 1.200341 4.591080 -0.352588 0
M  V30 14 N 0.140140 3.811495 -0.088180 0
M  V30 15 C 0.226639 2.511158 0.235372 0
M  V30 16 N -0.925699 1.685792 0.500690 0
M  V30 17 C -2.172521 2.345730 0.420591 0
M  V30 18 C -3.414348 1.536301 0.586553 0
M  V30 19 C -3.620060 0.473673 -0.410348 0
M  V30 20 C -4.383654 0.719210 -1.550697 0
M  V30 21 N -4.440589 -0.333586 -2.381858 0
M  V30 22 C -3.721920 -1.311374 -1.826999 0
M  V30 23 C -3.406272 -2.607232 -2.166969 0
M  V30 24 C -2.625307 -3.370362 -1.333550 0
M  V30 25 C -2.129051 -2.876880 -0.132408 0
M  V30 26 O -1.341698 -3.685783 0.682693 0
M  V30 27 C -1.101701 -4.993099 0.205433 0
M  V30 28 C -2.445751 -1.591263 0.197527 0
M  V30 29 C -3.226651 -0.825915 -0.637240 0
M  V30 30 C 1.503342 1.989944 0.287414 0
M  V30 31 C 1.745091 0.672744 0.609963 0
M  V30 32 C 2.213926 -1.836262 1.933541 0
M  V30 33 H -0.026657 -3.456701 4.827698 0
M  V30 34 H 0.503981 -1.953953 4.065399 0
M  V30 35 H -0.660346 -2.989315 3.242692 0
M  V30 36 H 3.314047 -4.999596 2.193244 0
M  V30 37 H 4.999780 -4.109751 0.602677 0
M  V30 38 H 4.866815 -1.705827 -0.129522 0
M  V30 39 H 5.097360 0.478390 0.454004 0
M  V30 40 H 4.745993 2.846644 -0.132030 0
M  V30 41 H 1.001054 5.634121 -0.604013 0
M  V30 42 H -0.851765 0.708327 0.730797 0
M  V30 43 H -2.222468 3.216138 1.148756 0
M  V30 44 H -2.279853 2.876208 -0.578315 0
M  V30 45 H -3.430596 1.063932 1.605098 0
M  V30 46 H -4.295892 2.212226 0.583385 0
M  V30 47 H -4.917144 1.641568 -1.823724 0
M  V30 48 H -4.929126 -0.424174 -3.285768 0
M  V30 49 H -3.806430 -2.973921 -3.112391 0
M  V30 50 H -2.415035 -4.376497 -1.659041 0
M  V30 51 H -0.481251 -5.608214 0.872309 0
M  V30 52 H -0.593454 -4.958764 -0.799749 0
M  V30 53 H -2.055413 -5.548231 0.023016 0
M  V30 54 H -2.070391 -1.222234 1.129863 0
M  V30 55 H 0.951530 -0.008152 0.832537 0
M  V30 56 H 1.396435 -1.274042 2.360792 0
M  V30 END ATOM
M  V30 BEGIN BOND
M  V30 1 1 1 2
M  V30 2 1 2 3
M  V30 3 2 3 4
M  V30 4 1 4 5
M  V30 5 2 5 6
M  V30 6 1 6 7
M  V30 7 1 7 8
M  V30 8 2 8 9
M  V30 9 1 9 10
M  V30 10 2 10 11
M  V30 11 1 11 12
M  V30 12 2 12 13
M  V30 13 1 13 14
M  V30 14 2 14 15
M  V30 15 1 15 16
M  V30 16 1 16 17
M  V30 17 1 17 18
M  V30 18 1 18 19
M  V30 19 2 19 20
M  V30 20 1 20 21
M  V30 21 1 21 22
M  V30 22 2 22 23
M  V30 23 1 23 24
M  V30 24 2 24 25
M  V30 25 1 25 26
M  V30 26 1 26 27
M  V30 27 1 25 28
M  V30 28 2 28 29
M  V30 29 1 15 30
M  V30 30 2 30 31
M  V30 31 2 7 32
M  V30 32 1 32 3
M  V30 33 1 31 8
M  V30 34 1 30 11
M  V30 35 1 29 19
M  V30 36 1 29 22
M  V30 37 1 1 33
M  V30 38 1 1 34
M  V30 39 1 1 35
M  V30 40 1 4 36
M  V30 41 1 5 37
M  V30 42 1 6 38
M  V30 43 1 9 39
M  V30 44 1 10 40
M  V30 45 1 13 41
M  V30 46 1 16 42
M  V30 47 1 17 43
M  V30 48 1 17 44
M  V30 49 1 18 45
M  V30 50 1 18 46
M  V30 51 1 20 47
M  V30 52 1 21 48
M  V30 53 1 23 49
M  V30 54 1 24 50
M  V30 55 1 27 51
M  V30 56 1 27 52
M  V30 57 1 27 53
M  V30 58 1 28 54
M  V30 59 1 31 55
M  V30 60 1 32 56
M  V30 END BOND
M  V30 END CTAB
M  END
>  <Dataset>  (95) 
ChEMBL_Kinases

>  <Ligand_Instance>  (95) 
nan

>  <PDB_ID>  (95) 
nan

>  <Standardized_SMILES>  (95) 
COc1cccc(-c2ccc3ncnc(NCCc4c[nH]c5ccc(OC)cc45)c3c2)c1

>  <Name>  (95) 
nan

>  <Pocket>  (95) 
nan

>  <ATP_Site>  (95) 
nan

>  <Peripheral>  (95) 
nan

>  <Num_H_Atoms_ProtBoundConf>  (95) 
nan

>  <Num_Resolved_Atoms>  (95) 
nan

>  <Num_Not_Resolved_Atoms>  (95) 
nan

$$$$
CHEMBL1481585
     RDKit          3D

  0  0  0  0  0  0  0  0  0  0999 V3000
M  V30 BEGIN CTAB
M  V30 COUNTS 43 46 0 0 0
M  V30 BEGIN ATOM
M  V30 1 C 5.145987 -1.291882 4.425993 0
M  V30 2 C 4.893210 -1.416099 2.965218 0
M  V30 3 C 3.595725 -2.064357 2.647685 0
M  V30 4 O 2.952187 -2.388243 3.679388 0
M  V30 5 N 3.253817 -2.232672 1.276664 0
M  V30 6 C 1.974194 -2.872362 1.089421 0
M  V30 7 N 1.922085 -4.234647 1.001505 0
M  V30 8 O 0.647665 -4.511568 0.836628 0
M  V30 9 N -0.051174 -3.420413 0.820902 0
M  V30 10 C 0.701527 -2.321787 0.974477 0
M  V30 11 C 0.426544 -0.901003 1.039007 0
M  V30 12 N 1.429880 -0.004079 1.224819 0
M  V30 13 C 0.877362 1.224899 1.258930 0
M  V30 14 C 1.527929 2.425923 1.431976 0
M  V30 15 C 0.753428 3.562210 1.437390 0
M  V30 16 C -0.608569 3.451066 1.273250 0
M  V30 17 C -1.194816 2.214219 1.104477 0
M  V30 18 C -0.476477 1.019541 1.087407 0
M  V30 19 N -0.759462 -0.289470 0.950430 0
M  V30 20 C -2.062046 -0.824287 0.758165 0
M  V30 21 C -2.539083 -0.943434 -0.615125 0
M  V30 22 C -2.411460 -2.003845 -1.483493 0
M  V30 23 C -2.874170 -2.088074 -2.776133 0
M  V30 24 C -3.547180 -1.001736 -3.289307 0
M  V30 25 C -3.725424 0.109799 -2.493349 0
M  V30 26 C -3.233144 0.121210 -1.206591 0
M  V30 27 H 6.200855 -1.540748 4.689223 0
M  V30 28 H 4.945230 -0.294745 4.859876 0
M  V30 29 H 4.522050 -2.089331 4.922534 0
M  V30 30 H 4.912567 -0.408371 2.477112 0
M  V30 31 H 5.698118 -1.998729 2.433659 0
M  V30 32 H 3.917365 -1.899192 0.545785 0
M  V30 33 H 2.591616 2.478263 1.557408 0
M  V30 34 H 1.221008 4.509798 1.568615 0
M  V30 35 H -1.246572 4.346027 1.274528 0
M  V30 36 H -2.259342 2.179061 0.985757 0
M  V30 37 H -2.075439 -1.824537 1.282331 0
M  V30 38 H -2.825555 -0.232139 1.343180 0
M  V30 39 H -1.895706 -2.879149 -1.126620 0
M  V30 40 H -2.724649 -2.960626 -3.375795 0
M  V30 41 H -3.914855 -1.051022 -4.296718 0
M  V30 42 H -4.256723 0.912611 -2.960231 0
M  V30 43 H -3.453541 1.054538 -0.711585 0
M  V30 END ATOM
M  V30 BEGIN BOND
M  V30 1 1 1 2
M  V30 2 1 2 3
M  V30 3 2 3 4
M  V30 4 1 3 5
M  V30 5 1 5 6
M  V30 6 2 6 7
M  V30 7 1 7 8
M  V30 8 1 8 9
M  V30 9 2 9 10
M  V30 10 1 10 11
M  V30 11 2 11 12
M  V30 12 1 12 13
M  V30 13 2 13 14
M  V30 14 1 14 15
M  V30 15 2 15 16
M  V30 16 1 16 17
M  V30 17 2 17 18
M  V30 18 1 18 19
M  V30 19 1 19 20
M  V30 20 1 20 21
M  V30 21 2 21 22
M  V30 22 1 22 23
M  V30 23 2 23 24
M  V30 24 1 24 25
M  V30 25 2 25 26
M  V30 26 1 10 6
M  V30 27 1 19 11
M  V30 28 1 26 21
M  V30 29 1 18 13
M  V30 30 1 1 27
M  V30 31 1 1 28
M  V30 32 1 1 29
M  V30 33 1 2 30
M  V30 34 1 2 31
M  V30 35 1 5 32
M  V30 36 1 14 33
M  V30 37 1 15 34
M  V30 38 1 16 35
M  V30 39 1 17 36
M  V30 40 1 20 37
M  V30 41 1 20 38
M  V30 42 1 22 39
M  V30 43 1 23 40
M  V30 44 1 24 41
M  V30 45 1 25 42
M  V30 46 1 26 43
M  V30 END BOND
M  V30 END CTAB
M  END
>  <Dataset>  (96) 
ChEMBL_Kinases

>  <Ligand_Instance>  (96) 
nan

>  <PDB_ID>  (96) 
nan

>  <Standardized_SMILES>  (96) 
CCC(=O)Nc1nonc1-c1nc2ccccc2n1Cc1ccccc1

>  <Name>  (96) 
nan

>  <Pocket>  (96) 
nan

>  <ATP_Site>  (96) 
nan

>  <Peripheral>  (96) 
nan

>  <Num_H_Atoms_ProtBoundConf>  (96) 
nan

>  <Num_Resolved_Atoms>  (96) 
nan

>  <Num_Not_Resolved_Atoms>  (96) 
nan

$$$$
CHEMBL1481517
     RDKit          3D

  0  0  0  0  0  0  0  0  0  0999 V3000
M  V30 BEGIN CTAB
M  V30 COUNTS 29 31 0 0 0
M  V30 BEGIN ATOM
M  V30 1 F 1.635973 -0.815223 3.295778 0
M  V30 2 C 1.455157 -1.143700 1.974600 0
M  V30 3 C 2.492913 -1.867758 1.419835 0
M  V30 4 C 2.442917 -2.264880 0.099308 0
M  V30 5 N 3.404541 -2.973978 -0.533871 0
M  V30 6 C 3.219283 -3.293241 -1.833704 0
M  V30 7 C 2.109363 -2.947137 -2.576070 0
M  V30 8 N 1.147035 -2.235487 -1.936078 0
M  V30 9 C 1.311810 -1.906778 -0.640411 0
M  V30 10 C 0.267464 -1.184690 -0.102608 0
M  V30 11 C 0.327185 -0.789838 1.226788 0
M  V30 12 N -0.672744 -0.039574 1.925162 0
M  V30 13 C -0.204448 1.209117 2.440079 0
M  V30 14 C -0.643175 2.384506 1.562006 0
M  V30 15 S -2.009308 1.837101 0.521124 0
M  V30 16 C -2.970018 0.509216 1.295583 0
M  V30 17 C -2.084783 -0.352464 2.189180 0
M  V30 18 H 3.368208 -2.148162 1.981994 0
M  V30 19 H 3.994256 -3.861524 -2.334093 0
M  V30 20 H 2.013579 -3.228916 -3.612125 0
M  V30 21 H -0.605050 -0.896348 -0.635425 0
M  V30 22 H 0.895686 1.254123 2.625366 0
M  V30 23 H -0.664148 1.368343 3.437833 0
M  V30 24 H 0.214981 2.770333 0.976067 0
M  V30 25 H -1.004554 3.228636 2.183886 0
M  V30 26 H -3.726973 0.999371 1.935289 0
M  V30 27 H -3.425391 -0.103917 0.493822 0
M  V30 28 H -2.301033 -1.424152 1.999081 0
M  V30 29 H -2.265827 -0.135378 3.270298 0
M  V30 END ATOM
M  V30 BEGIN BOND
M  V30 1 1 1 2
M  V30 2 2 2 3
M  V30 3 1 3 4
M  V30 4 2 4 5
M  V30 5 1 5 6
M  V30 6 2 6 7
M  V30 7 1 7 8
M  V30 8 2 8 9
M  V30 9 1 9 10
M  V30 10 2 10 11
M  V30 11 1 11 12
M  V30 12 1 12 13
M  V30 13 1 13 14
M  V30 14 1 14 15
M  V30 15 1 15 16
M  V30 16 1 16 17
M  V30 17 1 11 2
M  V30 18 1 17 12
M  V30 19 1 9 4
M  V30 20 1 3 18
M  V30 21 1 6 19
M  V30 22 1 7 20
M  V30 23 1 10 21
M  V30 24 1 13 22
M  V30 25 1 13 23
M  V30 26 1 14 24
M  V30 27 1 14 25
M  V30 28 1 16 26
M  V30 29 1 16 27
M  V30 30 1 17 28
M  V30 31 1 17 29
M  V30 END BOND
M  V30 END CTAB
M  END
>  <Dataset>  (97) 
ChEMBL_Kinases

>  <Ligand_Instance>  (97) 
nan

>  <PDB_ID>  (97) 
nan

>  <Standardized_SMILES>  (97) 
Fc1cc2nccnc2cc1N1CCSCC1

>  <Name>  (97) 
nan

>  <Pocket>  (97) 
nan

>  <ATP_Site>  (97) 
nan

>  <Peripheral>  (97) 
nan

>  <Num_H_Atoms_ProtBoundConf>  (97) 
nan

>  <Num_Resolved_Atoms>  (97) 
nan

>  <Num_Not_Resolved_Atoms>  (97) 
nan

$$$$
CHEMBL14815
     RDKit          3D

  0  0  0  0  0  0  0  0  0  0999 V3000
M  V30 BEGIN CTAB
M  V30 COUNTS 23 23 0 0 0
M  V30 BEGIN ATOM
M  V30 1 C 2.357410 1.330474 2.242627 0
M  V30 2 C 1.761754 -0.031089 2.333833 0
M  V30 3 O 1.764039 -0.784523 3.400889 0
M  V30 4 N 1.190564 -1.915037 3.234385 0
M  V30 5 C 0.758751 -1.945849 1.952673 0
M  V30 6 O 0.072253 -2.914049 1.209711 0
M  V30 7 C 1.105208 -0.751927 1.333913 0
M  V30 8 C 0.896776 -0.233133 -0.032450 0
M  V30 9 C -0.203267 0.790491 -0.149367 0 CFG=1
M  V30 10 N -0.243772 1.171207 -1.562824 0
M  V30 11 C -1.545528 0.143189 0.104884 0
M  V30 12 O -1.963578 -0.326081 1.181244 0
M  V30 13 O -2.518820 -0.006760 -0.905740 0
M  V30 14 H 3.027028 1.515988 3.098361 0
M  V30 15 H 1.537480 2.075624 2.202586 0
M  V30 16 H 2.981021 1.392278 1.302512 0
M  V30 17 H -0.748732 -3.295728 1.660950 0
M  V30 18 H 0.636037 -1.046038 -0.756282 0
M  V30 19 H 1.817500 0.234738 -0.453871 0
M  V30 20 H -0.098803 1.660351 0.499990 0
M  V30 21 H -1.141897 1.681799 -1.771817 0
M  V30 22 H 0.584842 1.766777 -1.804805 0
M  V30 23 H -3.511619 -0.035861 -0.712289 0
M  V30 END ATOM
M  V30 BEGIN BOND
M  V30 1 1 1 2
M  V30 2 1 2 3
M  V30 3 1 3 4
M  V30 4 2 4 5
M  V30 5 1 5 6
M  V30 6 1 5 7
M  V30 7 1 7 8
M  V30 8 1 8 9
M  V30 9 1 9 10
M  V30 10 1 9 11
M  V30 11 2 11 12
M  V30 12 1 11 13
M  V30 13 2 7 2
M  V30 14 1 1 14
M  V30 15 1 1 15
M  V30 16 1 1 16
M  V30 17 1 6 17
M  V30 18 1 8 18
M  V30 19 1 8 19
M  V30 20 1 9 20 CFG=1
M  V30 21 1 10 21
M  V30 22 1 10 22
M  V30 23 1 13 23
M  V30 END BOND
M  V30 END CTAB
M  END
>  <Dataset>  (98) 
ChEMBL_Kinases

>  <Ligand_Instance>  (98) 
nan

>  <PDB_ID>  (98) 
nan

>  <Standardized_SMILES>  (98) 
Cc1onc(O)c1C[C@@H](N)C(=O)O

>  <Name>  (98) 
nan

>  <Pocket>  (98) 
nan

>  <ATP_Site>  (98) 
nan

>  <Peripheral>  (98) 
nan

>  <Num_H_Atoms_ProtBoundConf>  (98) 
nan

>  <Num_Resolved_Atoms>  (98) 
nan

>  <Num_Not_Resolved_Atoms>  (98) 
nan

$$$$
CHEMBL1481490
     RDKit          3D

  0  0  0  0  0  0  0  0  0  0999 V3000
M  V30 BEGIN CTAB
M  V30 COUNTS 38 40 0 0 0
M  V30 BEGIN ATOM
M  V30 1 C -3.155789 -0.659340 4.836585 0
M  V30 2 C -1.662674 -0.935199 4.685351 0
M  V30 3 O -1.259467 -0.932064 3.325543 0
M  V30 4 C 0.065154 -1.162093 2.941982 0
M  V30 5 O 0.826671 -1.365339 3.928108 0
M  V30 6 C 0.311510 -1.124254 1.500645 0
M  V30 7 C 0.252757 -2.168903 0.590843 0
M  V30 8 C -0.091740 -3.554562 0.992654 0
M  V30 9 N 0.549716 -1.721198 -0.659365 0
M  V30 10 C 0.791175 -0.407964 -0.527069 0
M  V30 11 C 1.136442 0.439797 -1.584412 0
M  V30 12 C 1.347167 1.762972 -1.254404 0
M  V30 13 C 1.215791 2.187395 0.052107 0
M  V30 14 C 1.447472 3.617927 0.385503 0
M  V30 15 C 0.870324 1.335690 1.105848 0
M  V30 16 C 0.658196 0.009332 0.780462 0
M  V30 17 C 1.235792 -0.176465 -2.929815 0
M  V30 18 C 1.638844 -1.617988 -2.771994 0
M  V30 19 C 0.627968 -2.392461 -1.944096 0
M  V30 20 H -3.694015 -1.483927 5.323412 0
M  V30 21 H -3.298247 0.312130 5.384239 0
M  V30 22 H -3.572152 -0.472863 3.827153 0
M  V30 23 H -1.516609 -1.994322 5.036867 0
M  V30 24 H -1.049463 -0.258834 5.281696 0
M  V30 25 H 0.227097 -4.276334 0.233555 0
M  V30 26 H -1.166124 -3.637793 1.255114 0
M  V30 27 H 0.490479 -3.770440 1.909420 0
M  V30 28 H 1.610488 2.403721 -2.067847 0
M  V30 29 H 2.389713 3.637194 1.002958 0
M  V30 30 H 0.635304 3.910746 1.086628 0
M  V30 31 H 1.528432 4.250872 -0.497130 0
M  V30 32 H 0.769557 1.673214 2.122398 0
M  V30 33 H 0.296257 -0.050457 -3.490057 0
M  V30 34 H 2.063463 0.323489 -3.483242 0
M  V30 35 H 2.608257 -1.647241 -2.240301 0
M  V30 36 H 1.788531 -2.111615 -3.754082 0
M  V30 37 H 0.941136 -3.431376 -1.859043 0
M  V30 38 H -0.382695 -2.332579 -2.444034 0
M  V30 END ATOM
M  V30 BEGIN BOND
M  V30 1 1 1 2
M  V30 2 1 2 3
M  V30 3 1 3 4
M  V30 4 2 4 5
M  V30 5 1 4 6
M  V30 6 2 6 7
M  V30 7 1 7 8
M  V30 8 1 7 9
M  V30 9 1 9 10
M  V30 10 2 10 11
M  V30 11 1 11 12
M  V30 12 2 12 13
M  V30 13 1 13 14
M  V30 14 1 13 15
M  V30 15 2 15 16
M  V30 16 1 11 17
M  V30 17 1 17 18
M  V30 18 1 18 19
M  V30 19 1 16 6
M  V30 20 1 19 9
M  V30 21 1 16 10
M  V30 22 1 1 20
M  V30 23 1 1 21
M  V30 24 1 1 22
M  V30 25 1 2 23
M  V30 26 1 2 24
M  V30 27 1 8 25
M  V30 28 1 8 26
M  V30 29 1 8 27
M  V30 30 1 12 28
M  V30 31 1 14 29
M  V30 32 1 14 30
M  V30 33 1 14 31
M  V30 34 1 15 32
M  V30 35 1 17 33
M  V30 36 1 17 34
M  V30 37 1 18 35
M  V30 38 1 18 36
M  V30 39 1 19 37
M  V30 40 1 19 38
M  V30 END BOND
M  V30 END CTAB
M  END
>  <Dataset>  (99) 
ChEMBL_Kinases

>  <Ligand_Instance>  (99) 
nan

>  <PDB_ID>  (99) 
nan

>  <Standardized_SMILES>  (99) 
CCOC(=O)c1c(C)n2c3c(cc(C)cc13)CCC2

>  <Name>  (99) 
nan

>  <Pocket>  (99) 
nan

>  <ATP_Site>  (99) 
nan

>  <Peripheral>  (99) 
nan

>  <Num_H_Atoms_ProtBoundConf>  (99) 
nan

>  <Num_Resolved_Atoms>  (99) 
nan

>  <Num_Not_Resolved_Atoms>  (99) 
nan

$$$$
CHEMBL1481474
     RDKit          3D

  0  0  0  0  0  0  0  0  0  0999 V3000
M  V30 BEGIN CTAB
M  V30 COUNTS 40 42 0 0 0
M  V30 BEGIN ATOM
M  V30 1 C 2.424557 -6.901497 -1.943225 0
M  V30 2 O 1.910256 -5.604329 -1.719378 0
M  V30 3 C 2.327997 -4.802363 -0.676679 0
M  V30 4 C 3.282901 -5.176668 0.250049 0
M  V30 5 C 3.660654 -4.348489 1.260898 0
M  V30 6 C 3.070148 -3.101658 1.357869 0
M  V30 7 C 2.112212 -2.694823 0.448881 0
M  V30 8 C 1.539065 -1.372486 0.616973 0
M  V30 9 O 1.941493 -0.666225 1.577586 0
M  V30 10 N 0.550616 -0.823972 -0.235959 0
M  V30 11 C 0.001421 0.484184 -0.047813 0
M  V30 12 N 0.554466 1.568128 -0.624819 0
M  V30 13 C 0.017579 2.809506 -0.434856 0
M  V30 14 C -1.110107 2.878406 0.373849 0
M  V30 15 C -1.694995 1.782971 0.975861 0
M  V30 16 N -1.107306 0.598205 0.739828 0
M  V30 17 C -2.907895 1.915912 1.836188 0
M  V30 18 C -2.664776 3.191746 2.655717 0
M  V30 19 C -1.292635 3.055562 3.287011 0
M  V30 20 C -2.686711 4.404138 1.747890 0
M  V30 21 C -1.741451 4.177773 0.623118 0
M  V30 22 O -1.503006 5.175360 -0.121708 0
M  V30 23 C 1.739657 -3.545344 -0.570323 0
M  V30 24 H 1.925886 -7.667032 -1.291547 0
M  V30 25 H 3.527558 -6.962559 -1.878519 0
M  V30 26 H 2.130910 -7.195960 -2.982485 0
M  V30 27 H 3.665530 -6.164139 0.068707 0
M  V30 28 H 4.416522 -4.748257 1.926170 0
M  V30 29 H 3.420214 -2.481301 2.197550 0
M  V30 30 H 0.196543 -1.384629 -1.041053 0
M  V30 31 H 0.423168 3.710608 -0.875156 0
M  V30 32 H -2.990049 1.072778 2.541890 0
M  V30 33 H -3.833414 2.050020 1.250541 0
M  V30 34 H -3.395731 3.275773 3.466022 0
M  V30 35 H -0.516089 3.664236 2.785907 0
M  V30 36 H -0.960804 1.982950 3.298601 0
M  V30 37 H -1.293125 3.358352 4.359836 0
M  V30 38 H -3.708316 4.655744 1.435939 0
M  V30 39 H -2.220910 5.226352 2.358541 0
M  V30 40 H 0.991447 -3.245418 -1.292071 0
M  V30 END ATOM
M  V30 BEGIN BOND
M  V30 1 1 1 2
M  V30 2 1 2 3
M  V30 3 2 3 4
M  V30 4 1 4 5
M  V30 5 2 5 6
M  V30 6 1 6 7
M  V30 7 1 7 8
M  V30 8 2 8 9
M  V30 9 1 8 10
M  V30 10 1 10 11
M  V30 11 2 11 12
M  V30 12 1 12 13
M  V30 13 2 13 14
M  V30 14 1 14 15
M  V30 15 2 15 16
M  V30 16 1 15 17
M  V30 17 1 17 18
M  V30 18 1 18 19
M  V30 19 1 18 20
M  V30 20 1 20 21
M  V30 21 2 21 22
M  V30 22 2 7 23
M  V30 23 1 23 3
M  V30 24 1 16 11
M  V30 25 1 21 14
M  V30 26 1 1 24
M  V30 27 1 1 25
M  V30 28 1 1 26
M  V30 29 1 4 27
M  V30 30 1 5 28
M  V30 31 1 6 29
M  V30 32 1 10 30
M  V30 33 1 13 31
M  V30 34 1 17 32
M  V30 35 1 17 33
M  V30 36 1 18 34
M  V30 37 1 19 35
M  V30 38 1 19 36
M  V30 39 1 19 37
M  V30 40 1 20 38
M  V30 41 1 20 39
M  V30 42 1 23 40
M  V30 END BOND
M  V30 END CTAB
M  END
>  <Dataset>  (100) 
ChEMBL_Kinases

>  <Ligand_Instance>  (100) 
nan

>  <PDB_ID>  (100) 
nan

>  <Standardized_SMILES>  (100) 
COc1cccc(C(=O)Nc2ncc3c(n2)CC(C)CC3=O)c1

>  <Name>  (100) 
nan

>  <Pocket>  (100) 
nan

>  <ATP_Site>  (100) 
nan

>  <Peripheral>  (100) 
nan

>  <Num_H_Atoms_ProtBoundConf>  (100) 
nan

>  <Num_Resolved_Atoms>  (100) 
nan

>  <Num_Not_Resolved_Atoms>  (100) 
nan

$$$$
CHEMBL1481298
     RDKit          3D

  0  0  0  0  0  0  0  0  0  0999 V3000
M  V30 BEGIN CTAB
M  V30 COUNTS 51 53 0 0 0
M  V30 BEGIN ATOM
M  V30 1 C 5.978174 -4.239174 -0.615163 0
M  V30 2 O 4.958396 -3.364953 -0.164299 0
M  V30 3 C 3.884335 -3.951746 0.493973 0
M  V30 4 C 3.692284 -5.291417 0.761911 0
M  V30 5 C 2.546777 -5.696540 1.437102 0
M  V30 6 C 1.605836 -4.760955 1.837391 0
M  V30 7 C 1.801698 -3.420828 1.567328 0
M  V30 8 C 2.943477 -2.996424 0.891830 0
M  V30 9 C 3.059019 -1.562639 0.654463 0
M  V30 10 O 3.606287 -0.752547 1.437808 0
M  V30 11 N 2.591417 -0.826864 -0.470322 0
M  V30 12 C 2.835827 0.584348 -0.455020 0
M  V30 13 C 1.541141 1.358383 -0.220268 0
M  V30 14 N 0.504222 0.628955 -0.904337 0
M  V30 15 C -0.768250 0.813081 -0.345493 0
M  V30 16 O -0.559113 1.605826 0.629015 0
M  V30 17 C -2.140294 0.930594 0.152102 0
M  V30 18 O -2.184037 1.778894 1.262967 0
M  V30 19 C -3.309858 2.112206 1.978293 0
M  V30 20 C -3.302087 2.967749 3.085619 0
M  V30 21 C -4.464345 3.270529 3.770499 0
M  V30 22 C -5.617663 2.695341 3.314781 0
M  V30 23 C -5.675842 1.845274 2.227236 0
M  V30 24 C -6.961836 1.229434 1.752184 0
M  V30 25 C -4.491711 1.549515 1.545959 0
M  V30 26 C 0.816671 -0.190062 -2.043733 0
M  V30 27 C 1.886643 -1.198089 -1.693594 0
M  V30 28 H 6.864768 -3.698267 -1.006256 0
M  V30 29 H 6.277835 -4.968134 0.161370 0
M  V30 30 H 5.539731 -4.829590 -1.452360 0
M  V30 31 H 4.483935 -5.940993 0.408377 0
M  V30 32 H 2.503241 -6.774004 1.591984 0
M  V30 33 H 0.754522 -5.184755 2.354094 0
M  V30 34 H 1.006613 -2.762800 1.921694 0
M  V30 35 H 3.277488 0.945995 -1.425005 0
M  V30 36 H 3.546810 0.902939 0.320477 0
M  V30 37 H 1.678113 2.350681 -0.696886 0
M  V30 38 H 1.358794 1.473387 0.867337 0
M  V30 39 H -2.736025 1.447661 -0.654492 0
M  V30 40 H -2.641485 -0.047869 0.294572 0
M  V30 41 H -2.333056 3.388534 3.387513 0
M  V30 42 H -4.437957 3.933733 4.623744 0
M  V30 43 H -6.548480 2.913474 3.831697 0
M  V30 44 H -6.864750 0.133072 1.649751 0
M  V30 45 H -7.325856 1.707793 0.832713 0
M  V30 46 H -7.723882 1.431551 2.554703 0
M  V30 47 H -4.545328 0.883781 0.696265 0
M  V30 48 H -0.053965 -0.597921 -2.552146 0
M  V30 49 H 1.299941 0.503527 -2.782636 0
M  V30 50 H 2.669278 -1.267604 -2.475926 0
M  V30 51 H 1.420249 -2.188788 -1.614156 0
M  V30 END ATOM
M  V30 BEGIN BOND
M  V30 1 1 1 2
M  V30 2 1 2 3
M  V30 3 2 3 4
M  V30 4 1 4 5
M  V30 5 2 5 6
M  V30 6 1 6 7
M  V30 7 2 7 8
M  V30 8 1 8 9
M  V30 9 2 9 10
M  V30 10 1 9 11
M  V30 11 1 11 12
M  V30 12 1 12 13
M  V30 13 1 13 14
M  V30 14 1 14 15
M  V30 15 2 15 16
M  V30 16 1 15 17
M  V30 17 1 17 18
M  V30 18 1 18 19
M  V30 19 2 19 20
M  V30 20 1 20 21
M  V30 21 2 21 22
M  V30 22 1 22 23
M  V30 23 1 23 24
M  V30 24 2 23 25
M  V30 25 1 14 26
M  V30 26 1 26 27
M  V30 27 1 8 3
M  V30 28 1 27 11
M  V30 29 1 25 19
M  V30 30 1 1 28
M  V30 31 1 1 29
M  V30 32 1 1 30
M  V30 33 1 4 31
M  V30 34 1 5 32
M  V30 35 1 6 33
M  V30 36 1 7 34
M  V30 37 1 12 35
M  V30 38 1 12 36
M  V30 39 1 13 37
M  V30 40 1 13 38
M  V30 41 1 17 39
M  V30 42 1 17 40
M  V30 43 1 20 41
M  V30 44 1 21 42
M  V30 45 1 22 43
M  V30 46 1 24 44
M  V30 47 1 24 45
M  V30 48 1 24 46
M  V30 49 1 25 47
M  V30 50 1 26 48
M  V30 51 1 26 49
M  V30 52 1 27 50
M  V30 53 1 27 51
M  V30 END BOND
M  V30 END CTAB
M  END
>  <Dataset>  (101) 
ChEMBL_Kinases

>  <Ligand_Instance>  (101) 
nan

>  <PDB_ID>  (101) 
nan

>  <Standardized_SMILES>  (101) 
COc1ccccc1C(=O)N1CCN(C(=O)COc2cccc(C)c2)CC1

>  <Name>  (101) 
nan

>  <Pocket>  (101) 
nan

>  <ATP_Site>  (101) 
nan

>  <Peripheral>  (101) 
nan

>  <Num_H_Atoms_ProtBoundConf>  (101) 
nan

>  <Num_Resolved_Atoms>  (101) 
nan

>  <Num_Not_Resolved_Atoms>  (101) 
nan

$$$$
CHEMBL1481254
     RDKit          3D

  0  0  0  0  0  0  0  0  0  0999 V3000
M  V30 BEGIN CTAB
M  V30 COUNTS 51 52 0 0 0
M  V30 BEGIN ATOM
M  V30 1 C 2.883704 -5.510827 -0.324301 0
M  V30 2 C 2.311531 -4.259343 -0.813112 0
M  V30 3 O 2.757388 -3.116692 -1.079794 0
M  V30 4 C 1.115516 -3.557824 -1.248268 0
M  V30 5 N 1.503556 -2.394512 -1.538826 0
M  V30 6 N 0.734820 -1.333903 -2.007652 0
M  V30 7 C 0.422001 -0.512397 -0.884462 0
M  V30 8 C -0.734278 -0.506807 -0.141002 0
M  V30 9 C -0.947935 0.319440 0.940758 0
M  V30 10 C 0.017809 1.214306 1.349420 0
M  V30 11 C 1.180857 1.216064 0.609528 0
M  V30 12 N 2.220678 2.115292 0.975096 0 CHG=1 VAL=4
M  V30 13 O 2.634524 3.274472 0.993564 0
M  V30 14 O 3.450848 2.060155 1.586971 0 CHG=-1 VAL=1
M  V30 15 C 1.400198 0.380888 -0.486761 0
M  V30 16 C 2.714934 0.500129 -1.203273 0
M  V30 17 C -0.501693 1.956131 2.528180 0
M  V30 18 C 0.458860 2.058789 3.670118 0
M  V30 19 C -0.968959 3.343985 2.148082 0
M  V30 20 C -1.671943 1.096909 3.016750 0
M  V30 21 C -2.173484 0.391896 1.783416 0
M  V30 22 C -3.165187 1.231101 1.001987 0
M  V30 23 C -2.740430 -0.973002 2.093193 0
M  V30 24 C -0.068810 -4.366891 -1.237437 0
M  V30 25 C -0.655132 -5.663643 -0.936017 0
M  V30 26 O -0.916018 -3.523775 -1.698818 0
M  V30 27 H 3.085756 -6.229971 -1.146984 0
M  V30 28 H 3.842256 -5.306797 0.173542 0
M  V30 29 H 2.242567 -6.034868 0.415098 0
M  V30 30 H 0.277148 -0.868137 -2.815776 0
M  V30 31 H -1.489846 -1.198590 -0.455504 0
M  V30 32 H 2.596831 0.288095 -2.279281 0
M  V30 33 H 3.400660 -0.217167 -0.713055 0
M  V30 34 H 3.084886 1.531482 -1.031484 0
M  V30 35 H 0.694963 3.125955 3.928270 0
M  V30 36 H 1.420442 1.593084 3.378181 0
M  V30 37 H 0.125212 1.493501 4.569141 0
M  V30 38 H -0.470447 3.700516 1.218285 0
M  V30 39 H -2.060358 3.411950 1.967817 0
M  V30 40 H -0.656543 4.062506 2.933685 0
M  V30 41 H -2.447287 1.707579 3.528903 0
M  V30 42 H -1.268216 0.300384 3.701620 0
M  V30 43 H -3.831074 1.836086 1.610544 0
M  V30 44 H -3.796496 0.504078 0.416663 0
M  V30 45 H -2.645335 1.823165 0.207795 0
M  V30 46 H -2.287214 -1.345737 3.038198 0
M  V30 47 H -2.571431 -1.713009 1.276658 0
M  V30 48 H -3.839115 -0.927991 2.258894 0
M  V30 49 H -1.413402 -5.941599 -1.716355 0
M  V30 50 H 0.146521 -6.438839 -0.892946 0
M  V30 51 H -1.156129 -5.722325 0.055411 0
M  V30 END ATOM
M  V30 BEGIN BOND
M  V30 1 1 1 2
M  V30 2 2 2 3
M  V30 3 1 2 4
M  V30 4 2 4 5 CFG=2
M  V30 5 1 5 6
M  V30 6 1 6 7
M  V30 7 2 7 8
M  V30 8 1 8 9
M  V30 9 2 9 10
M  V30 10 1 10 11
M  V30 11 1 11 12
M  V30 12 2 12 13
M  V30 13 1 12 14
M  V30 14 2 11 15
M  V30 15 1 15 16
M  V30 16 1 10 17
M  V30 17 1 17 18
M  V30 18 1 17 19
M  V30 19 1 17 20
M  V30 20 1 20 21
M  V30 21 1 21 22
M  V30 22 1 21 23
M  V30 23 1 4 24
M  V30 24 1 24 25
M  V30 25 2 24 26
M  V30 26 1 15 7
M  V30 27 1 21 9
M  V30 28 1 1 27
M  V30 29 1 1 28
M  V30 30 1 1 29
M  V30 31 1 6 30
M  V30 32 1 8 31
M  V30 33 1 16 32
M  V30 34 1 16 33
M  V30 35 1 16 34
M  V30 36 1 18 35
M  V30 37 1 18 36
M  V30 38 1 18 37
M  V30 39 1 19 38
M  V30 40 1 19 39
M  V30 41 1 19 40
M  V30 42 1 20 41
M  V30 43 1 20 42
M  V30 44 1 22 43
M  V30 45 1 22 44
M  V30 46 1 22 45
M  V30 47 1 23 46
M  V30 48 1 23 47
M  V30 49 1 23 48
M  V30 50 1 25 49
M  V30 51 1 25 50
M  V30 52 1 25 51
M  V30 END BOND
M  V30 END CTAB
M  END
>  <Dataset>  (102) 
ChEMBL_Kinases

>  <Ligand_Instance>  (102) 
nan

>  <PDB_ID>  (102) 
nan

>  <Standardized_SMILES>  (102) 
CC(=O)C(=NNc1cc2c(c([N+](=O)[O-])c1C)C(C)(C)CC2(C)C)C(C)=O

>  <Name>  (102) 
nan

>  <Pocket>  (102) 
nan

>  <ATP_Site>  (102) 
nan

>  <Peripheral>  (102) 
nan

>  <Num_H_Atoms_ProtBoundConf>  (102) 
nan

>  <Num_Resolved_Atoms>  (102) 
nan

>  <Num_Not_Resolved_Atoms>  (102) 
nan

$$$$
CHEMBL1481223
     RDKit          3D

  0  0  0  0  0  0  0  0  0  0999 V3000
M  V30 BEGIN CTAB
M  V30 COUNTS 60 63 0 0 0
M  V30 BEGIN ATOM
M  V30 1 C 6.234167 -1.466436 4.184809 0
M  V30 2 C 5.323961 -0.299706 4.564633 0
M  V30 3 N 5.106850 0.553704 3.440524 0
M  V30 4 C 6.008034 1.677919 3.185732 0
M  V30 5 C 5.426573 2.869188 3.929261 0
M  V30 6 C 4.032756 0.362908 2.532428 0
M  V30 7 O 3.759844 1.066434 1.508726 0
M  V30 8 C 3.106332 -0.748953 2.748072 0
M  V30 9 N 2.103741 -0.720587 1.682760 0
M  V30 10 C 0.944352 -0.061924 1.731789 0
M  V30 11 C 0.244725 -0.263289 0.535756 0
M  V30 12 C -1.048271 0.326475 0.294272 0
M  V30 13 O -1.527164 1.049650 1.237540 0
M  V30 14 C -1.934829 0.253749 -0.847453 0
M  V30 15 O -2.119111 -0.214090 -2.010954 0
M  V30 16 N -3.202096 0.951306 -0.839727 0
M  V30 17 C -4.128690 0.919173 -1.919359 0
M  V30 18 C -4.705671 -0.398124 -2.289276 0
M  V30 19 C -5.796753 -0.134972 -3.330744 0
M  V30 20 O -6.181605 -1.423325 -3.797272 0
M  V30 21 C -6.493443 -2.362062 -2.823005 0
M  V30 22 C -7.191237 -3.530860 -3.133405 0
M  V30 23 C -7.507718 -4.473533 -2.171462 0
M  V30 24 C -7.131604 -4.276974 -0.845690 0
M  V30 25 C -6.441358 -3.123091 -0.532579 0
M  V30 26 C -6.113996 -2.161610 -1.491232 0
M  V30 27 O -5.420271 -0.996208 -1.191789 0
M  V30 28 C 1.103667 -1.076789 -0.166820 0
M  V30 29 C 0.982440 -1.614902 -1.404067 0
M  V30 30 C 1.931718 -2.416530 -1.981191 0
M  V30 31 C 3.086132 -2.709273 -1.286872 0
M  V30 32 C 3.235527 -2.174275 -0.024438 0
M  V30 33 C 2.257484 -1.371363 0.523083 0
M  V30 34 H 5.669378 -2.427123 4.201476 0
M  V30 35 H 7.069005 -1.589499 4.915140 0
M  V30 36 H 6.640402 -1.323561 3.154855 0
M  V30 37 H 5.873472 0.297678 5.334053 0
M  V30 38 H 4.413617 -0.674619 5.045994 0
M  V30 39 H 7.032841 1.454898 3.565897 0
M  V30 40 H 6.059482 1.930405 2.100120 0
M  V30 41 H 6.015214 3.079111 4.863894 0
M  V30 42 H 4.386819 2.707659 4.264944 0
M  V30 43 H 5.394917 3.769765 3.260905 0
M  V30 44 H 2.563039 -0.611873 3.722127 0
M  V30 45 H 3.528837 -1.747896 2.771555 0
M  V30 46 H 0.651477 0.514140 2.582661 0
M  V30 47 H -3.506662 1.543354 0.014128 0
M  V30 48 H -3.628265 1.315052 -2.839831 0
M  V30 49 H -4.955544 1.633355 -1.731805 0
M  V30 50 H -4.032882 -1.147730 -2.677964 0
M  V30 51 H -6.648635 0.404799 -2.865101 0
M  V30 52 H -5.410266 0.496786 -4.160075 0
M  V30 53 H -7.490362 -3.696177 -4.163803 0
M  V30 54 H -8.059451 -5.381355 -2.460537 0
M  V30 55 H -7.388817 -5.021637 -0.121278 0
M  V30 56 H -6.129932 -2.928783 0.480826 0
M  V30 57 H 0.117767 -1.426148 -1.986583 0
M  V30 58 H 1.826384 -2.842759 -2.971611 0
M  V30 59 H 3.903557 -3.327755 -1.636853 0
M  V30 60 H 4.116798 -2.356683 0.589687 0
M  V30 END ATOM
M  V30 BEGIN BOND
M  V30 1 1 1 2
M  V30 2 1 2 3
M  V30 3 1 3 4
M  V30 4 1 4 5
M  V30 5 1 3 6
M  V30 6 2 6 7
M  V30 7 1 6 8
M  V30 8 1 8 9
M  V30 9 1 9 10
M  V30 10 2 10 11
M  V30 11 1 11 12
M  V30 12 2 12 13
M  V30 13 1 12 14
M  V30 14 2 14 15
M  V30 15 1 14 16
M  V30 16 1 16 17
M  V30 17 1 17 18
M  V30 18 1 18 19
M  V30 19 1 19 20
M  V30 20 1 20 21
M  V30 21 2 21 22
M  V30 22 1 22 23
M  V30 23 2 23 24
M  V30 24 1 24 25
M  V30 25 2 25 26
M  V30 26 1 26 27
M  V30 27 1 11 28
M  V30 28 2 28 29
M  V30 29 1 29 30
M  V30 30 2 30 31
M  V30 31 1 31 32
M  V30 32 2 32 33
M  V30 33 1 33 9
M  V30 34 1 27 18
M  V30 35 1 33 28
M  V30 36 1 26 21
M  V30 37 1 1 34
M  V30 38 1 1 35
M  V30 39 1 1 36
M  V30 40 1 2 37
M  V30 41 1 2 38
M  V30 42 1 4 39
M  V30 43 1 4 40
M  V30 44 1 5 41
M  V30 45 1 5 42
M  V30 46 1 5 43
M  V30 47 1 8 44
M  V30 48 1 8 45
M  V30 49 1 10 46
M  V30 50 1 16 47
M  V30 51 1 17 48
M  V30 52 1 17 49
M  V30 53 1 18 50
M  V30 54 1 19 51
M  V30 55 1 19 52
M  V30 56 1 22 53
M  V30 57 1 23 54
M  V30 58 1 24 55
M  V30 59 1 25 56
M  V30 60 1 29 57
M  V30 61 1 30 58
M  V30 62 1 31 59
M  V30 63 1 32 60
M  V30 END BOND
M  V30 END CTAB
M  END
>  <Dataset>  (103) 
ChEMBL_Kinases

>  <Ligand_Instance>  (103) 
nan

>  <PDB_ID>  (103) 
nan

>  <Standardized_SMILES>  (103) 
CCN(CC)C(=O)Cn1cc(C(=O)C(=O)NCC2COc3ccccc3O2)c2ccccc21

>  <Name>  (103) 
nan

>  <Pocket>  (103) 
nan

>  <ATP_Site>  (103) 
nan

>  <Peripheral>  (103) 
nan

>  <Num_H_Atoms_ProtBoundConf>  (103) 
nan

>  <Num_Resolved_Atoms>  (103) 
nan

>  <Num_Not_Resolved_Atoms>  (103) 
nan

$$$$
CHEMBL1481209
     RDKit          3D

  0  0  0  0  0  0  0  0  0  0999 V3000
M  V30 BEGIN CTAB
M  V30 COUNTS 24 25 0 0 0
M  V30 BEGIN ATOM
M  V30 1 C -0.252398 -2.020041 4.027497 0
M  V30 2 C 0.128878 -1.818669 2.603974 0
M  V30 3 C 0.376020 -2.928238 1.811185 0
M  V30 4 C 0.733087 -2.799134 0.484275 0
M  V30 5 O 0.999770 -3.847485 -0.386793 0
M  V30 6 N 0.833277 -1.540200 -0.016172 0
M  V30 7 C 0.597419 -0.450869 0.737218 0
M  V30 8 C 0.725400 0.870225 0.128056 0
M  V30 9 C 0.486038 1.995700 0.890718 0
M  V30 10 C 0.610050 3.256153 0.302550 0
M  V30 11 C 0.971669 3.278214 -1.029996 0
M  V30 12 Cl 1.125827 4.877002 -1.764406 0
M  V30 13 C 1.213682 2.163615 -1.803543 0
M  V30 14 C 1.086427 0.910567 -1.204226 0
M  V30 15 N 0.248474 -0.587149 2.035013 0
M  V30 16 H -0.098746 -1.075018 4.589810 0
M  V30 17 H 0.312668 -2.882052 4.457771 0
M  V30 18 H -1.322663 -2.271603 4.143454 0
M  V30 19 H 0.304997 -3.962568 2.180838 0
M  V30 20 H 0.369304 -3.969548 -1.186726 0
M  V30 21 H 0.202705 1.937568 1.939034 0
M  V30 22 H 0.430040 4.159174 0.870144 0
M  V30 23 H 1.493962 2.252433 -2.843896 0
M  V30 24 H 1.276253 0.043670 -1.811770 0
M  V30 END ATOM
M  V30 BEGIN BOND
M  V30 1 1 1 2
M  V30 2 2 2 3
M  V30 3 1 3 4
M  V30 4 1 4 5
M  V30 5 2 4 6
M  V30 6 1 6 7
M  V30 7 1 7 8
M  V30 8 2 8 9
M  V30 9 1 9 10
M  V30 10 2 10 11
M  V30 11 1 11 12
M  V30 12 1 11 13
M  V30 13 2 13 14
M  V30 14 2 7 15
M  V30 15 1 15 2
M  V30 16 1 14 8
M  V30 17 1 1 16
M  V30 18 1 1 17
M  V30 19 1 1 18
M  V30 20 1 3 19
M  V30 21 1 5 20
M  V30 22 1 9 21
M  V30 23 1 10 22
M  V30 24 1 13 23
M  V30 25 1 14 24
M  V30 END BOND
M  V30 END CTAB
M  END
>  <Dataset>  (104) 
ChEMBL_Kinases

>  <Ligand_Instance>  (104) 
nan

>  <PDB_ID>  (104) 
nan

>  <Standardized_SMILES>  (104) 
Cc1cc(O)nc(-c2ccc(Cl)cc2)n1

>  <Name>  (104) 
nan

>  <Pocket>  (104) 
nan

>  <ATP_Site>  (104) 
nan

>  <Peripheral>  (104) 
nan

>  <Num_H_Atoms_ProtBoundConf>  (104) 
nan

>  <Num_Resolved_Atoms>  (104) 
nan

>  <Num_Not_Resolved_Atoms>  (104) 
nan

$$$$
CHEMBL1481149
     RDKit          3D

  0  0  0  0  0  0  0  0  0  0999 V3000
M  V30 BEGIN CTAB
M  V30 COUNTS 53 56 0 0 0
M  V30 BEGIN ATOM
M  V30 1 C 2.680730 -4.745631 2.879585 0
M  V30 2 O 1.428890 -5.321526 2.501985 0
M  V30 3 C 0.631169 -4.599650 1.620760 0
M  V30 4 C 1.109685 -3.368268 1.170420 0
M  V30 5 C 0.305330 -2.646412 0.285511 0
M  V30 6 N 0.713749 -1.441007 -0.190252 0
M  V30 7 C -0.036848 -0.722308 -1.043134 0
M  V30 8 N 0.429109 0.533608 -1.517358 0
M  V30 9 C 1.672557 1.140021 -1.164351 0
M  V30 10 C 1.526714 2.615095 -0.960723 0
M  V30 11 N 0.129995 2.944239 -0.676120 0
M  V30 12 C -0.545037 3.467608 0.472888 0
M  V30 13 O -1.794034 3.671058 0.442222 0
M  V30 14 C -0.226279 3.904036 1.853704 0 CFG=1
M  V30 15 C -1.017100 3.139997 2.875739 0
M  V30 16 C 0.000171 2.206301 3.482701 0
M  V30 17 C 1.208142 2.398055 2.555695 0
M  V30 18 O 1.090273 3.724085 2.213129 0
M  V30 19 C -0.691176 2.663872 -1.828788 0
M  V30 20 C -0.309470 1.353809 -2.425310 0
M  V30 21 N -1.234433 -1.169608 -1.465351 0
M  V30 22 C -1.668469 -2.379324 -1.001792 0
M  V30 23 N -2.924151 -2.884636 -1.422934 0
M  V30 24 C -0.928231 -3.145582 -0.126965 0
M  V30 25 C -1.350763 -4.365140 0.348447 0
M  V30 26 C -0.586225 -5.117203 1.228342 0
M  V30 27 O -0.984952 -6.350913 1.725612 0
M  V30 28 C -2.222683 -6.931886 1.359065 0
M  V30 29 H 3.249550 -5.396133 3.542363 0
M  V30 30 H 3.266845 -4.599952 1.944489 0
M  V30 31 H 2.479460 -3.742500 3.324231 0
M  V30 32 H 2.050872 -2.949803 1.462764 0
M  V30 33 H 2.101464 0.697675 -0.242043 0
M  V30 34 H 2.367460 0.964691 -2.014453 0
M  V30 35 H 2.135373 2.975361 -0.117181 0
M  V30 36 H 1.789960 3.155469 -1.909786 0
M  V30 37 H -0.422324 5.015453 1.960089 0
M  V30 38 H -1.472659 3.812201 3.637062 0
M  V30 39 H -1.795030 2.565110 2.326144 0
M  V30 40 H 0.262479 2.555581 4.516525 0
M  V30 41 H -0.342110 1.172409 3.453698 0
M  V30 42 H 1.172022 1.685970 1.730066 0
M  V30 43 H 2.129046 2.273006 3.189889 0
M  V30 44 H -0.527402 3.463403 -2.599054 0
M  V30 45 H -1.789569 2.698703 -1.574857 0
M  V30 46 H -1.243298 0.865150 -2.793634 0
M  V30 47 H 0.306653 1.510604 -3.353396 0
M  V30 48 H -3.934343 -2.911935 -1.122103 0
M  V30 49 H -2.634827 -3.354449 -2.315354 0
M  V30 50 H -2.302230 -4.749482 0.030060 0
M  V30 51 H -2.528650 -7.695830 2.111232 0
M  V30 52 H -2.123476 -7.439626 0.362844 0
M  V30 53 H -3.015864 -6.157748 1.325280 0
M  V30 END ATOM
M  V30 BEGIN BOND
M  V30 1 1 1 2
M  V30 2 1 2 3
M  V30 3 2 3 4
M  V30 4 1 4 5
M  V30 5 2 5 6
M  V30 6 1 6 7
M  V30 7 1 7 8
M  V30 8 1 8 9
M  V30 9 1 9 10
M  V30 10 1 10 11
M  V30 11 1 11 12
M  V30 12 2 12 13
M  V30 13 1 12 14
M  V30 14 1 14 15
M  V30 15 1 15 16
M  V30 16 1 16 17
M  V30 17 1 17 18
M  V30 18 1 11 19
M  V30 19 1 19 20
M  V30 20 2 7 21
M  V30 21 1 21 22
M  V30 22 1 22 23
M  V30 23 2 22 24
M  V30 24 1 24 25
M  V30 25 2 25 26
M  V30 26 1 26 27
M  V30 27 1 27 28
M  V30 28 1 26 3
M  V30 29 1 24 5
M  V30 30 1 20 8
M  V30 31 1 18 14
M  V30 32 1 1 29
M  V30 33 1 1 30
M  V30 34 1 1 31
M  V30 35 1 4 32
M  V30 36 1 9 33
M  V30 37 1 9 34
M  V30 38 1 10 35
M  V30 39 1 10 36
M  V30 40 1 14 37 CFG=3
M  V30 41 1 15 38
M  V30 42 1 15 39
M  V30 43 1 16 40
M  V30 44 1 16 41
M  V30 45 1 17 42
M  V30 46 1 17 43
M  V30 47 1 19 44
M  V30 48 1 19 45
M  V30 49 1 20 46
M  V30 50 1 20 47
M  V30 51 1 23 48
M  V30 52 1 23 49
M  V30 53 1 25 50
M  V30 54 1 28 51
M  V30 55 1 28 52
M  V30 56 1 28 53
M  V30 END BOND
M  V30 END CTAB
M  END
>  <Dataset>  (105) 
ChEMBL_Kinases

>  <Ligand_Instance>  (105) 
nan

>  <PDB_ID>  (105) 
nan

>  <Standardized_SMILES>  (105) 
COc1cc2nc(N3CCN(C(=O)[C@H]4CCCO4)CC3)nc(N)c2cc1OC

>  <Name>  (105) 
nan

>  <Pocket>  (105) 
nan

>  <ATP_Site>  (105) 
nan

>  <Peripheral>  (105) 
nan

>  <Num_H_Atoms_ProtBoundConf>  (105) 
nan

>  <Num_Resolved_Atoms>  (105) 
nan

>  <Num_Not_Resolved_Atoms>  (105) 
nan

$$$$
CHEMBL1481145
     RDKit          3D

  0  0  0  0  0  0  0  0  0  0999 V3000
M  V30 BEGIN CTAB
M  V30 COUNTS 41 43 0 0 0
M  V30 BEGIN ATOM
M  V30 1 C 0.113823 -6.345417 -1.891463 0
M  V30 2 C 0.196397 -4.848487 -1.697259 0
M  V30 3 C 0.679653 -4.300790 -3.032674 0
M  V30 4 C 1.182808 -4.570406 -0.582424 0
M  V30 5 N 1.342809 -3.157329 -0.307516 0
M  V30 6 C 2.244150 -2.198481 -0.848545 0
M  V30 7 O 3.107991 -2.452229 -1.716984 0
M  V30 8 C 1.952837 -0.908463 -0.196265 0
M  V30 9 C 2.528508 0.335608 -0.353279 0
M  V30 10 C 2.060317 1.419767 0.399957 0
M  V30 11 C 1.024933 1.243921 1.297681 0
M  V30 12 C 0.589243 2.420363 2.048843 0
M  V30 13 O 1.171085 3.494875 1.835849 0
M  V30 14 N -0.464506 2.379379 3.003517 0
M  V30 15 C -0.927146 3.483044 3.757766 0
M  V30 16 C -0.480570 3.906107 4.996476 0
M  V30 17 C -1.042918 5.015494 5.606178 0
M  V30 18 N -2.041982 5.715564 5.010335 0
M  V30 19 C -2.489846 5.325320 3.813017 0
M  V30 20 C -1.950219 4.211687 3.163127 0
M  V30 21 C 0.471260 -0.009671 1.431656 0
M  V30 22 C 0.910634 -1.101394 0.702596 0
M  V30 23 C 0.506002 -2.508474 0.654040 0
M  V30 24 O -0.415676 -2.938153 1.371634 0
M  V30 25 H -0.375444 -6.755423 -0.968317 0
M  V30 26 H -0.593774 -6.595862 -2.707428 0
M  V30 27 H 1.073227 -6.844828 -2.021865 0
M  V30 28 H -0.810564 -4.474412 -1.486555 0
M  V30 29 H 0.339918 -3.254252 -3.108151 0
M  V30 30 H 1.758155 -4.352380 -3.173978 0
M  V30 31 H 0.238599 -4.888340 -3.877037 0
M  V30 32 H 2.163247 -5.014274 -0.926491 0
M  V30 33 H 0.858719 -5.142462 0.297267 0
M  V30 34 H 3.340493 0.468710 -1.058749 0
M  V30 35 H 2.552401 2.370991 0.232231 0
M  V30 36 H -0.963897 1.481407 3.193517 0
M  V30 37 H 0.312850 3.313361 5.421070 0
M  V30 38 H -0.626714 5.267796 6.573046 0
M  V30 39 H -3.286733 5.911728 3.374731 0
M  V30 40 H -2.358201 3.945718 2.190717 0
M  V30 41 H -0.339035 -0.145366 2.134811 0
M  V30 END ATOM
M  V30 BEGIN BOND
M  V30 1 1 1 2
M  V30 2 1 2 3
M  V30 3 1 2 4
M  V30 4 1 4 5
M  V30 5 1 5 6
M  V30 6 2 6 7
M  V30 7 1 6 8
M  V30 8 2 8 9
M  V30 9 1 9 10
M  V30 10 2 10 11
M  V30 11 1 11 12
M  V30 12 2 12 13
M  V30 13 1 12 14
M  V30 14 1 14 15
M  V30 15 2 15 16
M  V30 16 1 16 17
M  V30 17 2 17 18
M  V30 18 1 18 19
M  V30 19 2 19 20
M  V30 20 1 11 21
M  V30 21 2 21 22
M  V30 22 1 22 23
M  V30 23 2 23 24
M  V30 24 1 23 5
M  V30 25 1 22 8
M  V30 26 1 20 15
M  V30 27 1 1 25
M  V30 28 1 1 26
M  V30 29 1 1 27
M  V30 30 1 2 28
M  V30 31 1 3 29
M  V30 32 1 3 30
M  V30 33 1 3 31
M  V30 34 1 4 32
M  V30 35 1 4 33
M  V30 36 1 9 34
M  V30 37 1 10 35
M  V30 38 1 14 36
M  V30 39 1 16 37
M  V30 40 1 17 38
M  V30 41 1 19 39
M  V30 42 1 20 40
M  V30 43 1 21 41
M  V30 END BOND
M  V30 END CTAB
M  END
>  <Dataset>  (106) 
ChEMBL_Kinases

>  <Ligand_Instance>  (106) 
nan

>  <PDB_ID>  (106) 
nan

>  <Standardized_SMILES>  (106) 
CC(C)CN1C(=O)c2ccc(C(=O)Nc3ccncc3)cc2C1=O

>  <Name>  (106) 
nan

>  <Pocket>  (106) 
nan

>  <ATP_Site>  (106) 
nan

>  <Peripheral>  (106) 
nan

>  <Num_H_Atoms_ProtBoundConf>  (106) 
nan

>  <Num_Resolved_Atoms>  (106) 
nan

>  <Num_Not_Resolved_Atoms>  (106) 
nan

$$$$
CHEMBL1480931
     RDKit          3D

  0  0  0  0  0  0  0  0  0  0999 V3000
M  V30 BEGIN CTAB
M  V30 COUNTS 64 68 0 0 0
M  V30 BEGIN ATOM
M  V30 1 C 2.075383 0.116911 7.547851 0
M  V30 2 C 3.467093 0.432308 7.066543 0
M  V30 3 O 3.547585 1.602532 6.285789 0
M  V30 4 C 2.867639 1.789738 5.096127 0
M  V30 5 C 3.032128 2.992652 4.420503 0
M  V30 6 C 2.360873 3.200853 3.227956 0
M  V30 7 C 1.518956 2.280030 2.644453 0
M  V30 8 N 0.849001 2.519685 1.418598 0
M  V30 9 C 1.057369 3.685809 0.586759 0
M  V30 10 C 1.478253 3.156049 -0.769497 0
M  V30 11 O 1.663297 4.210363 -1.683232 0
M  V30 12 C 0.525659 2.182428 -1.372413 0
M  V30 13 N -0.250226 1.436523 -0.402900 0
M  V30 14 C -0.106945 1.586896 0.927305 0
M  V30 15 N -0.984511 0.740686 1.526602 0
M  V30 16 C -1.654398 0.082459 0.562297 0
M  V30 17 C -1.193751 0.518642 -0.686372 0
M  V30 18 C -1.749512 -0.030625 -1.824288 0
M  V30 19 O -1.300516 0.395350 -2.930954 0
M  V30 20 N -2.716046 -0.968376 -1.808990 0
M  V30 21 C -3.243521 -1.475971 -3.057483 0
M  V30 22 C -2.400179 -2.646567 -3.509680 0
M  V30 23 C -2.350351 -3.788225 -2.556407 0
M  V30 24 C -1.501615 -4.913628 -3.084232 0
M  V30 25 C -2.169538 -5.869686 -3.846653 0
M  V30 26 C -1.515275 -6.959651 -4.395820 0
M  V30 27 C -0.161589 -7.100113 -4.179624 0
M  V30 28 C 0.508569 -6.151695 -3.421581 0
M  V30 29 C -0.147779 -5.065195 -2.875108 0
M  V30 30 C -3.124898 -1.353854 -0.585996 0
M  V30 31 O -4.026147 -2.225110 -0.491662 0
M  V30 32 N -2.620523 -0.854716 0.556977 0
M  V30 33 C -3.134265 -1.341940 1.841259 0
M  V30 34 C 1.399513 1.113350 3.361166 0
M  V30 35 C 2.033514 0.853192 4.536657 0
M  V30 36 H 1.318898 0.856922 7.211747 0
M  V30 37 H 2.033547 0.182178 8.674311 0
M  V30 38 H 1.755929 -0.923194 7.316612 0
M  V30 39 H 4.134139 0.544795 7.944068 0
M  V30 40 H 3.861254 -0.436786 6.480179 0
M  V30 41 H 3.691545 3.737073 4.859577 0
M  V30 42 H 2.552243 4.153870 2.787953 0
M  V30 43 H 0.109201 4.271123 0.459021 0
M  V30 44 H 1.833825 4.367616 0.916766 0
M  V30 45 H 2.479827 2.693276 -0.654986 0
M  V30 46 H 1.137162 4.083508 -2.502976 0
M  V30 47 H -0.128167 2.714383 -2.105476 0
M  V30 48 H 1.138128 1.492355 -2.018289 0
M  V30 49 H -3.165723 -0.634417 -3.788138 0
M  V30 50 H -4.301391 -1.768944 -2.899267 0
M  V30 51 H -2.767602 -2.982393 -4.523980 0
M  V30 52 H -1.346838 -2.337473 -3.708395 0
M  V30 53 H -1.870643 -3.450997 -1.600237 0
M  V30 54 H -3.351266 -4.151187 -2.323478 0
M  V30 55 H -3.241507 -5.800703 -4.044882 0
M  V30 56 H -2.001481 -7.719125 -4.991435 0
M  V30 57 H 0.428129 -7.933983 -4.579603 0
M  V30 58 H 1.574617 -6.201607 -3.212516 0
M  V30 59 H 0.327531 -4.293027 -2.273829 0
M  V30 60 H -3.109965 -2.458678 1.781130 0
M  V30 61 H -2.473199 -1.034577 2.661265 0
M  V30 62 H -4.142183 -0.946322 2.045256 0
M  V30 63 H 0.772683 0.305731 3.015551 0
M  V30 64 H 1.928527 -0.065899 5.083815 0
M  V30 END ATOM
M  V30 BEGIN BOND
M  V30 1 1 1 2
M  V30 2 1 2 3
M  V30 3 1 3 4
M  V30 4 2 4 5
M  V30 5 1 5 6
M  V30 6 2 6 7
M  V30 7 1 7 8
M  V30 8 1 8 9
M  V30 9 1 9 10
M  V30 10 1 10 11
M  V30 11 1 10 12
M  V30 12 1 12 13
M  V30 13 1 13 14
M  V30 14 2 14 15
M  V30 15 1 15 16
M  V30 16 2 16 17
M  V30 17 1 17 18
M  V30 18 2 18 19
M  V30 19 1 18 20
M  V30 20 1 20 21
M  V30 21 1 21 22
M  V30 22 1 22 23
M  V30 23 1 23 24
M  V30 24 2 24 25
M  V30 25 1 25 26
M  V30 26 2 26 27
M  V30 27 1 27 28
M  V30 28 2 28 29
M  V30 29 1 20 30
M  V30 30 2 30 31
M  V30 31 1 30 32
M  V30 32 1 32 33
M  V30 33 1 7 34
M  V30 34 2 34 35
M  V30 35 1 35 4
M  V30 36 1 14 8
M  V30 37 1 32 16
M  V30 38 1 17 13
M  V30 39 1 29 24
M  V30 40 1 1 36
M  V30 41 1 1 37
M  V30 42 1 1 38
M  V30 43 1 2 39
M  V30 44 1 2 40
M  V30 45 1 5 41
M  V30 46 1 6 42
M  V30 47 1 9 43
M  V30 48 1 9 44
M  V30 49 1 10 45
M  V30 50 1 11 46
M  V30 51 1 12 47
M  V30 52 1 12 48
M  V30 53 1 21 49
M  V30 54 1 21 50
M  V30 55 1 22 51
M  V30 56 1 22 52
M  V30 57 1 23 53
M  V30 58 1 23 54
M  V30 59 1 25 55
M  V30 60 1 26 56
M  V30 61 1 27 57
M  V30 62 1 28 58
M  V30 63 1 29 59
M  V30 64 1 33 60
M  V30 65 1 33 61
M  V30 66 1 33 62
M  V30 67 1 34 63
M  V30 68 1 35 64
M  V30 END BOND
M  V30 END CTAB
M  END
>  <Dataset>  (107) 
ChEMBL_Kinases

>  <Ligand_Instance>  (107) 
nan

>  <PDB_ID>  (107) 
nan

>  <Standardized_SMILES>  (107) 
CCOc1ccc(N2CC(O)Cn3c2nc2c3c(=O)n(CCCc3ccccc3)c(=O)n2C)cc1

>  <Name>  (107) 
nan

>  <Pocket>  (107) 
nan

>  <ATP_Site>  (107) 
nan

>  <Peripheral>  (107) 
nan

>  <Num_H_Atoms_ProtBoundConf>  (107) 
nan

>  <Num_Resolved_Atoms>  (107) 
nan

>  <Num_Not_Resolved_Atoms>  (107) 
nan

$$$$
CHEMBL1480903
     RDKit          3D

  0  0  0  0  0  0  0  0  0  0999 V3000
M  V30 BEGIN CTAB
M  V30 COUNTS 49 51 0 0 0
M  V30 BEGIN ATOM
M  V30 1 C 1.708049 -5.339418 3.343604 0
M  V30 2 C 1.302063 -5.124389 1.912431 0
M  V30 3 C 2.462720 -5.117923 0.959397 0
M  V30 4 C 3.463474 -4.033003 1.266054 0
M  V30 5 C 2.866363 -2.698146 1.197765 0
M  V30 6 C 2.356631 -1.584916 1.126470 0
M  V30 7 C 1.740434 -0.287846 1.038023 0
M  V30 8 N 2.531273 0.800687 0.837234 0
M  V30 9 C 2.011530 2.038790 0.746181 0
M  V30 10 N 2.863281 3.142271 0.537798 0
M  V30 11 C 4.298754 3.005711 0.414510 0
M  V30 12 C 0.646299 2.207111 0.859062 0
M  V30 13 N -0.178511 3.274071 0.817068 0
M  V30 14 C -1.445650 2.855310 0.987479 0
M  V30 15 N -1.463752 1.536471 1.139783 0
M  V30 16 C -2.550258 0.596657 1.352184 0 CFG=2
M  V30 17 O -2.279530 -0.519846 0.540942 0
M  V30 18 C -2.380340 0.045873 -0.729611 0 CFG=1
M  V30 19 C -2.526751 -1.084277 -1.752796 0
M  V30 20 O -3.679493 -1.791675 -1.430538 0
M  V30 21 C -3.605581 0.920254 -0.713670 0 CFG=2
M  V30 22 O -3.337339 2.199411 -1.211680 0
M  V30 23 C -3.854428 1.068138 0.773205 0 CFG=1
M  V30 24 O -4.817980 0.120624 1.162829 0
M  V30 25 C -0.174970 1.114346 1.063276 0
M  V30 26 N 0.410991 -0.104517 1.145727 0
M  V30 27 H 1.914190 -6.412128 3.560381 0
M  V30 28 H 2.476211 -4.645643 3.684743 0
M  V30 29 H 0.795985 -5.107337 3.967106 0
M  V30 30 H 0.815784 -4.128309 1.826177 0
M  V30 31 H 0.622660 -5.933881 1.599430 0
M  V30 32 H 3.002546 -6.075946 0.916833 0
M  V30 33 H 2.039648 -4.923381 -0.051785 0
M  V30 34 H 3.894716 -4.233427 2.275324 0
M  V30 35 H 4.252636 -4.072992 0.493399 0
M  V30 36 H 2.486359 4.112627 0.463478 0
M  V30 37 H 4.618409 1.949389 0.392030 0
M  V30 38 H 4.778561 3.629850 1.176374 0
M  V30 39 H 4.607150 3.412720 -0.587700 0
M  V30 40 H -2.317762 3.474454 1.001202 0
M  V30 41 H -2.633480 0.305661 2.418612 0
M  V30 42 H -1.508665 0.633699 -1.033039 0
M  V30 43 H -1.637546 -1.725261 -1.693956 0
M  V30 44 H -2.545718 -0.654588 -2.773865 0
M  V30 45 H -4.330561 -1.587744 -2.167746 0
M  V30 46 H -4.466217 0.450923 -1.231917 0
M  V30 47 H -4.067202 2.798402 -0.972878 0
M  V30 48 H -4.149394 2.089154 1.073924 0
M  V30 49 H -4.422687 -0.703460 1.526748 0
M  V30 END ATOM
M  V30 BEGIN BOND
M  V30 1 1 1 2
M  V30 2 1 2 3
M  V30 3 1 3 4
M  V30 4 1 4 5
M  V30 5 3 5 6
M  V30 6 1 6 7
M  V30 7 2 7 8
M  V30 8 1 8 9
M  V30 9 1 9 10
M  V30 10 1 10 11
M  V30 11 2 9 12
M  V30 12 1 12 13
M  V30 13 2 13 14
M  V30 14 1 14 15
M  V30 15 1 15 16
M  V30 16 1 16 17
M  V30 17 1 17 18
M  V30 18 1 18 19
M  V30 19 1 19 20
M  V30 20 1 18 21
M  V30 21 1 21 22
M  V30 22 1 21 23
M  V30 23 1 23 24
M  V30 24 1 15 25
M  V30 25 2 25 26
M  V30 26 1 26 7
M  V30 27 1 25 12
M  V30 28 1 23 16
M  V30 29 1 1 27
M  V30 30 1 1 28
M  V30 31 1 1 29
M  V30 32 1 2 30
M  V30 33 1 2 31
M  V30 34 1 3 32
M  V30 35 1 3 33
M  V30 36 1 4 34
M  V30 37 1 4 35
M  V30 38 1 10 36
M  V30 39 1 11 37
M  V30 40 1 11 38
M  V30 41 1 11 39
M  V30 42 1 14 40
M  V30 43 1 16 41 CFG=1
M  V30 44 1 18 42 CFG=3
M  V30 45 1 19 43
M  V30 46 1 19 44
M  V30 47 1 20 45
M  V30 48 1 21 46 CFG=3
M  V30 49 1 22 47
M  V30 50 1 23 48 CFG=3
M  V30 51 1 24 49
M  V30 END BOND
M  V30 END CTAB
M  END
>  <Dataset>  (108) 
ChEMBL_Kinases

>  <Ligand_Instance>  (108) 
nan

>  <PDB_ID>  (108) 
nan

>  <Standardized_SMILES>  (108) 
CCCCC#Cc1nc(NC)c2ncn([C@@H]3O[C@@H](CO)[C@H](O)[C@H]3O)c2n1

>  <Name>  (108) 
nan

>  <Pocket>  (108) 
nan

>  <ATP_Site>  (108) 
nan

>  <Peripheral>  (108) 
nan

>  <Num_H_Atoms_ProtBoundConf>  (108) 
nan

>  <Num_Resolved_Atoms>  (108) 
nan

>  <Num_Not_Resolved_Atoms>  (108) 
nan

$$$$
CHEMBL1480812
     RDKit          3D

  0  0  0  0  0  0  0  0  0  0999 V3000
M  V30 BEGIN CTAB
M  V30 COUNTS 46 49 0 0 0
M  V30 BEGIN ATOM
M  V30 1 O -0.300601 -1.053085 3.111571 0
M  V30 2 C 0.237745 -0.174201 2.351986 0
M  V30 3 C 1.436396 0.499847 2.982360 0
M  V30 4 N 1.944651 1.416902 2.028022 0
M  V30 5 C 2.531971 0.822546 0.883389 0
M  V30 6 C 2.628965 -0.548487 0.725846 0
M  V30 7 C 3.191270 -1.206881 -0.343922 0
M  V30 8 C 3.717043 -0.456744 -1.373403 0
M  V30 9 C 3.648823 0.919138 -1.271165 0
M  V30 10 C 3.079506 1.483368 -0.185766 0
M  V30 11 S 3.082236 3.267063 -0.215463 0
M  V30 12 C 2.311090 3.760388 1.312431 0
M  V30 13 C 2.226272 5.113832 1.484134 0
M  V30 14 C 1.642294 5.616152 2.630570 0
M  V30 15 C 1.168235 4.712993 3.555853 0
M  V30 16 C 1.289717 3.362550 3.312445 0
M  V30 17 C 1.861422 2.806915 2.190124 0
M  V30 18 N -0.390038 -0.010703 1.090693 0
M  V30 19 N -1.495559 -0.839637 0.873321 0
M  V30 20 C -1.454160 -2.124226 0.300336 0
M  V30 21 O -0.424939 -2.698835 -0.092002 0
M  V30 22 N -2.726494 -2.714377 0.210929 0
M  V30 23 C -3.026210 -4.001588 -0.317321 0
M  V30 24 C -3.314508 -4.138844 -1.647252 0
M  V30 25 C -3.605967 -5.380008 -2.169059 0
M  V30 26 C -3.615900 -6.507987 -1.376587 0
M  V30 27 Cl -3.989458 -8.085824 -2.054855 0
M  V30 28 C -3.321415 -6.350630 -0.030981 0
M  V30 29 Cl -3.320304 -7.758628 1.025020 0
M  V30 30 C -3.026732 -5.121606 0.515889 0
M  V30 31 H 2.192248 -0.303109 3.255152 0
M  V30 32 H 1.059777 0.849731 3.924292 0
M  V30 33 H 2.249695 -1.233768 1.473659 0
M  V30 34 H 3.247465 -2.281210 -0.429255 0
M  V30 35 H 4.161668 -0.950760 -2.220024 0
M  V30 36 H 4.077874 1.450376 -2.109506 0
M  V30 37 H 2.588653 5.848536 0.777016 0
M  V30 38 H 1.558201 6.673711 2.799678 0
M  V30 39 H 0.716633 5.137899 4.442423 0
M  V30 40 H 0.877071 2.771748 4.116535 0
M  V30 41 H 0.096615 0.736641 0.517923 0
M  V30 42 H -2.341086 -0.329500 1.212427 0
M  V30 43 H -3.652920 -2.305327 0.516297 0
M  V30 44 H -3.304730 -3.265027 -2.250644 0
M  V30 45 H -3.825933 -5.440947 -3.216388 0
M  V30 46 H -2.798288 -5.014867 1.571171 0
M  V30 END ATOM
M  V30 BEGIN BOND
M  V30 1 2 1 2
M  V30 2 1 2 3
M  V30 3 1 3 4
M  V30 4 1 4 5
M  V30 5 2 5 6
M  V30 6 1 6 7
M  V30 7 2 7 8
M  V30 8 1 8 9
M  V30 9 2 9 10
M  V30 10 1 10 11
M  V30 11 1 11 12
M  V30 12 2 12 13
M  V30 13 1 13 14
M  V30 14 2 14 15
M  V30 15 1 15 16
M  V30 16 2 16 17
M  V30 17 1 2 18
M  V30 18 1 18 19
M  V30 19 1 19 20
M  V30 20 2 20 21
M  V30 21 1 20 22
M  V30 22 1 22 23
M  V30 23 2 23 24
M  V30 24 1 24 25
M  V30 25 2 25 26
M  V30 26 1 26 27
M  V30 27 1 26 28
M  V30 28 1 28 29
M  V30 29 2 28 30
M  V30 30 1 17 4
M  V30 31 1 30 23
M  V30 32 1 10 5
M  V30 33 1 17 12
M  V30 34 1 3 31
M  V30 35 1 3 32
M  V30 36 1 6 33
M  V30 37 1 7 34
M  V30 38 1 8 35
M  V30 39 1 9 36
M  V30 40 1 13 37
M  V30 41 1 14 38
M  V30 42 1 15 39
M  V30 43 1 16 40
M  V30 44 1 18 41
M  V30 45 1 19 42
M  V30 46 1 22 43
M  V30 47 1 24 44
M  V30 48 1 25 45
M  V30 49 1 30 46
M  V30 END BOND
M  V30 END CTAB
M  END
>  <Dataset>  (109) 
ChEMBL_Kinases

>  <Ligand_Instance>  (109) 
nan

>  <PDB_ID>  (109) 
nan

>  <Standardized_SMILES>  (109) 
O=C(CN1c2ccccc2Sc2ccccc21)NNC(=O)Nc1ccc(Cl)c(Cl)c1

>  <Name>  (109) 
nan

>  <Pocket>  (109) 
nan

>  <ATP_Site>  (109) 
nan

>  <Peripheral>  (109) 
nan

>  <Num_H_Atoms_ProtBoundConf>  (109) 
nan

>  <Num_Resolved_Atoms>  (109) 
nan

>  <Num_Not_Resolved_Atoms>  (109) 
nan

$$$$
CHEMBL1480350
     RDKit          3D

  0  0  0  0  0  0  0  0  0  0999 V3000
M  V30 BEGIN CTAB
M  V30 COUNTS 45 47 0 0 0
M  V30 BEGIN ATOM
M  V30 1 C 0.730575 -6.953303 -3.674377 0
M  V30 2 O 0.146299 -5.677676 -3.483654 0
M  V30 3 C 0.706372 -4.739841 -2.634231 0
M  V30 4 C 1.861834 -5.031647 -1.945748 0
M  V30 5 C 2.467402 -4.142563 -1.087016 0
M  V30 6 C 1.871683 -2.887027 -0.913903 0
M  V30 7 C 0.696775 -2.603630 -1.620347 0
M  V30 8 C 0.097208 -1.267873 -1.412398 0
M  V30 9 C -0.591460 -0.691436 -2.459984 0
M  V30 10 C -1.156595 0.555959 -2.282178 0
M  V30 11 C -1.029450 1.210126 -1.069758 0
M  V30 12 N -1.568334 2.435395 -0.853390 0
M  V30 13 C -1.420981 3.039197 0.344074 0
M  V30 14 N -0.752956 2.467101 1.343206 0
M  V30 15 C -0.194129 1.269519 1.216566 0
M  V30 16 N 0.513803 0.694596 2.303871 0
M  V30 17 C 0.623852 1.419791 3.574700 0
M  V30 18 C -0.685411 1.665086 4.241350 0
M  V30 19 N -0.429881 2.383927 5.490472 0
M  V30 20 C 0.178698 3.647020 5.655443 0
M  V30 21 C 0.386076 4.276899 6.978506 0
M  V30 22 O 0.567770 4.278129 4.639617 0
M  V30 23 C -0.347349 0.657043 -0.008138 0
M  V30 24 C 0.202374 -0.583206 -0.217106 0
M  V30 25 C 0.092861 -3.514296 -2.488218 0
M  V30 26 H 0.160857 -7.576448 -4.375165 0
M  V30 27 H 1.759366 -6.785171 -4.049008 0
M  V30 28 H 0.823038 -7.508681 -2.710035 0
M  V30 29 H 2.352918 -5.999296 -2.056383 0
M  V30 30 H 3.372823 -4.321848 -0.523975 0
M  V30 31 H 2.312455 -2.161891 -0.251450 0
M  V30 32 H -0.702197 -1.189215 -3.419477 0
M  V30 33 H -1.716352 1.083624 -3.054351 0
M  V30 34 H -1.849620 4.026400 0.533192 0
M  V30 35 H 0.995325 -0.228828 2.324568 0
M  V30 36 H 1.309757 0.956061 4.283760 0
M  V30 37 H 1.081183 2.429917 3.352390 0
M  V30 38 H -1.378228 2.278032 3.601940 0
M  V30 39 H -1.241470 0.759406 4.502619 0
M  V30 40 H -0.713472 1.955490 6.417520 0
M  V30 41 H -0.396640 3.941722 7.704067 0
M  V30 42 H 0.359854 5.376273 6.841453 0
M  V30 43 H 1.383077 4.052495 7.427708 0
M  V30 44 H 0.756859 -1.107315 0.545852 0
M  V30 45 H -0.807734 -3.261022 -3.012439 0
M  V30 END ATOM
M  V30 BEGIN BOND
M  V30 1 1 1 2
M  V30 2 1 2 3
M  V30 3 2 3 4
M  V30 4 1 4 5
M  V30 5 2 5 6
M  V30 6 1 6 7
M  V30 7 1 7 8
M  V30 8 2 8 9
M  V30 9 1 9 10
M  V30 10 2 10 11
M  V30 11 1 11 12
M  V30 12 2 12 13
M  V30 13 1 13 14
M  V30 14 2 14 15
M  V30 15 1 15 16
M  V30 16 1 16 17
M  V30 17 1 17 18
M  V30 18 1 18 19
M  V30 19 1 19 20
M  V30 20 1 20 21
M  V30 21 2 20 22
M  V30 22 1 15 23
M  V30 23 2 23 24
M  V30 24 2 7 25
M  V30 25 1 25 3
M  V30 26 1 24 8
M  V30 27 1 23 11
M  V30 28 1 1 26
M  V30 29 1 1 27
M  V30 30 1 1 28
M  V30 31 1 4 29
M  V30 32 1 5 30
M  V30 33 1 6 31
M  V30 34 1 9 32
M  V30 35 1 10 33
M  V30 36 1 13 34
M  V30 37 1 16 35
M  V30 38 1 17 36
M  V30 39 1 17 37
M  V30 40 1 18 38
M  V30 41 1 18 39
M  V30 42 1 19 40
M  V30 43 1 21 41
M  V30 44 1 21 42
M  V30 45 1 21 43
M  V30 46 1 24 44
M  V30 47 1 25 45
M  V30 END BOND
M  V30 END CTAB
M  END
>  <Dataset>  (110) 
ChEMBL_Kinases

>  <Ligand_Instance>  (110) 
nan

>  <PDB_ID>  (110) 
nan

>  <Standardized_SMILES>  (110) 
COc1cccc(-c2ccc3ncnc(NCCNC(C)=O)c3c2)c1

>  <Name>  (110) 
nan

>  <Pocket>  (110) 
nan

>  <ATP_Site>  (110) 
nan

>  <Peripheral>  (110) 
nan

>  <Num_H_Atoms_ProtBoundConf>  (110) 
nan

>  <Num_Resolved_Atoms>  (110) 
nan

>  <Num_Not_Resolved_Atoms>  (110) 
nan

$$$$
CHEMBL1478585
     RDKit          3D

  0  0  0  0  0  0  0  0  0  0999 V3000
M  V30 BEGIN CTAB
M  V30 COUNTS 41 43 0 0 0
M  V30 BEGIN ATOM
M  V30 1 O 0.286673 -2.524468 2.039802 0
M  V30 2 C 1.431936 -2.004164 2.038499 0
M  V30 3 N 2.208002 -1.888519 0.845461 0
M  V30 4 C 1.499323 -2.434338 -0.280026 0
M  V30 5 C 1.691307 -3.795681 -0.559937 0
M  V30 6 C 1.084700 -4.461332 -1.600173 0
M  V30 7 C 0.239499 -3.726514 -2.405446 0
M  V30 8 Cl -0.576472 -4.501579 -3.758082 0
M  V30 9 C 0.046098 -2.387739 -2.136107 0
M  V30 10 C 0.651468 -1.717710 -1.095772 0
M  V30 11 C 0.485187 -0.320002 -0.768676 0
M  V30 12 O 1.114879 0.130130 0.217603 0
M  V30 13 N -0.301513 0.624250 -1.417181 0
M  V30 14 C -0.696416 1.997031 -1.387582 0
M  V30 15 C -1.418335 2.483188 -0.188004 0
M  V30 16 C -0.656120 2.648934 1.062745 0
M  V30 17 C -1.200067 1.589997 1.989715 0
M  V30 18 C -2.294464 0.957947 1.170912 0
M  V30 19 O -2.594612 1.798251 0.109274 0
M  V30 20 C 1.947997 -1.514511 3.322022 0
M  V30 21 C 1.236632 -1.603698 4.499952 0
M  V30 22 C 2.042354 -1.040179 5.492785 0
M  V30 23 C 3.203129 -0.642286 4.840411 0
M  V30 24 O 3.103906 -0.939553 3.571650 0
M  V30 25 H 3.163232 -1.449232 0.871041 0
M  V30 26 H 2.357729 -4.355867 0.082439 0
M  V30 27 H 1.281410 -5.510303 -1.752949 0
M  V30 28 H -0.618072 -1.829857 -2.776469 0
M  V30 29 H -0.780442 0.114999 -2.235209 0
M  V30 30 H 0.263781 2.620804 -1.456775 0
M  V30 31 H -1.246785 2.301053 -2.307913 0
M  V30 32 H -1.797677 3.534287 -0.461449 0
M  V30 33 H 0.435924 2.562954 1.003073 0
M  V30 34 H -0.843327 3.677179 1.537045 0
M  V30 35 H -0.432777 0.876282 2.336166 0
M  V30 36 H -1.655804 2.042998 2.904986 0
M  V30 37 H -1.971927 -0.019516 0.733213 0
M  V30 38 H -3.184305 0.727677 1.794127 0
M  V30 39 H 0.261546 -2.002093 4.725189 0
M  V30 40 H 1.787810 -0.945557 6.550928 0
M  V30 41 H 3.997428 -0.169313 5.403792 0
M  V30 END ATOM
M  V30 BEGIN BOND
M  V30 1 2 1 2
M  V30 2 1 2 3
M  V30 3 1 3 4
M  V30 4 2 4 5
M  V30 5 1 5 6
M  V30 6 2 6 7
M  V30 7 1 7 8
M  V30 8 1 7 9
M  V30 9 2 9 10
M  V30 10 1 10 11
M  V30 11 2 11 12
M  V30 12 1 11 13
M  V30 13 1 13 14
M  V30 14 1 14 15
M  V30 15 1 15 16
M  V30 16 1 16 17
M  V30 17 1 17 18
M  V30 18 1 18 19
M  V30 19 1 2 20
M  V30 20 2 20 21
M  V30 21 1 21 22
M  V30 22 2 22 23
M  V30 23 1 23 24
M  V30 24 1 10 4
M  V30 25 1 19 15
M  V30 26 1 24 20
M  V30 27 1 3 25
M  V30 28 1 5 26
M  V30 29 1 6 27
M  V30 30 1 9 28
M  V30 31 1 13 29
M  V30 32 1 14 30
M  V30 33 1 14 31
M  V30 34 1 15 32
M  V30 35 1 16 33
M  V30 36 1 16 34
M  V30 37 1 17 35
M  V30 38 1 17 36
M  V30 39 1 18 37
M  V30 40 1 18 38
M  V30 41 1 21 39
M  V30 42 1 22 40
M  V30 43 1 23 41
M  V30 END BOND
M  V30 END CTAB
M  END
>  <Dataset>  (111) 
ChEMBL_Kinases

>  <Ligand_Instance>  (111) 
nan

>  <PDB_ID>  (111) 
nan

>  <Standardized_SMILES>  (111) 
O=C(Nc1ccc(Cl)cc1C(=O)NCC1CCCO1)c1ccco1

>  <Name>  (111) 
nan

>  <Pocket>  (111) 
nan

>  <ATP_Site>  (111) 
nan

>  <Peripheral>  (111) 
nan

>  <Num_H_Atoms_ProtBoundConf>  (111) 
nan

>  <Num_Resolved_Atoms>  (111) 
nan

>  <Num_Not_Resolved_Atoms>  (111) 
nan

$$$$
CHEMBL1478675
     RDKit          3D

  0  0  0  0  0  0  0  0  0  0999 V3000
M  V30 BEGIN CTAB
M  V30 COUNTS 46 50 0 0 0
M  V30 BEGIN ATOM
M  V30 1 O -1.715777 -4.303923 -0.784439 0
M  V30 2 C -0.444046 -4.200025 -0.561648 0
M  V30 3 C 0.233068 -5.455772 -0.658901 0
M  V30 4 C 1.540452 -5.838484 -0.973817 0
M  V30 5 C 2.113075 -7.055834 -0.987275 0
M  V30 6 C 1.281217 -8.092365 -0.638169 0
M  V30 7 C -0.023329 -7.926726 -0.300707 0
M  V30 8 C -0.485864 -6.624660 -0.325513 0
M  V30 9 C -0.065884 -2.841586 -0.268879 0
M  V30 10 C 1.169989 -2.250672 -0.402243 0
M  V30 11 C 1.474081 -0.955889 -0.062550 0
M  V30 12 C 0.489952 -0.151700 0.457082 0
M  V30 13 N 0.641247 1.128451 0.838982 0
M  V30 14 C -0.362601 1.859032 1.346591 0
M  V30 15 N -0.128058 3.217051 1.759621 0
M  V30 16 C -0.597157 4.524844 1.461904 0
M  V30 17 C 0.439124 5.580461 1.381528 0
M  V30 18 C 1.814670 5.252857 1.803112 0
M  V30 19 C 2.110541 3.824753 2.125777 0
M  V30 20 C 0.889264 3.246650 2.801315 0
M  V30 21 C -1.631933 1.346802 1.512869 0
M  V30 22 N -2.804811 1.811052 1.977363 0
M  V30 23 N -3.689141 0.835724 1.890257 0
M  V30 24 C -3.108851 -0.284572 1.366641 0
M  V30 25 N -1.821535 0.072861 1.141849 0
M  V30 26 C -0.781971 -0.651410 0.628884 0
M  V30 27 C -1.014379 -1.956475 0.266111 0
M  V30 28 H 2.181562 -5.010474 -1.259592 0
M  V30 29 H 3.140859 -7.192289 -1.252358 0
M  V30 30 H 1.674329 -9.102863 -0.624651 0
M  V30 31 H -0.685767 -8.725362 -0.025552 0
M  V30 32 H -1.542518 -6.513334 -0.044078 0
M  V30 33 H 1.992024 -2.797748 -0.799621 0
M  V30 34 H 2.456224 -0.535469 -0.183441 0
M  V30 35 H -1.141610 4.463809 0.474397 0
M  V30 36 H -1.407821 4.748649 2.211289 0
M  V30 37 H 0.430453 6.081260 0.366338 0
M  V30 38 H 0.078176 6.416935 2.053460 0
M  V30 39 H 2.169074 5.891635 2.651548 0
M  V30 40 H 2.514842 5.513153 0.954363 0
M  V30 41 H 2.425243 3.198648 1.292947 0
M  V30 42 H 2.941738 3.806405 2.861057 0
M  V30 43 H 1.169906 2.266543 3.204081 0
M  V30 44 H 0.580970 3.927936 3.626885 0
M  V30 45 H -3.596707 -1.254455 1.177817 0
M  V30 46 H -2.014019 -2.339892 0.407266 0
M  V30 END ATOM
M  V30 BEGIN BOND
M  V30 1 2 1 2
M  V30 2 1 2 3
M  V30 3 2 3 4
M  V30 4 1 4 5
M  V30 5 2 5 6
M  V30 6 1 6 7
M  V30 7 2 7 8
M  V30 8 1 2 9
M  V30 9 2 9 10
M  V30 10 1 10 11
M  V30 11 2 11 12
M  V30 12 1 12 13
M  V30 13 2 13 14
M  V30 14 1 14 15
M  V30 15 1 15 16
M  V30 16 1 16 17
M  V30 17 1 17 18
M  V30 18 1 18 19
M  V30 19 1 19 20
M  V30 20 1 14 21
M  V30 21 2 21 22
M  V30 22 1 22 23
M  V30 23 2 23 24
M  V30 24 1 24 25
M  V30 25 1 25 26
M  V30 26 2 26 27
M  V30 27 1 8 3
M  V30 28 1 27 9
M  V30 29 1 26 12
M  V30 30 1 20 15
M  V30 31 1 25 21
M  V30 32 1 4 28
M  V30 33 1 5 29
M  V30 34 1 6 30
M  V30 35 1 7 31
M  V30 36 1 8 32
M  V30 37 1 10 33
M  V30 38 1 11 34
M  V30 39 1 16 35
M  V30 40 1 16 36
M  V30 41 1 17 37
M  V30 42 1 17 38
M  V30 43 1 18 39
M  V30 44 1 18 40
M  V30 45 1 19 41
M  V30 46 1 19 42
M  V30 47 1 20 43
M  V30 48 1 20 44
M  V30 49 1 24 45
M  V30 50 1 27 46
M  V30 END BOND
M  V30 END CTAB
M  END
>  <Dataset>  (112) 
ChEMBL_Kinases

>  <Ligand_Instance>  (112) 
nan

>  <PDB_ID>  (112) 
nan

>  <Standardized_SMILES>  (112) 
O=C(c1ccccc1)c1ccc2nc(N3CCCCC3)c3nncn3c2c1

>  <Name>  (112) 
nan

>  <Pocket>  (112) 
nan

>  <ATP_Site>  (112) 
nan

>  <Peripheral>  (112) 
nan

>  <Num_H_Atoms_ProtBoundConf>  (112) 
nan

>  <Num_Resolved_Atoms>  (112) 
nan

>  <Num_Not_Resolved_Atoms>  (112) 
nan

$$$$
CHEMBL1478761
     RDKit          3D

  0  0  0  0  0  0  0  0  0  0999 V3000
M  V30 BEGIN CTAB
M  V30 COUNTS 49 52 0 0 0
M  V30 BEGIN ATOM
M  V30 1 C 1.890840 -6.907497 1.789732 0
M  V30 2 N 1.715641 -6.441897 0.429850 0
M  V30 3 C 1.724218 -7.311744 -0.739670 0
M  V30 4 C 1.522547 -5.048175 0.218205 0
M  V30 5 C 1.504745 -4.172521 1.288494 0
M  V30 6 C 1.318891 -2.800780 1.128380 0
M  V30 7 C 1.142983 -2.275248 -0.152111 0
M  V30 8 C 0.940775 -0.855802 -0.433024 0
M  V30 9 C 1.423324 -0.365986 -1.647644 0
M  V30 10 C 1.290142 0.956594 -2.021228 0
M  V30 11 C 0.657497 1.841352 -1.171380 0
M  V30 12 N 0.487747 3.151152 -1.465705 0
M  V30 13 C -0.145801 3.951231 -0.574046 0
M  V30 14 N -0.605654 3.466697 0.591934 0
M  V30 15 C -0.460817 2.155522 0.937635 0
M  V30 16 N -0.997228 1.821544 2.193544 0
M  V30 17 C -0.133731 1.302232 3.266464 0
M  V30 18 C -2.390352 2.001731 2.381875 0
M  V30 19 C -2.876405 3.393253 2.199570 0
M  V30 20 C -3.321318 3.981054 1.040692 0
M  V30 21 C -3.678588 5.302018 1.336324 0
M  V30 22 C -3.414907 5.414986 2.689849 0
M  V30 23 O -2.955173 4.305264 3.161598 0
M  V30 24 C 0.187083 1.357187 0.015920 0
M  V30 25 C 0.309487 0.037641 0.409959 0
M  V30 26 C 1.161112 -3.157979 -1.229643 0
M  V30 27 C 1.347196 -4.515024 -1.043780 0
M  V30 28 H 2.840700 -6.590284 2.255851 0
M  V30 29 H 1.761801 -8.001339 1.865443 0
M  V30 30 H 1.045329 -6.482620 2.397249 0
M  V30 31 H 0.776733 -7.077442 -1.278559 0
M  V30 32 H 2.551140 -7.052611 -1.420789 0
M  V30 33 H 1.665502 -8.376298 -0.490342 0
M  V30 34 H 1.636552 -4.524259 2.306477 0
M  V30 35 H 1.303807 -2.112464 1.961528 0
M  V30 36 H 1.934864 -0.975364 -2.385958 0
M  V30 37 H 1.666624 1.337498 -2.968954 0
M  V30 38 H -0.247824 4.986753 -0.872479 0
M  V30 39 H -0.074189 2.057327 4.096624 0
M  V30 40 H 0.908625 1.194007 2.910551 0
M  V30 41 H -0.509406 0.368543 3.698852 0
M  V30 42 H -2.643423 1.711836 3.429201 0
M  V30 43 H -3.000928 1.276805 1.765683 0
M  V30 44 H -3.401928 3.557759 0.066081 0
M  V30 45 H -4.063986 6.097888 0.747452 0
M  V30 46 H -3.516888 6.224316 3.399304 0
M  V30 47 H -0.065985 -0.340770 1.352152 0
M  V30 48 H 1.028443 -2.807956 -2.264526 0
M  V30 49 H 1.353083 -5.165580 -1.927038 0
M  V30 END ATOM
M  V30 BEGIN BOND
M  V30 1 1 1 2
M  V30 2 1 2 3
M  V30 3 1 2 4
M  V30 4 2 4 5
M  V30 5 1 5 6
M  V30 6 2 6 7
M  V30 7 1 7 8
M  V30 8 2 8 9
M  V30 9 1 9 10
M  V30 10 2 10 11
M  V30 11 1 11 12
M  V30 12 2 12 13
M  V30 13 1 13 14
M  V30 14 2 14 15
M  V30 15 1 15 16
M  V30 16 1 16 17
M  V30 17 1 16 18
M  V30 18 1 18 19
M  V30 19 2 19 20
M  V30 20 1 20 21
M  V30 21 2 21 22
M  V30 22 1 22 23
M  V30 23 1 15 24
M  V30 24 2 24 25
M  V30 25 1 7 26
M  V30 26 2 26 27
M  V30 27 1 27 4
M  V30 28 1 25 8
M  V30 29 1 24 11
M  V30 30 1 23 19
M  V30 31 1 1 28
M  V30 32 1 1 29
M  V30 33 1 1 30
M  V30 34 1 3 31
M  V30 35 1 3 32
M  V30 36 1 3 33
M  V30 37 1 5 34
M  V30 38 1 6 35
M  V30 39 1 9 36
M  V30 40 1 10 37
M  V30 41 1 13 38
M  V30 42 1 17 39
M  V30 43 1 17 40
M  V30 44 1 17 41
M  V30 45 1 18 42
M  V30 46 1 18 43
M  V30 47 1 20 44
M  V30 48 1 21 45
M  V30 49 1 22 46
M  V30 50 1 25 47
M  V30 51 1 26 48
M  V30 52 1 27 49
M  V30 END BOND
M  V30 END CTAB
M  END
>  <Dataset>  (113) 
ChEMBL_Kinases

>  <Ligand_Instance>  (113) 
nan

>  <PDB_ID>  (113) 
nan

>  <Standardized_SMILES>  (113) 
CN(C)c1ccc(-c2ccc3ncnc(N(C)Cc4ccco4)c3c2)cc1

>  <Name>  (113) 
nan

>  <Pocket>  (113) 
nan

>  <ATP_Site>  (113) 
nan

>  <Peripheral>  (113) 
nan

>  <Num_H_Atoms_ProtBoundConf>  (113) 
nan

>  <Num_Resolved_Atoms>  (113) 
nan

>  <Num_Not_Resolved_Atoms>  (113) 
nan

$$$$
CHEMBL1478772
     RDKit          3D

  0  0  0  0  0  0  0  0  0  0999 V3000
M  V30 BEGIN CTAB
M  V30 COUNTS 33 35 0 0 0
M  V30 BEGIN ATOM
M  V30 1 C -2.366208 -3.371555 3.305679 0
M  V30 2 C -1.150843 -2.565279 2.920265 0
M  V30 3 N -0.496808 -3.113593 1.733817 0
M  V30 4 C 0.673830 -2.524636 1.174570 0
M  V30 5 N 1.960677 -2.830491 1.502616 0
M  V30 6 C 2.967702 -2.172833 0.871850 0
M  V30 7 C 2.697820 -1.213181 -0.082963 0
M  V30 8 N 3.683141 -0.534671 -0.734978 0
M  V30 9 C 3.380665 0.401762 -1.667656 0
M  V30 10 C 2.051835 0.683532 -1.972685 0
M  V30 11 O 1.760823 1.550352 -2.836250 0
M  V30 12 N 1.046921 0.031601 -1.347331 0
M  V30 13 C -0.333002 0.276097 -1.615969 0
M  V30 14 C -0.943807 1.295489 -0.806710 0
M  V30 15 C -1.595736 1.289933 0.372857 0
M  V30 16 C -2.096354 2.415447 0.953232 0
M  V30 17 C -1.858499 3.637645 0.171456 0
M  V30 18 S -0.919687 2.956605 -1.328712 0
M  V30 19 C 1.374181 -0.905374 -0.413666 0
M  V30 20 N 0.415265 -1.586153 0.240940 0
M  V30 21 H -2.297496 -4.415529 2.989398 0
M  V30 22 H -2.477269 -3.257852 4.418848 0
M  V30 23 H -3.267359 -2.853968 2.885536 0
M  V30 24 H -1.426141 -1.523511 2.640744 0
M  V30 25 H -0.428758 -2.472934 3.767696 0
M  V30 26 H -0.634707 -3.898814 1.086328 0
M  V30 27 H 3.988497 -2.408322 1.125099 0
M  V30 28 H 4.196300 0.917364 -2.161772 0
M  V30 29 H -0.467574 0.475103 -2.689588 0
M  V30 30 H -0.898930 -0.685268 -1.434358 0
M  V30 31 H -1.703954 0.323956 0.846518 0
M  V30 32 H -2.621950 2.453945 1.891873 0
M  V30 33 H -2.271597 4.643060 0.628424 0
M  V30 END ATOM
M  V30 BEGIN BOND
M  V30 1 1 1 2
M  V30 2 1 2 3
M  V30 3 1 3 4
M  V30 4 2 4 5
M  V30 5 1 5 6
M  V30 6 2 6 7
M  V30 7 1 7 8
M  V30 8 2 8 9
M  V30 9 1 9 10
M  V30 10 2 10 11
M  V30 11 1 10 12
M  V30 12 1 12 13
M  V30 13 1 13 14
M  V30 14 2 14 15
M  V30 15 1 15 16
M  V30 16 2 16 17
M  V30 17 1 17 18
M  V30 18 1 12 19
M  V30 19 2 19 20
M  V30 20 1 20 4
M  V30 21 1 19 7
M  V30 22 1 18 14
M  V30 23 1 1 21
M  V30 24 1 1 22
M  V30 25 1 1 23
M  V30 26 1 2 24
M  V30 27 1 2 25
M  V30 28 1 3 26
M  V30 29 1 6 27
M  V30 30 1 9 28
M  V30 31 1 13 29
M  V30 32 1 13 30
M  V30 33 1 15 31
M  V30 34 1 16 32
M  V30 35 1 17 33
M  V30 END BOND
M  V30 END CTAB
M  END
>  <Dataset>  (114) 
ChEMBL_Kinases

>  <Ligand_Instance>  (114) 
nan

>  <PDB_ID>  (114) 
nan

>  <Standardized_SMILES>  (114) 
CCNc1ncc2ncc(=O)n(Cc3cccs3)c2n1

>  <Name>  (114) 
nan

>  <Pocket>  (114) 
nan

>  <ATP_Site>  (114) 
nan

>  <Peripheral>  (114) 
nan

>  <Num_H_Atoms_ProtBoundConf>  (114) 
nan

>  <Num_Resolved_Atoms>  (114) 
nan

>  <Num_Not_Resolved_Atoms>  (114) 
nan

$$$$
CHEMBL1478807
     RDKit          3D

  0  0  0  0  0  0  0  0  0  0999 V3000
M  V30 BEGIN CTAB
M  V30 COUNTS 24 25 0 0 0
M  V30 BEGIN ATOM
M  V30 1 C 0.361672 -0.704879 4.286170 0
M  V30 2 C -0.254006 -1.589845 3.242763 0
M  V30 3 O -0.348968 -1.024995 1.971029 0
M  V30 4 C 0.729698 -0.584668 1.225957 0
M  V30 5 O 1.857025 -0.714880 1.755381 0
M  V30 6 C 0.616001 0.009822 -0.115496 0
M  V30 7 C -0.622482 0.154660 -0.701168 0
M  V30 8 C -1.946509 -0.220985 -0.152019 0
M  V30 9 N -0.429005 0.714704 -1.900678 0
M  V30 10 C 0.900045 0.905617 -2.039549 0
M  V30 11 S 2.213527 1.523891 -3.128690 0
M  V30 12 C 3.563780 1.125003 -1.956252 0
M  V30 13 C 2.889425 0.568030 -0.866318 0
M  V30 14 N 1.558777 0.476762 -0.948533 0
M  V30 15 H 0.934462 -1.332797 4.997929 0
M  V30 16 H 0.985777 0.112735 3.865679 0
M  V30 17 H -0.431921 -0.180560 4.880580 0
M  V30 18 H 0.247277 -2.593461 3.249064 0
M  V30 19 H -1.315686 -1.790904 3.571274 0
M  V30 20 H -2.747690 0.047536 -0.845751 0
M  V30 21 H -2.148403 0.387283 0.779120 0
M  V30 22 H -1.984143 -1.280398 0.186246 0
M  V30 23 H 4.656219 1.306007 -2.123773 0
M  V30 24 H 3.567268 0.278069 -0.078953 0
M  V30 END ATOM
M  V30 BEGIN BOND
M  V30 1 1 1 2
M  V30 2 1 2 3
M  V30 3 1 3 4
M  V30 4 2 4 5
M  V30 5 1 4 6
M  V30 6 2 6 7
M  V30 7 1 7 8
M  V30 8 1 7 9
M  V30 9 2 9 10
M  V30 10 1 10 11
M  V30 11 1 11 12
M  V30 12 2 12 13
M  V30 13 1 13 14
M  V30 14 1 14 6
M  V30 15 1 14 10
M  V30 16 1 1 15
M  V30 17 1 1 16
M  V30 18 1 1 17
M  V30 19 1 2 18
M  V30 20 1 2 19
M  V30 21 1 8 20
M  V30 22 1 8 21
M  V30 23 1 8 22
M  V30 24 1 12 23
M  V30 25 1 13 24
M  V30 END BOND
M  V30 END CTAB
M  END
>  <Dataset>  (115) 
ChEMBL_Kinases

>  <Ligand_Instance>  (115) 
nan

>  <PDB_ID>  (115) 
nan

>  <Standardized_SMILES>  (115) 
CCOC(=O)c1c(C)nc2sccn12

>  <Name>  (115) 
nan

>  <Pocket>  (115) 
nan

>  <ATP_Site>  (115) 
nan

>  <Peripheral>  (115) 
nan

>  <Num_H_Atoms_ProtBoundConf>  (115) 
nan

>  <Num_Resolved_Atoms>  (115) 
nan

>  <Num_Not_Resolved_Atoms>  (115) 
nan

$$$$
CHEMBL1478881
     RDKit          3D

  0  0  0  0  0  0  0  0  0  0999 V3000
M  V30 BEGIN CTAB
M  V30 COUNTS 29 31 0 0 0
M  V30 BEGIN ATOM
M  V30 1 O -1.004450 -3.834671 4.239145 0
M  V30 2 C -0.302312 -2.934149 3.420879 0
M  V30 3 C 0.697261 -3.281189 2.549810 0
M  V30 4 C 1.330675 -2.320176 1.785631 0
M  V30 5 C 0.883990 -1.027993 1.970427 0
M  V30 6 C 1.563269 -0.001295 1.150173 0
M  V30 7 O 2.639591 0.701596 1.273282 0
M  V30 8 N 2.767937 1.465183 0.242274 0
M  V30 9 C 1.768730 1.308108 -0.633747 0
M  V30 10 C 1.645774 2.055854 -1.925710 0
M  V30 11 F 2.729426 2.931912 -2.071297 0
M  V30 12 F 0.468348 2.761125 -1.941361 0
M  V30 13 F 1.738396 1.134065 -2.955525 0
M  V30 14 C 0.956429 0.346857 -0.064178 0
M  V30 15 C -0.283428 -0.152057 -0.702452 0
M  V30 16 C -1.418618 0.641759 -0.894048 0
M  V30 17 S -2.568595 -0.548337 -1.724962 0
M  V30 18 C -1.253153 -1.917571 -1.646347 0
M  V30 19 N -0.359598 -1.389469 -1.127285 0
M  V30 20 C -0.110434 -0.645311 2.829762 0
M  V30 21 O -0.432554 0.718906 2.883965 0
M  V30 22 C -0.735673 -1.635967 3.592019 0
M  V30 23 H -1.900573 -4.200185 3.895980 0
M  V30 24 H 0.942201 -4.333727 2.509872 0
M  V30 25 H 2.117218 -2.605168 1.103225 0
M  V30 26 H -1.614304 1.671714 -0.640884 0
M  V30 27 H -1.271413 -3.040921 -2.012491 0
M  V30 28 H 0.242826 1.355132 3.289735 0
M  V30 29 H -1.514070 -1.276423 4.252802 0
M  V30 END ATOM
M  V30 BEGIN BOND
M  V30 1 1 1 2
M  V30 2 2 2 3
M  V30 3 1 3 4
M  V30 4 2 4 5
M  V30 5 1 5 6
M  V30 6 1 6 7
M  V30 7 1 7 8
M  V30 8 2 8 9
M  V30 9 1 9 10
M  V30 10 1 10 11
M  V30 11 1 10 12
M  V30 12 1 10 13
M  V30 13 1 9 14
M  V30 14 1 14 15
M  V30 15 2 15 16
M  V30 16 1 16 17
M  V30 17 1 17 18
M  V30 18 2 18 19
M  V30 19 1 5 20
M  V30 20 1 20 21
M  V30 21 2 20 22
M  V30 22 1 22 2
M  V30 23 2 14 6
M  V30 24 1 19 15
M  V30 25 1 1 23
M  V30 26 1 3 24
M  V30 27 1 4 25
M  V30 28 1 16 26
M  V30 29 1 18 27
M  V30 30 1 21 28
M  V30 31 1 22 29
M  V30 END BOND
M  V30 END CTAB
M  END
>  <Dataset>  (116) 
ChEMBL_Kinases

>  <Ligand_Instance>  (116) 
nan

>  <PDB_ID>  (116) 
nan

>  <Standardized_SMILES>  (116) 
Oc1ccc(-c2onc(C(F)(F)F)c2-c2cscn2)c(O)c1

>  <Name>  (116) 
nan

>  <Pocket>  (116) 
nan

>  <ATP_Site>  (116) 
nan

>  <Peripheral>  (116) 
nan

>  <Num_H_Atoms_ProtBoundConf>  (116) 
nan

>  <Num_Resolved_Atoms>  (116) 
nan

>  <Num_Not_Resolved_Atoms>  (116) 
nan

$$$$
CHEMBL1478946
     RDKit          3D

  0  0  0  0  0  0  0  0  0  0999 V3000
M  V30 BEGIN CTAB
M  V30 COUNTS 57 59 0 0 0
M  V30 BEGIN ATOM
M  V30 1 C 0.585855 -6.990497 1.412194 0
M  V30 2 O 1.189040 -5.751353 1.621898 0
M  V30 3 C 1.361501 -4.754861 0.695894 0
M  V30 4 C 1.993219 -3.583085 1.103177 0
M  V30 5 C 2.202695 -2.524660 0.214954 0
M  V30 6 C 1.778492 -2.618525 -1.113976 0
M  V30 7 C 2.077101 -1.423235 -1.885397 0
M  V30 8 O 3.141076 -0.910264 -2.339612 0
M  V30 9 N 0.985606 -0.588321 -2.248511 0
M  V30 10 C 0.941611 0.657756 -2.984544 0
M  V30 11 C -0.111122 1.592027 -2.435843 0
M  V30 12 C -0.342001 1.360959 -0.988125 0
M  V30 13 C 0.868068 1.929336 -0.228215 0
M  V30 14 C 0.276433 2.462319 1.089376 0
M  V30 15 N -0.682927 1.422159 1.486060 0
M  V30 16 C -0.675225 1.161601 2.866328 0
M  V30 17 C -1.521572 0.000654 3.319041 0
M  V30 18 C -1.053658 -1.280935 2.647235 0
M  V30 19 C -2.995386 0.208397 3.278111 0
M  V30 20 C -1.942623 1.793338 0.883175 0
M  V30 21 C -1.599382 2.145736 -0.575390 0
M  V30 22 C -0.632166 -0.063669 -0.624675 0
M  V30 23 C -0.396179 -0.939879 -1.867250 0
M  V30 24 C 1.158413 -3.782769 -1.492012 0
M  V30 25 C 0.948722 -4.832338 -0.620845 0
M  V30 26 H 0.280561 -7.209859 0.380294 0
M  V30 27 H 1.359240 -7.773162 1.681347 0
M  V30 28 H -0.272056 -7.115908 2.133094 0
M  V30 29 H 2.322742 -3.517751 2.140216 0
M  V30 30 H 2.702602 -1.672738 0.653526 0
M  V30 31 H 1.928304 1.156904 -2.899565 0
M  V30 32 H 0.781202 0.471480 -4.078699 0
M  V30 33 H 0.298869 2.642708 -2.538322 0
M  V30 34 H -1.041554 1.587417 -3.048969 0
M  V30 35 H 1.343628 2.742994 -0.775913 0
M  V30 36 H 1.556026 1.101881 0.062000 0
M  V30 37 H 1.026644 2.598754 1.872416 0
M  V30 38 H -0.207147 3.439400 0.896116 0
M  V30 39 H -0.886005 2.033667 3.521078 0
M  V30 40 H 0.382033 0.867097 3.152059 0
M  V30 41 H -1.223673 -0.154119 4.410437 0
M  V30 42 H 0.032199 -1.207262 2.384121 0
M  V30 43 H -1.673550 -1.514933 1.759648 0
M  V30 44 H -1.129232 -2.172648 3.327886 0
M  V30 45 H -3.449891 -0.131145 4.269135 0
M  V30 46 H -3.506019 -0.480994 2.546604 0
M  V30 47 H -3.303877 1.255683 3.189196 0
M  V30 48 H -2.680437 0.979415 0.914336 0
M  V30 49 H -2.389876 2.695441 1.342642 0
M  V30 50 H -2.406103 1.751715 -1.212575 0
M  V30 51 H -1.473663 3.218941 -0.727951 0
M  V30 52 H 0.104734 -0.346755 0.157526 0
M  V30 53 H -1.648410 -0.269526 -0.280460 0
M  V30 54 H -0.512567 -1.987105 -1.596240 0
M  V30 55 H -1.118451 -0.688471 -2.635683 0
M  V30 56 H 0.855176 -3.783671 -2.542064 0
M  V30 57 H 0.454975 -5.721090 -0.979195 0
M  V30 END ATOM
M  V30 BEGIN BOND
M  V30 1 1 1 2
M  V30 2 1 2 3
M  V30 3 2 3 4
M  V30 4 1 4 5
M  V30 5 2 5 6
M  V30 6 1 6 7
M  V30 7 2 7 8
M  V30 8 1 7 9
M  V30 9 1 9 10
M  V30 10 1 10 11
M  V30 11 1 11 12
M  V30 12 1 12 13
M  V30 13 1 13 14
M  V30 14 1 14 15
M  V30 15 1 15 16
M  V30 16 1 16 17
M  V30 17 1 17 18
M  V30 18 1 17 19
M  V30 19 1 15 20
M  V30 20 1 20 21
M  V30 21 1 12 22
M  V30 22 1 22 23
M  V30 23 1 6 24
M  V30 24 2 24 25
M  V30 25 1 25 3
M  V30 26 1 23 9
M  V30 27 1 21 12
M  V30 28 1 1 26
M  V30 29 1 1 27
M  V30 30 1 1 28
M  V30 31 1 4 29
M  V30 32 1 5 30
M  V30 33 1 10 31
M  V30 34 1 10 32
M  V30 35 1 11 33
M  V30 36 1 11 34
M  V30 37 1 13 35
M  V30 38 1 13 36
M  V30 39 1 14 37
M  V30 40 1 14 38
M  V30 41 1 16 39
M  V30 42 1 16 40
M  V30 43 1 17 41
M  V30 44 1 18 42
M  V30 45 1 18 43
M  V30 46 1 18 44
M  V30 47 1 19 45
M  V30 48 1 19 46
M  V30 49 1 19 47
M  V30 50 1 20 48
M  V30 51 1 20 49
M  V30 52 1 21 50
M  V30 53 1 21 51
M  V30 54 1 22 52
M  V30 55 1 22 53
M  V30 56 1 23 54
M  V30 57 1 23 55
M  V30 58 1 24 56
M  V30 59 1 25 57
M  V30 END BOND
M  V30 END CTAB
M  END
>  <Dataset>  (117) 
ChEMBL_Kinases

>  <Ligand_Instance>  (117) 
nan

>  <PDB_ID>  (117) 
nan

>  <Standardized_SMILES>  (117) 
COc1ccc(C(=O)N2CCC3(CCN(CC(C)C)CC3)CC2)cc1

>  <Name>  (117) 
nan

>  <Pocket>  (117) 
nan

>  <ATP_Site>  (117) 
nan

>  <Peripheral>  (117) 
nan

>  <Num_H_Atoms_ProtBoundConf>  (117) 
nan

>  <Num_Resolved_Atoms>  (117) 
nan

>  <Num_Not_Resolved_Atoms>  (117) 
nan

$$$$
CHEMBL1479341
     RDKit          3D

  0  0  0  0  0  0  0  0  0  0999 V3000
M  V30 BEGIN CTAB
M  V30 COUNTS 32 34 0 0 0
M  V30 BEGIN ATOM
M  V30 1 O -0.207088 -1.556870 1.135229 0
M  V30 2 P 0.586148 -1.145791 -0.108827 0
M  V30 3 N 2.270066 -1.489891 0.044140 0
M  V30 4 C 2.957119 -1.004819 1.191418 0
M  V30 5 C 2.321895 -0.274709 2.174529 0
M  V30 6 C 3.009737 0.181884 3.272793 0
M  V30 7 C 4.365468 -0.070633 3.438911 0
M  V30 8 Br 5.424890 0.504058 4.907553 0
M  V30 9 C 4.966561 -0.805308 2.432674 0
M  V30 10 N 4.288955 -1.246489 1.365699 0
M  V30 11 C 0.270635 0.617714 -0.388366 0
M  V30 12 O -1.061035 0.907590 -0.045988 0
M  V30 13 C -2.151652 0.078008 -0.089542 0
M  V30 14 C -3.179705 0.663846 0.659963 0
M  V30 15 C -4.439811 0.094019 0.834284 0
M  V30 16 C -4.639772 -1.121186 0.211856 0
M  V30 17 C -3.645020 -1.723305 -0.533752 0
M  V30 18 C -2.391351 -1.117943 -0.684961 0
M  V30 19 O -1.566896 -1.885439 -1.458104 0
M  V30 20 C -0.182961 -2.009787 -1.487937 0
M  V30 21 H 2.804144 -2.031430 -0.657354 0
M  V30 22 H 1.284505 -0.044807 2.111037 0
M  V30 23 H 2.537273 0.756576 4.058903 0
M  V30 24 H 6.013512 -1.067711 2.444079 0
M  V30 25 H 1.014178 1.263232 0.117302 0
M  V30 26 H 0.374708 0.801468 -1.485387 0
M  V30 27 H -3.023638 1.632925 1.157673 0
M  V30 28 H -5.179372 0.612380 1.429480 0
M  V30 29 H -5.605493 -1.599582 0.321362 0
M  V30 30 H -3.901251 -2.679042 -0.983724 0
M  V30 31 H 0.204833 -1.526111 -2.428131 0
M  V30 32 H 0.178303 -3.057145 -1.549436 0
M  V30 END ATOM
M  V30 BEGIN BOND
M  V30 1 2 1 2
M  V30 2 1 2 3
M  V30 3 1 3 4
M  V30 4 2 4 5
M  V30 5 1 5 6
M  V30 6 2 6 7
M  V30 7 1 7 8
M  V30 8 1 7 9
M  V30 9 2 9 10
M  V30 10 1 2 11
M  V30 11 1 11 12
M  V30 12 1 12 13
M  V30 13 2 13 14
M  V30 14 1 14 15
M  V30 15 2 15 16
M  V30 16 1 16 17
M  V30 17 2 17 18
M  V30 18 1 18 19
M  V30 19 1 19 20
M  V30 20 1 20 2
M  V30 21 1 10 4
M  V30 22 1 18 13
M  V30 23 1 3 21
M  V30 24 1 5 22
M  V30 25 1 6 23
M  V30 26 1 9 24
M  V30 27 1 11 25
M  V30 28 1 11 26
M  V30 29 1 14 27
M  V30 30 1 15 28
M  V30 31 1 16 29
M  V30 32 1 17 30
M  V30 33 1 20 31
M  V30 34 1 20 32
M  V30 END BOND
M  V30 END CTAB
M  END
>  <Dataset>  (118) 
ChEMBL_Kinases

>  <Ligand_Instance>  (118) 
nan

>  <PDB_ID>  (118) 
nan

>  <Standardized_SMILES>  (118) 
O=P1(Nc2ccc(Br)cn2)COc2ccccc2OC1

>  <Name>  (118) 
nan

>  <Pocket>  (118) 
nan

>  <ATP_Site>  (118) 
nan

>  <Peripheral>  (118) 
nan

>  <Num_H_Atoms_ProtBoundConf>  (118) 
nan

>  <Num_Resolved_Atoms>  (118) 
nan

>  <Num_Not_Resolved_Atoms>  (118) 
nan

$$$$
CHEMBL1480267
     RDKit          3D

  0  0  0  0  0  0  0  0  0  0999 V3000
M  V30 BEGIN CTAB
M  V30 COUNTS 41 44 0 0 0
M  V30 BEGIN ATOM
M  V30 1 Cl 3.014753 -4.945059 5.445208 0
M  V30 2 C 1.714445 -4.048561 4.699056 0
M  V30 3 N 1.550104 -4.183042 3.374852 0
M  V30 4 C 0.582029 -3.533617 2.710324 0
M  V30 5 N 0.242238 -3.561214 1.305346 0
M  V30 6 C 0.467045 -2.366348 0.565600 0
M  V30 7 C -0.173889 -2.221874 -0.670131 0
M  V30 8 C 0.037140 -1.046800 -1.381804 0
M  V30 9 C 0.835196 -0.013898 -0.949997 0
M  V30 10 N 0.992504 1.199997 -1.687900 0
M  V30 11 C -0.246824 1.885288 -1.984605 0
M  V30 12 C -0.078853 2.836242 -3.121381 0
M  V30 13 O 0.974642 3.704113 -2.975173 0
M  V30 14 C 1.920351 3.333001 -2.039852 0
M  V30 15 C 2.193063 1.832255 -2.181925 0
M  V30 16 C 1.484619 -0.148696 0.290161 0
M  V30 17 C 1.262321 -1.330600 0.986615 0
M  V30 18 C -0.225969 -2.715771 3.499152 0
M  V30 19 C -1.258415 -1.959540 3.018617 0
M  V30 20 C -2.103867 -1.118769 3.686588 0
M  V30 21 C -1.879746 -1.021798 5.065455 0
M  V30 22 C -0.853148 -1.752957 5.655580 0
M  V30 23 C -0.051453 -2.580753 4.859391 0
M  V30 24 N 0.950823 -3.272886 5.470528 0
M  V30 25 H -0.151776 -4.390073 0.822105 0
M  V30 26 H -0.799478 -2.990712 -1.050908 0
M  V30 27 H -0.472247 -0.958818 -2.341587 0
M  V30 28 H -0.616333 2.356932 -1.061196 0
M  V30 29 H -0.988474 1.099764 -2.320050 0
M  V30 30 H -1.043325 3.414947 -3.309430 0
M  V30 31 H 0.108906 2.219454 -4.043185 0
M  V30 32 H 1.538200 3.518586 -1.024207 0
M  V30 33 H 2.865404 3.900686 -2.241330 0
M  V30 34 H 2.363687 1.589415 -3.260264 0
M  V30 35 H 3.068584 1.614735 -1.539716 0
M  V30 36 H 2.128343 0.614125 0.706167 0
M  V30 37 H 1.745491 -1.458910 1.939329 0
M  V30 38 H -1.504308 -1.980384 1.941920 0
M  V30 39 H -2.898744 -0.538978 3.275681 0
M  V30 40 H -2.485699 -0.388365 5.693830 0
M  V30 41 H -0.654509 -1.687169 6.728218 0
M  V30 END ATOM
M  V30 BEGIN BOND
M  V30 1 1 1 2
M  V30 2 2 2 3
M  V30 3 1 3 4
M  V30 4 1 4 5
M  V30 5 1 5 6
M  V30 6 2 6 7
M  V30 7 1 7 8
M  V30 8 2 8 9
M  V30 9 1 9 10
M  V30 10 1 10 11
M  V30 11 1 11 12
M  V30 12 1 12 13
M  V30 13 1 13 14
M  V30 14 1 14 15
M  V30 15 1 9 16
M  V30 16 2 16 17
M  V30 17 2 4 18
M  V30 18 1 18 19
M  V30 19 2 19 20
M  V30 20 1 20 21
M  V30 21 2 21 22
M  V30 22 1 22 23
M  V30 23 2 23 24
M  V30 24 1 24 2
M  V30 25 1 17 6
M  V30 26 1 23 18
M  V30 27 1 15 10
M  V30 28 1 5 25
M  V30 29 1 7 26
M  V30 30 1 8 27
M  V30 31 1 11 28
M  V30 32 1 11 29
M  V30 33 1 12 30
M  V30 34 1 12 31
M  V30 35 1 14 32
M  V30 36 1 14 33
M  V30 37 1 15 34
M  V30 38 1 15 35
M  V30 39 1 16 36
M  V30 40 1 17 37
M  V30 41 1 19 38
M  V30 42 1 20 39
M  V30 43 1 21 40
M  V30 44 1 22 41
M  V30 END BOND
M  V30 END CTAB
M  END
>  <Dataset>  (119) 
ChEMBL_Kinases

>  <Ligand_Instance>  (119) 
nan

>  <PDB_ID>  (119) 
nan

>  <Standardized_SMILES>  (119) 
Clc1nc(Nc2ccc(N3CCOCC3)cc2)c2ccccc2n1

>  <Name>  (119) 
nan

>  <Pocket>  (119) 
nan

>  <ATP_Site>  (119) 
nan

>  <Peripheral>  (119) 
nan

>  <Num_H_Atoms_ProtBoundConf>  (119) 
nan

>  <Num_Resolved_Atoms>  (119) 
nan

>  <Num_Not_Resolved_Atoms>  (119) 
nan

$$$$
CHEMBL1479771
     RDKit          3D

  0  0  0  0  0  0  0  0  0  0999 V3000
M  V30 BEGIN CTAB
M  V30 COUNTS 51 52 0 0 0
M  V30 BEGIN ATOM
M  V30 1 C 3.219559 -4.584964 1.404666 0
M  V30 2 C 4.540867 -4.051784 1.762763 0
M  V30 3 C 4.797691 -2.590309 1.743363 0
M  V30 4 C 3.962559 -1.808191 2.658245 0
M  V30 5 C 2.552143 -1.642824 2.511171 0
M  V30 6 C 1.431895 -1.829546 1.872113 0
M  V30 7 C 0.005646 -1.471925 2.042618 0
M  V30 8 N -0.434726 -0.427159 1.167001 0
M  V30 9 C -0.949542 0.835646 1.490147 0
M  V30 10 O -1.034362 1.080346 2.734782 0
M  V30 11 C -1.363674 1.812728 0.489931 0
M  V30 12 C -1.296416 1.607107 -0.876357 0
M  V30 13 C -1.717959 2.606741 -1.729720 0
M  V30 14 C -2.212153 3.822405 -1.305293 0
M  V30 15 C -2.652960 4.866959 -2.224262 0
M  V30 16 O -3.100436 5.969085 -1.792747 0
M  V30 17 O -2.570683 4.625172 -3.582047 0
M  V30 18 C -2.957194 5.535049 -4.584539 0
M  V30 19 C -2.283466 4.038012 0.064851 0
M  V30 20 C -1.859682 3.033567 0.939151 0
M  V30 21 C -0.813368 -2.710987 1.902594 0
M  V30 22 C -1.272808 -3.420499 2.993815 0
M  V30 23 C -2.026016 -4.560967 2.944339 0
M  V30 24 C -2.355642 -5.044662 1.675264 0
M  V30 25 C -1.905951 -4.349515 0.550897 0
M  V30 26 C -1.151755 -3.208345 0.664718 0
M  V30 27 H 3.347827 -5.716477 1.329456 0
M  V30 28 H 2.432270 -4.486719 2.185877 0
M  V30 29 H 2.871482 -4.312856 0.384476 0
M  V30 30 H 4.728743 -4.377644 2.842781 0
M  V30 31 H 5.336225 -4.617055 1.170625 0
M  V30 32 H 4.849168 -2.174043 0.702574 0
M  V30 33 H 5.881004 -2.482621 2.080802 0
M  V30 34 H 4.404954 -0.746334 2.731971 0
M  V30 35 H 4.150703 -2.156823 3.740968 0
M  V30 36 H 2.157690 -1.038690 3.377563 0
M  V30 37 H 1.663828 -2.375633 0.964339 0
M  V30 38 H -0.128586 -1.113042 3.091296 0
M  V30 39 H -0.327081 -0.720184 0.157348 0
M  V30 40 H -0.912143 0.661269 -1.224964 0
M  V30 41 H -1.657046 2.425893 -2.791784 0
M  V30 42 H -2.780779 5.021781 -5.557588 0
M  V30 43 H -4.030832 5.793751 -4.558438 0
M  V30 44 H -2.359411 6.463891 -4.600515 0
M  V30 45 H -2.666102 4.979882 0.413699 0
M  V30 46 H -1.931088 3.240056 2.004944 0
M  V30 47 H -1.036187 -3.074342 3.990898 0
M  V30 48 H -2.363084 -5.082604 3.834564 0
M  V30 49 H -2.951156 -5.945793 1.590234 0
M  V30 50 H -2.168527 -4.735199 -0.429267 0
M  V30 51 H -0.815738 -2.688308 -0.224658 0
M  V30 END ATOM
M  V30 BEGIN BOND
M  V30 1 1 1 2
M  V30 2 1 2 3
M  V30 3 1 3 4
M  V30 4 1 4 5
M  V30 5 2 5 6
M  V30 6 1 6 7
M  V30 7 1 7 8
M  V30 8 1 8 9
M  V30 9 2 9 10
M  V30 10 1 9 11
M  V30 11 2 11 12
M  V30 12 1 12 13
M  V30 13 2 13 14
M  V30 14 1 14 15
M  V30 15 2 15 16
M  V30 16 1 15 17
M  V30 17 1 17 18
M  V30 18 1 14 19
M  V30 19 2 19 20
M  V30 20 1 7 21
M  V30 21 2 21 22
M  V30 22 1 22 23
M  V30 23 2 23 24
M  V30 24 1 24 25
M  V30 25 2 25 26
M  V30 26 1 20 11
M  V30 27 1 26 21
M  V30 28 1 1 27
M  V30 29 1 1 28
M  V30 30 1 1 29
M  V30 31 1 2 30
M  V30 32 1 2 31
M  V30 33 1 3 32
M  V30 34 1 3 33
M  V30 35 1 4 34
M  V30 36 1 4 35
M  V30 37 1 5 36
M  V30 38 1 6 37
M  V30 39 1 7 38
M  V30 40 1 8 39
M  V30 41 1 12 40
M  V30 42 1 13 41
M  V30 43 1 18 42
M  V30 44 1 18 43
M  V30 45 1 18 44
M  V30 46 1 19 45
M  V30 47 1 20 46
M  V30 48 1 22 47
M  V30 49 1 23 48
M  V30 50 1 24 49
M  V30 51 1 25 50
M  V30 52 1 26 51
M  V30 END BOND
M  V30 END CTAB
M  END
>  <Dataset>  (120) 
ChEMBL_Kinases

>  <Ligand_Instance>  (120) 
nan

>  <PDB_ID>  (120) 
nan

>  <Standardized_SMILES>  (120) 
CCCC/C=C/C(NC(=O)c1ccc(C(=O)OC)cc1)c1ccccc1

>  <Name>  (120) 
nan

>  <Pocket>  (120) 
nan

>  <ATP_Site>  (120) 
nan

>  <Peripheral>  (120) 
nan

>  <Num_H_Atoms_ProtBoundConf>  (120) 
nan

>  <Num_Resolved_Atoms>  (120) 
nan

>  <Num_Not_Resolved_Atoms>  (120) 
nan

$$$$
CHEMBL1479813
     RDKit          3D

  0  0  0  0  0  0  0  0  0  0999 V3000
M  V30 BEGIN CTAB
M  V30 COUNTS 52 54 0 0 0
M  V30 BEGIN ATOM
M  V30 1 C -1.862786 1.104977 -0.712891 0
M  V30 2 C -1.052981 -0.138608 -0.294545 0
M  V30 3 N 0.275304 0.133661 -0.649451 0
M  V30 4 C 1.233041 0.615141 0.287333 0
M  V30 5 O 0.866015 0.802642 1.473134 0
M  V30 6 N 2.583128 0.905205 -0.007079 0
M  V30 7 C 3.493124 1.386130 0.974603 0
M  V30 8 C 3.563867 2.774319 1.107008 0
M  V30 9 C 4.423580 3.312324 2.035972 0
M  V30 10 C 5.247832 2.565695 2.873605 0
M  V30 11 N 6.125890 3.159568 3.823288 0 CHG=1 VAL=4
M  V30 12 O 6.121646 4.405399 3.874191 0
M  V30 13 O 6.857092 2.224422 4.549512 0 CHG=-1 VAL=1
M  V30 14 C 5.152674 1.175125 2.714851 0
M  V30 15 C 4.297565 0.611536 1.790215 0
M  V30 16 C -1.796480 -1.313604 -0.635560 0
M  V30 17 C -3.109483 -1.314705 0.082886 0
M  V30 18 C -3.028430 -1.555548 1.440138 0
M  V30 19 C -4.163623 -1.593265 2.244113 0
M  V30 20 C -5.411732 -1.391532 1.714555 0
M  V30 21 C -5.485990 -1.150569 0.350600 0
M  V30 22 C -4.360902 -1.114257 -0.440732 0
M  V30 23 N -1.180302 -2.558665 -0.161111 0
M  V30 24 C -2.063621 -3.680460 -0.474452 0
M  V30 25 C -1.387366 -4.869787 0.203826 0
M  V30 26 O -0.305604 -5.176386 -0.575455 0
M  V30 27 C 0.587552 -4.171919 -0.799791 0
M  V30 28 C 0.144415 -2.775448 -0.671766 0
M  V30 29 H -1.269997 1.679225 -1.446077 0
M  V30 30 H -2.085848 1.771808 0.135754 0
M  V30 31 H -2.859714 0.818019 -1.124057 0
M  V30 32 H -1.080030 -0.036310 0.840798 0
M  V30 33 H 0.722840 0.023650 -1.612234 0
M  V30 34 H 2.917732 0.754573 -0.997981 0
M  V30 35 H 2.964739 3.444326 0.502616 0
M  V30 36 H 4.483869 4.400581 2.145234 0
M  V30 37 H 5.767951 0.523562 3.336314 0
M  V30 38 H 4.203462 -0.457672 1.645124 0
M  V30 39 H -2.061565 -1.521436 -1.676526 0
M  V30 40 H -2.108507 -1.731902 1.988432 0
M  V30 41 H -4.121492 -1.782634 3.311523 0
M  V30 42 H -6.315721 -1.414886 2.313668 0
M  V30 43 H -6.457130 -0.981469 -0.122918 0
M  V30 44 H -4.397949 -0.934225 -1.506570 0
M  V30 45 H -3.067471 -3.473394 -0.107298 0
M  V30 46 H -2.051379 -3.866814 -1.559085 0
M  V30 47 H -1.027517 -4.557240 1.207165 0
M  V30 48 H -2.060992 -5.734464 0.237304 0
M  V30 49 H 1.051515 -4.347894 -1.807963 0
M  V30 50 H 1.446153 -4.352962 -0.087201 0
M  V30 51 H 0.854708 -2.191045 -0.056773 0
M  V30 52 H 0.153255 -2.299332 -1.692557 0
M  V30 END ATOM
M  V30 BEGIN BOND
M  V30 1 1 1 2
M  V30 2 1 2 3
M  V30 3 1 3 4
M  V30 4 2 4 5
M  V30 5 1 4 6
M  V30 6 1 6 7
M  V30 7 2 7 8
M  V30 8 1 8 9
M  V30 9 2 9 10
M  V30 10 1 10 11
M  V30 11 2 11 12
M  V30 12 1 11 13
M  V30 13 1 10 14
M  V30 14 2 14 15
M  V30 15 1 2 16
M  V30 16 1 16 17
M  V30 17 2 17 18
M  V30 18 1 18 19
M  V30 19 2 19 20
M  V30 20 1 20 21
M  V30 21 2 21 22
M  V30 22 1 16 23
M  V30 23 1 23 24
M  V30 24 1 24 25
M  V30 25 1 25 26
M  V30 26 1 26 27
M  V30 27 1 27 28
M  V30 28 1 15 7
M  V30 29 1 22 17
M  V30 30 1 28 23
M  V30 31 1 1 29
M  V30 32 1 1 30
M  V30 33 1 1 31
M  V30 34 1 2 32
M  V30 35 1 3 33
M  V30 36 1 6 34
M  V30 37 1 8 35
M  V30 38 1 9 36
M  V30 39 1 14 37
M  V30 40 1 15 38
M  V30 41 1 16 39
M  V30 42 1 18 40
M  V30 43 1 19 41
M  V30 44 1 20 42
M  V30 45 1 21 43
M  V30 46 1 22 44
M  V30 47 1 24 45
M  V30 48 1 24 46
M  V30 49 1 25 47
M  V30 50 1 25 48
M  V30 51 1 27 49
M  V30 52 1 27 50
M  V30 53 1 28 51
M  V30 54 1 28 52
M  V30 END BOND
M  V30 END CTAB
M  END
>  <Dataset>  (121) 
ChEMBL_Kinases

>  <Ligand_Instance>  (121) 
nan

>  <PDB_ID>  (121) 
nan

>  <Standardized_SMILES>  (121) 
CC(NC(=O)Nc1ccc([N+](=O)[O-])cc1)C(c1ccccc1)N1CCOCC1

>  <Name>  (121) 
nan

>  <Pocket>  (121) 
nan

>  <ATP_Site>  (121) 
nan

>  <Peripheral>  (121) 
nan

>  <Num_H_Atoms_ProtBoundConf>  (121) 
nan

>  <Num_Resolved_Atoms>  (121) 
nan

>  <Num_Not_Resolved_Atoms>  (121) 
nan

$$$$
CHEMBL1479817
     RDKit          3D

  0  0  0  0  0  0  0  0  0  0999 V3000
M  V30 BEGIN CTAB
M  V30 COUNTS 42 45 0 0 0
M  V30 BEGIN ATOM
M  V30 1 C 4.539205 -2.486443 2.425359 0
M  V30 2 O 3.999235 -3.562025 1.704303 0
M  V30 3 C 3.103487 -3.406814 0.649490 0
M  V30 4 C 2.692519 -4.573991 0.075313 0
M  V30 5 C 1.794540 -4.507133 -0.988591 0
M  V30 6 C 1.359184 -3.259330 -1.415836 0
M  V30 7 C 1.766627 -2.057350 -0.843323 0
M  V30 8 C 1.271856 -0.757350 -1.337486 0
M  V30 9 N 0.074439 -0.293741 -0.698637 0
M  V30 10 C 0.121142 0.478753 0.411593 0
M  V30 11 O 1.264968 0.784570 0.876308 0
M  V30 12 C -0.965236 0.979935 1.106893 0
M  V30 13 C -0.771606 1.803803 2.294179 0
M  V30 14 C 0.117526 1.544652 3.337357 0
M  V30 15 C 0.206542 2.398125 4.400938 0
M  V30 16 C -0.586280 3.527599 4.450589 0
M  V30 17 C -1.491507 3.826133 3.426359 0
M  V30 18 F -2.208833 4.944414 3.576378 0
M  V30 19 C -1.549854 2.944181 2.377453 0
M  V30 20 N -2.186573 0.655651 0.613927 0
M  V30 21 C -2.324462 -0.111917 -0.491272 0
M  V30 22 C -3.589994 -0.417035 -0.957711 0
M  V30 23 N -3.648713 -1.190571 -2.069709 0
M  V30 24 C -2.540494 -1.647181 -2.700520 0
M  V30 25 N -1.330252 -1.326414 -2.212851 0
M  V30 26 C -1.179873 -0.564490 -1.115473 0
M  V30 27 C 2.656423 -2.197553 0.205500 0
M  V30 28 H 5.152557 -2.933579 3.237838 0
M  V30 29 H 5.151064 -1.878070 1.748847 0
M  V30 30 H 3.745169 -1.900663 2.953092 0
M  V30 31 H 3.021245 -5.546866 0.395679 0
M  V30 32 H 1.462906 -5.414010 -1.449366 0
M  V30 33 H 0.672955 -3.282608 -2.234270 0
M  V30 34 H 2.092817 0.006141 -1.275789 0
M  V30 35 H 1.118347 -0.878823 -2.448395 0
M  V30 36 H 0.703308 0.640263 3.224470 0
M  V30 37 H 0.913483 2.133418 5.166377 0
M  V30 38 H -0.437739 4.133761 5.333203 0
M  V30 39 H -2.276366 3.240812 1.617643 0
M  V30 40 H -4.471511 -0.049910 -0.450307 0
M  V30 41 H -2.597753 -2.265841 -3.590097 0
M  V30 42 H 3.020393 -1.325050 0.702255 0
M  V30 END ATOM
M  V30 BEGIN BOND
M  V30 1 1 1 2
M  V30 2 1 2 3
M  V30 3 2 3 4
M  V30 4 1 4 5
M  V30 5 2 5 6
M  V30 6 1 6 7
M  V30 7 1 7 8
M  V30 8 1 8 9
M  V30 9 1 9 10
M  V30 10 2 10 11
M  V30 11 1 10 12
M  V30 12 1 12 13
M  V30 13 2 13 14
M  V30 14 1 14 15
M  V30 15 2 15 16
M  V30 16 1 16 17
M  V30 17 1 17 18
M  V30 18 2 17 19
M  V30 19 2 12 20
M  V30 20 1 20 21
M  V30 21 2 21 22
M  V30 22 1 22 23
M  V30 23 2 23 24
M  V30 24 1 24 25
M  V30 25 2 25 26
M  V30 26 2 7 27
M  V30 27 1 27 3
M  V30 28 1 26 9
M  V30 29 1 19 13
M  V30 30 1 26 21
M  V30 31 1 1 28
M  V30 32 1 1 29
M  V30 33 1 1 30
M  V30 34 1 4 31
M  V30 35 1 5 32
M  V30 36 1 6 33
M  V30 37 1 8 34
M  V30 38 1 8 35
M  V30 39 1 14 36
M  V30 40 1 15 37
M  V30 41 1 16 38
M  V30 42 1 19 39
M  V30 43 1 22 40
M  V30 44 1 24 41
M  V30 45 1 27 42
M  V30 END BOND
M  V30 END CTAB
M  END
>  <Dataset>  (122) 
ChEMBL_Kinases

>  <Ligand_Instance>  (122) 
nan

>  <PDB_ID>  (122) 
nan

>  <Standardized_SMILES>  (122) 
COc1cccc(Cn2c(=O)c(-c3cccc(F)c3)nc3cncnc32)c1

>  <Name>  (122) 
nan

>  <Pocket>  (122) 
nan

>  <ATP_Site>  (122) 
nan

>  <Peripheral>  (122) 
nan

>  <Num_H_Atoms_ProtBoundConf>  (122) 
nan

>  <Num_Resolved_Atoms>  (122) 
nan

>  <Num_Not_Resolved_Atoms>  (122) 
nan

$$$$
CHEMBL1479832
     RDKit          3D

  0  0  0  0  0  0  0  0  0  0999 V3000
M  V30 BEGIN CTAB
M  V30 COUNTS 41 44 0 0 0
M  V30 BEGIN ATOM
M  V30 1 C 1.607497 -6.270634 2.688310 0
M  V30 2 C 1.788706 -5.010969 1.926511 0
M  V30 3 C 2.107937 -5.021481 0.593479 0
M  V30 4 C 2.289345 -3.885166 -0.168668 0
M  V30 5 C 2.147375 -2.641986 0.419139 0
M  V30 6 N 2.300106 -1.381550 -0.223768 0
M  V30 7 N 3.323829 -0.704949 -0.714492 0
M  V30 8 N 2.917776 0.446354 -1.217367 0
M  V30 9 C 1.573079 0.543392 -1.057117 0
M  V30 10 C 0.714342 1.553257 -1.420504 0
M  V30 11 O 1.034542 2.608872 -1.988663 0
M  V30 12 N -0.606394 1.398087 -1.140047 0
M  V30 13 C -1.661937 2.345586 -1.442366 0
M  V30 14 C -1.809726 3.268224 -0.286517 0
M  V30 15 C -1.137892 4.458388 -0.118397 0
M  V30 16 C -1.397942 5.201974 1.029322 0
M  V30 17 C -2.307091 4.756934 1.975600 0
M  V30 18 C -2.962282 3.558523 1.773652 0
M  V30 19 N -2.699734 2.844288 0.651659 0
M  V30 20 C -0.983274 0.254407 -0.519855 0
M  V30 21 N -0.117033 -0.717476 -0.176288 0
M  V30 22 C 1.210402 -0.619196 -0.429831 0
M  V30 23 C 1.823830 -2.615473 1.770119 0
M  V30 24 C 1.643201 -3.755992 2.529034 0
M  V30 25 C 1.299763 -3.666866 3.962800 0
M  V30 26 H 0.536908 -6.625110 2.638688 0
M  V30 27 H 2.201194 -7.072697 2.203120 0
M  V30 28 H 1.893525 -6.222676 3.737468 0
M  V30 29 H 2.228836 -5.978979 0.092503 0
M  V30 30 H 2.541195 -3.884485 -1.220339 0
M  V30 31 H -1.323211 2.916736 -2.341158 0
M  V30 32 H -2.586103 1.812798 -1.668063 0
M  V30 33 H -0.442681 4.741778 -0.899313 0
M  V30 34 H -0.863937 6.138487 1.153407 0
M  V30 35 H -2.509769 5.335780 2.869401 0
M  V30 36 H -3.695088 3.147543 2.483761 0
M  V30 37 H -2.028960 0.068904 -0.267025 0
M  V30 38 H 1.700829 -1.674413 2.279936 0
M  V30 39 H 1.608842 -2.640303 4.317948 0
M  V30 40 H 0.236717 -3.751812 4.195716 0
M  V30 41 H 1.956113 -4.354149 4.563284 0
M  V30 END ATOM
M  V30 BEGIN BOND
M  V30 1 1 1 2
M  V30 2 2 2 3
M  V30 3 1 3 4
M  V30 4 2 4 5
M  V30 5 1 5 6
M  V30 6 1 6 7
M  V30 7 2 7 8
M  V30 8 1 8 9
M  V30 9 1 9 10
M  V30 10 2 10 11
M  V30 11 1 10 12
M  V30 12 1 12 13
M  V30 13 1 13 14
M  V30 14 2 14 15
M  V30 15 1 15 16
M  V30 16 2 16 17
M  V30 17 1 17 18
M  V30 18 2 18 19
M  V30 19 1 12 20
M  V30 20 2 20 21
M  V30 21 1 21 22
M  V30 22 1 5 23
M  V30 23 2 23 24
M  V30 24 1 24 25
M  V30 25 1 24 2
M  V30 26 1 22 6
M  V30 27 2 22 9
M  V30 28 1 19 14
M  V30 29 1 1 26
M  V30 30 1 1 27
M  V30 31 1 1 28
M  V30 32 1 3 29
M  V30 33 1 4 30
M  V30 34 1 13 31
M  V30 35 1 13 32
M  V30 36 1 15 33
M  V30 37 1 16 34
M  V30 38 1 17 35
M  V30 39 1 18 36
M  V30 40 1 20 37
M  V30 41 1 23 38
M  V30 42 1 25 39
M  V30 43 1 25 40
M  V30 44 1 25 41
M  V30 END BOND
M  V30 END CTAB
M  END
>  <Dataset>  (123) 
ChEMBL_Kinases

>  <Ligand_Instance>  (123) 
nan

>  <PDB_ID>  (123) 
nan

>  <Standardized_SMILES>  (123) 
Cc1ccc(-n2nnc3c(=O)n(Cc4ccccn4)cnc32)cc1C

>  <Name>  (123) 
nan

>  <Pocket>  (123) 
nan

>  <ATP_Site>  (123) 
nan

>  <Peripheral>  (123) 
nan

>  <Num_H_Atoms_ProtBoundConf>  (123) 
nan

>  <Num_Resolved_Atoms>  (123) 
nan

>  <Num_Not_Resolved_Atoms>  (123) 
nan

$$$$
CHEMBL1480089
     RDKit          3D

  0  0  0  0  0  0  0  0  0  0999 V3000
M  V30 BEGIN CTAB
M  V30 COUNTS 36 37 0 0 0
M  V30 BEGIN ATOM
M  V30 1 C 1.962059 -2.273315 3.385744 0
M  V30 2 O 1.833133 -2.272734 1.956180 0
M  V30 3 C 1.863933 -3.478899 1.293402 0
M  V30 4 O 1.991849 -4.634689 1.749796 0
M  V30 5 C 1.722851 -3.329559 -0.147169 0
M  V30 6 S 1.738748 -4.860813 -1.246130 0
M  V30 7 C 1.524435 -3.829329 -2.764271 0
M  V30 8 C 1.467425 -2.565962 -2.344463 0
M  V30 9 C 1.562897 -2.254857 -1.026341 0
M  V30 10 N 1.520910 -0.970418 -0.422076 0
M  V30 11 C 0.194369 -0.551541 -0.060545 0
M  V30 12 O -0.711520 -1.381178 -0.333963 0
M  V30 13 C -0.049010 0.763508 0.583223 0
M  V30 14 C 0.441766 1.846247 -0.364535 0
M  V30 15 C -0.347990 3.111669 -0.229848 0
M  V30 16 C -1.369624 3.315252 0.627050 0
M  V30 17 C -1.755962 2.186889 1.525153 0
M  V30 18 C -1.556110 0.923466 0.688428 0
M  V30 19 C -2.242228 -0.237060 1.243680 0
M  V30 20 O -3.133779 -0.872340 0.582149 0
M  V30 21 O -1.945198 -0.691138 2.519080 0
M  V30 22 H 2.681156 -3.076704 3.667093 0
M  V30 23 H 0.983751 -2.361179 3.861527 0
M  V30 24 H 2.472320 -1.308371 3.619319 0
M  V30 25 H 1.467486 -4.253828 -3.749538 0
M  V30 26 H 1.340651 -1.767238 -3.085502 0
M  V30 27 H 2.343733 -0.368061 -0.244245 0
M  V30 28 H 0.437661 0.879686 1.549403 0
M  V30 29 H 1.507555 2.098411 -0.166415 0
M  V30 30 H 0.407786 1.500767 -1.410245 0
M  V30 31 H 0.045925 3.842947 -0.945915 0
M  V30 32 H -1.748850 4.331860 0.496942 0
M  V30 33 H -1.047204 2.180520 2.394037 0
M  V30 34 H -2.807104 2.240174 1.842385 0
M  V30 35 H -1.936155 1.174082 -0.322941 0
M  V30 36 H -2.648000 -1.183134 3.074535 0
M  V30 END ATOM
M  V30 BEGIN BOND
M  V30 1 1 1 2
M  V30 2 1 2 3
M  V30 3 2 3 4
M  V30 4 1 3 5
M  V30 5 1 5 6
M  V30 6 1 6 7
M  V30 7 2 7 8
M  V30 8 1 8 9
M  V30 9 1 9 10
M  V30 10 1 10 11
M  V30 11 2 11 12
M  V30 12 1 11 13
M  V30 13 1 13 14
M  V30 14 1 14 15
M  V30 15 2 15 16
M  V30 16 1 16 17
M  V30 17 1 17 18
M  V30 18 1 18 19
M  V30 19 2 19 20
M  V30 20 1 19 21
M  V30 21 2 9 5
M  V30 22 1 18 13
M  V30 23 1 1 22
M  V30 24 1 1 23
M  V30 25 1 1 24
M  V30 26 1 7 25
M  V30 27 1 8 26
M  V30 28 1 10 27
M  V30 29 1 13 28
M  V30 30 1 14 29
M  V30 31 1 14 30
M  V30 32 1 15 31
M  V30 33 1 16 32
M  V30 34 1 17 33
M  V30 35 1 17 34
M  V30 36 1 18 35
M  V30 37 1 21 36
M  V30 END BOND
M  V30 END CTAB
M  END
>  <Dataset>  (124) 
ChEMBL_Kinases

>  <Ligand_Instance>  (124) 
nan

>  <PDB_ID>  (124) 
nan

>  <Standardized_SMILES>  (124) 
COC(=O)c1sccc1NC(=O)C1CC=CCC1C(=O)O

>  <Name>  (124) 
nan

>  <Pocket>  (124) 
nan

>  <ATP_Site>  (124) 
nan

>  <Peripheral>  (124) 
nan

>  <Num_H_Atoms_ProtBoundConf>  (124) 
nan

>  <Num_Resolved_Atoms>  (124) 
nan

>  <Num_Not_Resolved_Atoms>  (124) 
nan

$$$$
CHEMBL1480161
     RDKit          3D

  0  0  0  0  0  0  0  0  0  0999 V3000
M  V30 BEGIN CTAB
M  V30 COUNTS 51 54 0 0 0
M  V30 BEGIN ATOM
M  V30 1 O 2.259603 -3.965365 -0.750958 0
M  V30 2 S 2.593530 -2.573186 -1.113323 0
M  V30 3 O 3.051756 -2.546090 -2.557646 0
M  V30 4 C 3.929154 -1.934156 -0.180773 0
M  V30 5 C 3.922932 -2.403944 1.130556 0
M  V30 6 C 4.890006 -2.024820 2.041371 0
M  V30 7 C 5.884344 -1.145543 1.598339 0
M  V30 8 C 5.895529 -0.674150 0.292638 0
M  V30 9 C 4.914282 -1.068886 -0.603180 0
M  V30 10 N 1.264900 -1.494312 -0.944188 0
M  V30 11 C 1.553107 -0.186153 -1.446652 0
M  V30 12 C 0.384040 0.719024 -1.170739 0
M  V30 13 C -0.621485 0.085723 -0.217580 0
M  V30 14 C 0.099021 -0.188273 1.050984 0
M  V30 15 C -0.511966 0.450401 2.269901 0
M  V30 16 N -1.919211 0.461252 2.284729 0
M  V30 17 C -2.592524 -0.628281 2.867449 0
M  V30 18 C -4.072822 -0.540109 2.842534 0
M  V30 19 N -5.111260 -0.970538 1.905258 0
M  V30 20 C -6.271635 -0.596026 2.466478 0
M  V30 21 C -6.637381 0.071044 3.675693 0
M  V30 22 S -4.895042 0.301317 4.323338 0
M  V30 23 C -2.487936 1.100505 1.163193 0
M  V30 24 C -1.779635 1.023765 -0.128433 0
M  V30 25 C -1.086160 -1.247297 -0.791759 0
M  V30 26 C 0.042184 -1.957644 -1.514678 0
M  V30 27 H 3.195083 -3.087069 1.566185 0
M  V30 28 H 4.938121 -2.354639 3.069425 0
M  V30 29 H 6.652367 -0.831413 2.284917 0
M  V30 30 H 6.646979 0.005701 -0.085454 0
M  V30 31 H 4.820494 -0.769580 -1.638718 0
M  V30 32 H 1.637780 -0.289251 -2.567265 0
M  V30 33 H 2.526230 0.206845 -1.117928 0
M  V30 34 H -0.084137 1.160179 -2.053294 0
M  V30 35 H 0.805503 1.593976 -0.595546 0
M  V30 36 H 1.167153 0.117776 1.038587 0
M  V30 37 H 0.138365 -1.277093 1.295168 0
M  V30 38 H -0.144101 1.505098 2.324455 0
M  V30 39 H -0.131567 -0.051778 3.183461 0
M  V30 40 H -2.226274 -0.774013 3.913391 0
M  V30 41 H -2.244024 -1.568932 2.346501 0
M  V30 42 H -6.943766 -0.974686 1.671669 0
M  V30 43 H -7.588433 0.221617 3.841643 0
M  V30 44 H -3.549998 0.718386 1.087689 0
M  V30 45 H -2.657821 2.172962 1.482202 0
M  V30 46 H -2.517699 0.713926 -0.916730 0
M  V30 47 H -1.504489 2.051760 -0.450890 0
M  V30 48 H -1.341252 -1.883406 0.081748 0
M  V30 49 H -1.974677 -1.114124 -1.429859 0
M  V30 50 H 0.014832 -1.637776 -2.577021 0
M  V30 51 H -0.084299 -3.049430 -1.522231 0
M  V30 END ATOM
M  V30 BEGIN BOND
M  V30 1 2 1 2
M  V30 2 2 2 3
M  V30 3 1 2 4
M  V30 4 2 4 5
M  V30 5 1 5 6
M  V30 6 2 6 7
M  V30 7 1 7 8
M  V30 8 2 8 9
M  V30 9 1 2 10
M  V30 10 1 10 11
M  V30 11 1 11 12
M  V30 12 1 12 13
M  V30 13 1 13 14
M  V30 14 1 14 15
M  V30 15 1 15 16
M  V30 16 1 16 17
M  V30 17 1 17 18
M  V30 18 2 18 19
M  V30 19 1 19 20
M  V30 20 2 20 21
M  V30 21 1 21 22
M  V30 22 1 16 23
M  V30 23 1 23 24
M  V30 24 1 13 25
M  V30 25 1 25 26
M  V30 26 1 9 4
M  V30 27 1 26 10
M  V30 28 1 24 13
M  V30 29 1 22 18
M  V30 30 1 5 27
M  V30 31 1 6 28
M  V30 32 1 7 29
M  V30 33 1 8 30
M  V30 34 1 9 31
M  V30 35 1 11 32
M  V30 36 1 11 33
M  V30 37 1 12 34
M  V30 38 1 12 35
M  V30 39 1 14 36
M  V30 40 1 14 37
M  V30 41 1 15 38
M  V30 42 1 15 39
M  V30 43 1 17 40
M  V30 44 1 17 41
M  V30 45 1 20 42
M  V30 46 1 21 43
M  V30 47 1 23 44
M  V30 48 1 23 45
M  V30 49 1 24 46
M  V30 50 1 24 47
M  V30 51 1 25 48
M  V30 52 1 25 49
M  V30 53 1 26 50
M  V30 54 1 26 51
M  V30 END BOND
M  V30 END CTAB
M  END
>  <Dataset>  (125) 
ChEMBL_Kinases

>  <Ligand_Instance>  (125) 
nan

>  <PDB_ID>  (125) 
nan

>  <Standardized_SMILES>  (125) 
O=S(=O)(c1ccccc1)N1CCC2(CCN(Cc3nccs3)CC2)CC1

>  <Name>  (125) 
nan

>  <Pocket>  (125) 
nan

>  <ATP_Site>  (125) 
nan

>  <Peripheral>  (125) 
nan

>  <Num_H_Atoms_ProtBoundConf>  (125) 
nan

>  <Num_Resolved_Atoms>  (125) 
nan

>  <Num_Not_Resolved_Atoms>  (125) 
nan

$$$$
CHEMBL1480218
     RDKit          3D

  0  0  0  0  0  0  0  0  0  0999 V3000
M  V30 BEGIN CTAB
M  V30 COUNTS 42 45 0 0 0
M  V30 BEGIN ATOM
M  V30 1 O -3.853735 0.710930 0.713779 0
M  V30 2 C -3.319715 -0.321735 1.234816 0
M  V30 3 C -4.364187 -1.336153 1.640733 0
M  V30 4 S -4.801956 -2.160260 0.050972 0
M  V30 5 C -3.401654 -3.093978 -0.587158 0
M  V30 6 N -3.205909 -3.813486 -1.722297 0
M  V30 7 N -1.986756 -4.305789 -1.705322 0
M  V30 8 C -1.415659 -3.907354 -0.577911 0
M  V30 9 C -0.066038 -4.100990 0.060183 0
M  V30 10 N 0.807997 -3.000736 -0.180828 0
M  V30 11 C 1.301922 -2.435608 -1.366611 0
M  V30 12 O 0.907161 -2.989869 -2.428552 0
M  V30 13 C 2.203980 -1.289389 -1.293646 0
M  V30 14 C 2.793830 -0.608804 -2.318319 0
M  V30 15 C 3.608455 0.427516 -2.038843 0
M  V30 16 C 3.795681 0.741208 -0.664308 0
M  V30 17 S 2.756693 -0.510118 0.201603 0
M  V30 18 O -2.275263 -3.181156 0.083397 0
M  V30 19 N -1.905275 -0.341146 1.337691 0
M  V30 20 C -1.389812 0.869950 0.779503 0
M  V30 21 C -1.074361 2.097017 1.300065 0
M  V30 22 C -0.597188 3.085074 0.470358 0
M  V30 23 C -0.432643 2.856555 -0.881942 0
M  V30 24 C -0.736519 1.635563 -1.459176 0
M  V30 25 C -1.220276 0.642408 -0.596175 0
M  V30 26 O -0.469078 1.702282 -2.830906 0
M  V30 27 C -0.215211 3.060886 -3.137728 0
M  V30 28 O 0.030586 3.705118 -1.898645 0
M  V30 29 H -5.257196 -0.857899 2.013420 0
M  V30 30 H -3.920597 -2.103259 2.264818 0
M  V30 31 H -0.170063 -4.312502 1.129539 0
M  V30 32 H 0.363203 -5.009207 -0.466046 0
M  V30 33 H 1.138053 -2.527667 0.717481 0
M  V30 34 H 2.600810 -0.908655 -3.347347 0
M  V30 35 H 4.138606 1.052684 -2.744422 0
M  V30 36 H 4.436139 1.569447 -0.246437 0
M  V30 37 H -1.559199 -1.211979 1.790188 0
M  V30 38 H -1.264081 2.098936 2.362404 0
M  V30 39 H -0.377888 4.013838 0.970321 0
M  V30 40 H -1.429485 -0.282032 -1.158025 0
M  V30 41 H 0.690591 3.077087 -3.788513 0
M  V30 42 H -1.062586 3.542651 -3.663494 0
M  V30 END ATOM
M  V30 BEGIN BOND
M  V30 1 2 1 2
M  V30 2 1 2 3
M  V30 3 1 3 4
M  V30 4 1 4 5
M  V30 5 2 5 6
M  V30 6 1 6 7
M  V30 7 2 7 8
M  V30 8 1 8 9
M  V30 9 1 9 10
M  V30 10 1 10 11
M  V30 11 2 11 12
M  V30 12 1 11 13
M  V30 13 2 13 14
M  V30 14 1 14 15
M  V30 15 2 15 16
M  V30 16 1 16 17
M  V30 17 1 8 18
M  V30 18 1 2 19
M  V30 19 1 19 20
M  V30 20 2 20 21
M  V30 21 1 21 22
M  V30 22 2 22 23
M  V30 23 1 23 24
M  V30 24 2 24 25
M  V30 25 1 24 26
M  V30 26 1 26 27
M  V30 27 1 27 28
M  V30 28 1 18 5
M  V30 29 1 25 20
M  V30 30 1 17 13
M  V30 31 1 28 23
M  V30 32 1 3 29
M  V30 33 1 3 30
M  V30 34 1 9 31
M  V30 35 1 9 32
M  V30 36 1 10 33
M  V30 37 1 14 34
M  V30 38 1 15 35
M  V30 39 1 16 36
M  V30 40 1 19 37
M  V30 41 1 21 38
M  V30 42 1 22 39
M  V30 43 1 25 40
M  V30 44 1 27 41
M  V30 45 1 27 42
M  V30 END BOND
M  V30 END CTAB
M  END
>  <Dataset>  (126) 
ChEMBL_Kinases

>  <Ligand_Instance>  (126) 
nan

>  <PDB_ID>  (126) 
nan

>  <Standardized_SMILES>  (126) 
O=C(CSc1nnc(CNC(=O)c2cccs2)o1)Nc1ccc2c(c1)OCO2

>  <Name>  (126) 
nan

>  <Pocket>  (126) 
nan

>  <ATP_Site>  (126) 
nan

>  <Peripheral>  (126) 
nan

>  <Num_H_Atoms_ProtBoundConf>  (126) 
nan

>  <Num_Resolved_Atoms>  (126) 
nan

>  <Num_Not_Resolved_Atoms>  (126) 
nan

$$$$
CHEMBL1480219
     RDKit          3D

  0  0  0  0  0  0  0  0  0  0999 V3000
M  V30 BEGIN CTAB
M  V30 COUNTS 39 42 0 0 0
M  V30 BEGIN ATOM
M  V30 1 C 0.723833 -6.693348 1.175462 0
M  V30 2 C 0.130869 -5.382333 1.551930 0
M  V30 3 C -0.917029 -4.892374 0.761523 0
M  V30 4 N -1.444200 -3.707184 1.112409 0
M  V30 5 C -1.000681 -3.009182 2.168639 0
M  V30 6 C -1.502688 -1.713254 2.641513 0
M  V30 7 N -0.837404 -0.571355 2.058630 0
M  V30 8 C -0.904892 -0.419927 0.646096 0
M  V30 9 N -1.561883 -1.297458 -0.126272 0
M  V30 10 C -1.676071 -1.229768 -1.456311 0
M  V30 11 N -1.090648 -0.200556 -2.110998 0
M  V30 12 C -0.398282 0.749140 -1.430583 0
M  V30 13 C 0.196551 1.796055 -2.105813 0
M  V30 14 C 0.902392 2.763026 -1.411193 0
M  V30 15 C 0.976539 2.625476 -0.041454 0
M  V30 16 C 1.726695 3.656176 0.662633 0
M  V30 17 C 2.817653 4.438663 0.353178 0
M  V30 18 C 3.075911 5.259974 1.458496 0
M  V30 19 O 2.179390 4.983553 2.392581 0
M  V30 20 C 1.366816 4.030971 1.937924 0
M  V30 21 C 0.377821 1.575552 0.617947 0
M  V30 22 C -0.324549 0.611321 -0.061187 0
M  V30 23 C 0.043874 -3.512841 2.944308 0
M  V30 24 N 0.597546 -4.708090 2.615410 0
M  V30 25 H 0.121110 -7.206063 0.401132 0
M  V30 26 H 0.934641 -7.342190 2.046559 0
M  V30 27 H 1.717146 -6.509484 0.674329 0
M  V30 28 H -1.275342 -5.439657 -0.079858 0
M  V30 29 H -1.517781 -1.610536 3.728037 0
M  V30 30 H -2.573806 -1.647623 2.294531 0
M  V30 31 H -0.342302 0.082226 2.694640 0
M  V30 32 H -2.233957 -1.998800 -1.990338 0
M  V30 33 H 0.116086 1.869603 -3.181730 0
M  V30 34 H 1.350590 3.564336 -1.998665 0
M  V30 35 H 3.269453 4.298046 -0.635368 0
M  V30 36 H 3.926187 5.904607 1.282262 0
M  V30 37 H 0.620282 3.773112 2.663239 0
M  V30 38 H 0.494141 1.560983 1.670374 0
M  V30 39 H 0.522953 -3.091600 3.822103 0
M  V30 END ATOM
M  V30 BEGIN BOND
M  V30 1 1 1 2
M  V30 2 2 2 3
M  V30 3 1 3 4
M  V30 4 2 4 5
M  V30 5 1 5 6
M  V30 6 1 6 7
M  V30 7 1 7 8
M  V30 8 2 8 9
M  V30 9 1 9 10
M  V30 10 2 10 11
M  V30 11 1 11 12
M  V30 12 2 12 13
M  V30 13 1 13 14
M  V30 14 2 14 15
M  V30 15 1 15 16
M  V30 16 1 16 17
M  V30 17 2 17 18
M  V30 18 1 18 19
M  V30 19 1 19 20
M  V30 20 1 15 21
M  V30 21 2 21 22
M  V30 22 1 5 23
M  V30 23 2 23 24
M  V30 24 1 24 2
M  V30 25 1 22 8
M  V30 26 1 22 12
M  V30 27 2 20 16
M  V30 28 1 1 25
M  V30 29 1 1 26
M  V30 30 1 1 27
M  V30 31 1 3 28
M  V30 32 1 6 29
M  V30 33 1 6 30
M  V30 34 1 7 31
M  V30 35 1 10 32
M  V30 36 1 13 33
M  V30 37 1 14 34
M  V30 38 1 17 35
M  V30 39 1 18 36
M  V30 40 1 20 37
M  V30 41 1 21 38
M  V30 42 1 23 39
M  V30 END BOND
M  V30 END CTAB
M  END
>  <Dataset>  (127) 
ChEMBL_Kinases

>  <Ligand_Instance>  (127) 
nan

>  <PDB_ID>  (127) 
nan

>  <Standardized_SMILES>  (127) 
Cc1cnc(CNc2ncnc3ccc(-c4ccoc4)cc23)cn1

>  <Name>  (127) 
nan

>  <Pocket>  (127) 
nan

>  <ATP_Site>  (127) 
nan

>  <Peripheral>  (127) 
nan

>  <Num_H_Atoms_ProtBoundConf>  (127) 
nan

>  <Num_Resolved_Atoms>  (127) 
nan

>  <Num_Not_Resolved_Atoms>  (127) 
nan

$$$$
CHEMBL1479767
     RDKit          3D

  0  0  0  0  0  0  0  0  0  0999 V3000
M  V30 BEGIN CTAB
M  V30 COUNTS 54 58 0 0 0
M  V30 BEGIN ATOM
M  V30 1 C 0.654253 -7.928364 -3.280390 0
M  V30 2 O 1.750541 -7.439058 -2.539395 0
M  V30 3 C 2.005240 -6.071946 -2.568175 0
M  V30 4 C 1.294050 -5.146551 -3.250688 0
M  V30 5 C 1.609077 -3.774782 -3.232058 0
M  V30 6 C 2.735535 -3.429727 -2.441051 0
M  V30 7 O 2.734752 -2.032792 -2.661340 0
M  V30 8 C 1.854252 -1.320303 -1.816206 0
M  V30 9 N 1.204509 -2.018770 -0.864901 0
M  V30 10 C 0.331987 -1.390616 -0.027571 0
M  V30 11 C 0.088660 -0.013552 -0.132593 0
M  V30 12 N -0.786272 0.653119 0.626883 0
M  V30 13 C -1.015090 1.981024 0.447092 0
M  V30 14 C -2.021610 2.350153 1.435665 0
M  V30 15 C -3.296507 2.810723 1.100583 0
M  V30 16 N -3.981633 2.991607 2.258022 0
M  V30 17 C -5.364990 3.442607 2.418296 0
M  V30 18 C -3.231419 2.680739 3.335720 0
M  V30 19 C -3.421099 2.678866 4.713605 0
M  V30 20 C -2.350504 2.268701 5.486665 0
M  V30 21 C -1.128809 1.868034 5.019838 0
M  V30 22 C -1.004208 1.893653 3.625681 0
M  V30 23 C -2.032133 2.290728 2.802775 0
M  V30 24 C -0.341777 2.651897 -0.524055 0
M  V30 25 O -0.643290 3.844772 -0.577214 0
M  V30 26 N 0.536705 1.993713 -1.288031 0
M  V30 27 C 1.237458 2.678297 -2.328242 0
M  V30 28 C 0.621887 2.596172 -3.680068 0
M  V30 29 C 1.493960 3.357473 -4.608831 0
M  V30 30 N 2.189701 3.944762 -5.322129 0
M  V30 31 C 0.785582 0.661382 -1.130570 0
M  V30 32 N 1.655266 0.013419 -1.957237 0
M  V30 33 C 3.435732 -4.386448 -1.764083 0
M  V30 34 C 3.130590 -5.744569 -1.777738 0
M  V30 35 H 0.580622 -9.038935 -3.221953 0
M  V30 36 H -0.288094 -7.437168 -2.971166 0
M  V30 37 H 0.826444 -7.673241 -4.342192 0
M  V30 38 H 0.463337 -5.631806 -3.801790 0
M  V30 39 H 0.894368 -3.278527 -3.853322 0
M  V30 40 H -0.195287 -1.909348 0.737843 0
M  V30 41 H -3.763579 3.024612 0.133316 0
M  V30 42 H -5.686419 4.144877 1.641056 0
M  V30 43 H -6.023029 2.522205 2.414577 0
M  V30 44 H -5.521348 3.917983 3.401020 0
M  V30 45 H -4.379368 2.990895 5.076308 0
M  V30 46 H -2.512997 2.279982 6.557325 0
M  V30 47 H -0.320878 1.562974 5.662437 0
M  V30 48 H -0.026651 1.573988 3.227389 0
M  V30 49 H 1.333657 3.748351 -2.036555 0
M  V30 50 H 2.274602 2.304825 -2.404992 0
M  V30 51 H -0.387442 3.034941 -3.775937 0
M  V30 52 H 0.669425 1.553948 -4.068384 0
M  V30 53 H 4.230220 -3.812193 -1.258284 0
M  V30 54 H 3.804320 -6.300202 -1.183645 0
M  V30 END ATOM
M  V30 BEGIN BOND
M  V30 1 1 1 2
M  V30 2 1 2 3
M  V30 3 2 3 4
M  V30 4 1 4 5
M  V30 5 2 5 6
M  V30 6 1 6 7
M  V30 7 1 7 8
M  V30 8 2 8 9
M  V30 9 1 9 10
M  V30 10 2 10 11
M  V30 11 1 11 12
M  V30 12 2 12 13
M  V30 13 1 13 14
M  V30 14 2 14 15
M  V30 15 1 15 16
M  V30 16 1 16 17
M  V30 17 1 16 18
M  V30 18 2 18 19
M  V30 19 1 19 20
M  V30 20 2 20 21
M  V30 21 1 21 22
M  V30 22 2 22 23
M  V30 23 1 13 24
M  V30 24 2 24 25
M  V30 25 1 24 26
M  V30 26 1 26 27
M  V30 27 1 27 28
M  V30 28 1 28 29
M  V30 29 3 29 30
M  V30 30 1 26 31
M  V30 31 2 31 32
M  V30 32 1 6 33
M  V30 33 2 33 34
M  V30 34 1 34 3
M  V30 35 1 32 8
M  V30 36 1 31 11
M  V30 37 1 23 14
M  V30 38 1 23 18
M  V30 39 1 1 35
M  V30 40 1 1 36
M  V30 41 1 1 37
M  V30 42 1 4 38
M  V30 43 1 5 39
M  V30 44 1 10 40
M  V30 45 1 15 41
M  V30 46 1 17 42
M  V30 47 1 17 43
M  V30 48 1 17 44
M  V30 49 1 19 45
M  V30 50 1 20 46
M  V30 51 1 21 47
M  V30 52 1 22 48
M  V30 53 1 27 49
M  V30 54 1 27 50
M  V30 55 1 28 51
M  V30 56 1 28 52
M  V30 57 1 33 53
M  V30 58 1 34 54
M  V30 END BOND
M  V30 END CTAB
M  END
>  <Dataset>  (128) 
ChEMBL_Kinases

>  <Ligand_Instance>  (128) 
nan

>  <PDB_ID>  (128) 
nan

>  <Standardized_SMILES>  (128) 
COc1ccc(Oc2ncc3nc(-c4cn(C)c5ccccc45)c(=O)n(CCC#N)c3n2)cc1

>  <Name>  (128) 
nan

>  <Pocket>  (128) 
nan

>  <ATP_Site>  (128) 
nan

>  <Peripheral>  (128) 
nan

>  <Num_H_Atoms_ProtBoundConf>  (128) 
nan

>  <Num_Resolved_Atoms>  (128) 
nan

>  <Num_Not_Resolved_Atoms>  (128) 
nan

$$$$
CHEMBL1471171
     RDKit          3D

  0  0  0  0  0  0  0  0  0  0999 V3000
M  V30 BEGIN CTAB
M  V30 COUNTS 55 60 0 0 0
M  V30 BEGIN ATOM
M  V30 1 C 0.848151 -4.796771 3.190067 0
M  V30 2 C 0.435185 -3.427844 2.721882 0
M  V30 3 C 0.143340 -2.586281 3.808327 0
M  V30 4 C -0.256577 -1.280125 3.621423 0
M  V30 5 C -0.379061 -0.770226 2.345489 0
M  V30 6 C -0.806300 0.563320 1.929698 0
M  V30 7 N 0.032931 1.180289 1.044972 0
M  V30 8 N -0.151334 2.366654 0.540780 0
M  V30 9 C 0.549927 3.127476 -0.327434 0
M  V30 10 C 1.816002 2.742622 -0.966551 0
M  V30 11 C 2.263484 1.453529 -1.184237 0
M  V30 12 C 3.493427 1.649511 -1.809172 0
M  V30 13 C 3.736589 3.000219 -1.942054 0
M  V30 14 O 2.703991 3.597742 -1.422812 0
M  V30 15 N -0.110462 4.299831 -0.507042 0
M  V30 16 N -1.204371 4.260225 0.241607 0
M  V30 17 C -1.236754 3.081400 0.885496 0
M  V30 18 C -2.147639 2.547882 1.772644 0
M  V30 19 C -3.293081 3.200269 2.177066 0
M  V30 20 C -4.149243 2.555851 3.072842 0
M  V30 21 C -3.900190 1.286747 3.575571 0
M  V30 22 C -2.760154 0.649860 3.166968 0
M  V30 23 C -1.920312 1.290577 2.285202 0
M  V30 24 C -0.085601 -1.618911 1.303192 0
M  V30 25 C 0.315011 -2.921594 1.412295 0
M  V30 26 S 0.754095 -4.176320 0.292931 0
M  V30 27 O 2.258697 -4.393885 0.463388 0
M  V30 28 O 0.043601 -5.469038 0.599232 0
M  V30 29 N 0.529500 -3.710876 -1.327592 0
M  V30 30 C -0.784690 -3.407082 -1.737537 0
M  V30 31 C -0.918546 -3.191608 -3.232746 0
M  V30 32 O 0.119726 -2.399042 -3.722420 0
M  V30 33 C 0.796556 -1.761479 -2.684670 0
M  V30 34 C 1.487739 -2.817670 -1.861443 0
M  V30 35 H -0.015367 -5.378799 3.518620 0
M  V30 36 H 1.453909 -5.334225 2.436124 0
M  V30 37 H 1.546189 -4.659094 4.056785 0
M  V30 38 H 0.201665 -2.868972 4.845382 0
M  V30 39 H -0.472017 -0.606942 4.428641 0
M  V30 40 H 1.791112 0.529434 -0.938187 0
M  V30 41 H 4.169450 0.853267 -2.146219 0
M  V30 42 H 4.571402 3.514060 -2.368933 0
M  V30 43 H -3.489155 4.186747 1.787661 0
M  V30 44 H -5.023272 3.149839 3.331278 0
M  V30 45 H -4.612720 0.860787 4.262655 0
M  V30 46 H -2.587091 -0.332088 3.552145 0
M  V30 47 H -0.130365 -1.324384 0.286849 0
M  V30 48 H -1.288164 -2.624886 -1.194151 0
M  V30 49 H -1.397715 -4.348301 -1.549577 0
M  V30 50 H -1.856183 -2.621903 -3.390133 0
M  V30 51 H -1.013938 -4.134392 -3.805721 0
M  V30 52 H 0.039438 -1.241312 -2.095307 0
M  V30 53 H 1.509327 -1.027893 -3.073428 0
M  V30 54 H 2.235804 -3.383085 -2.459811 0
M  V30 55 H 2.089137 -2.274043 -1.102790 0
M  V30 END ATOM
M  V30 BEGIN BOND
M  V30 1 1 1 2
M  V30 2 2 2 3
M  V30 3 1 3 4
M  V30 4 2 4 5
M  V30 5 1 5 6
M  V30 6 2 6 7
M  V30 7 1 7 8
M  V30 8 1 8 9
M  V30 9 1 9 10
M  V30 10 2 10 11
M  V30 11 1 11 12
M  V30 12 2 12 13
M  V30 13 1 13 14
M  V30 14 2 9 15
M  V30 15 1 15 16
M  V30 16 2 16 17
M  V30 17 1 17 18
M  V30 18 2 18 19
M  V30 19 1 19 20
M  V30 20 2 20 21
M  V30 21 1 21 22
M  V30 22 2 22 23
M  V30 23 1 5 24
M  V30 24 2 24 25
M  V30 25 1 25 26
M  V30 26 2 26 27
M  V30 27 2 26 28
M  V30 28 1 26 29
M  V30 29 1 29 30
M  V30 30 1 30 31
M  V30 31 1 31 32
M  V30 32 1 32 33
M  V30 33 1 33 34
M  V30 34 1 25 2
M  V30 35 1 34 29
M  V30 36 1 23 6
M  V30 37 1 17 8
M  V30 38 1 23 18
M  V30 39 1 14 10
M  V30 40 1 1 35
M  V30 41 1 1 36
M  V30 42 1 1 37
M  V30 43 1 3 38
M  V30 44 1 4 39
M  V30 45 1 11 40
M  V30 46 1 12 41
M  V30 47 1 13 42
M  V30 48 1 19 43
M  V30 49 1 20 44
M  V30 50 1 21 45
M  V30 51 1 22 46
M  V30 52 1 24 47
M  V30 53 1 30 48
M  V30 54 1 30 49
M  V30 55 1 31 50
M  V30 56 1 31 51
M  V30 57 1 33 52
M  V30 58 1 33 53
M  V30 59 1 34 54
M  V30 60 1 34 55
M  V30 END BOND
M  V30 END CTAB
M  END
>  <Dataset>  (129) 
ChEMBL_Kinases

>  <Ligand_Instance>  (129) 
nan

>  <PDB_ID>  (129) 
nan

>  <Standardized_SMILES>  (129) 
Cc1ccc(-c2nn3c(-c4ccco4)nnc3c3ccccc23)cc1S(=O)(=O)N1CCOCC1

>  <Name>  (129) 
nan

>  <Pocket>  (129) 
nan

>  <ATP_Site>  (129) 
nan

>  <Peripheral>  (129) 
nan

>  <Num_H_Atoms_ProtBoundConf>  (129) 
nan

>  <Num_Resolved_Atoms>  (129) 
nan

>  <Num_Not_Resolved_Atoms>  (129) 
nan

$$$$
CHEMBL1470732
     RDKit          3D

  0  0  0  0  0  0  0  0  0  0999 V3000
M  V30 BEGIN CTAB
M  V30 COUNTS 40 43 0 0 0
M  V30 BEGIN ATOM
M  V30 1 C -0.137820 -5.500628 -0.345505 0
M  V30 2 C 1.164375 -4.818907 -0.151620 0
M  V30 3 C 2.121551 -5.697590 0.062742 0
M  V30 4 S 3.662398 -4.809566 0.287782 0
M  V30 5 C 2.903328 -3.191259 0.070909 0
M  V30 6 N 3.481227 -2.047871 0.114279 0
M  V30 7 C 2.719650 -0.866927 -0.080447 0
M  V30 8 O 3.315412 0.218106 -0.027346 0
M  V30 9 C 1.307438 -1.037533 -0.321630 0
M  V30 10 C 0.634849 0.076604 -0.523306 0
M  V30 11 C 1.062329 1.459846 -0.553553 0
M  V30 12 C 1.978851 2.225184 -1.215868 0
M  V30 13 C 1.979525 3.529207 -0.800416 0
M  V30 14 C 1.011871 3.597914 0.177270 0
M  V30 15 N 0.493516 2.365128 0.296249 0
M  V30 16 C -0.538836 2.138692 1.247605 0
M  V30 17 C -0.189936 1.151526 2.174384 0
M  V30 18 C -1.046016 0.756612 3.205681 0
M  V30 19 C -2.263052 1.402457 3.255468 0
M  V30 20 N -3.137584 0.990247 4.319610 0 CHG=1 VAL=4
M  V30 21 O -4.275528 1.453058 4.531134 0
M  V30 22 O -2.809114 0.014180 5.247586 0 CHG=-1 VAL=1
M  V30 23 C -2.649708 2.381565 2.363251 0
M  V30 24 C -1.774798 2.737126 1.365670 0
M  V30 25 C 0.651522 -2.335228 -0.370438 0
M  V30 26 N -0.577277 -2.501281 -0.580374 0
M  V30 27 N 1.523436 -3.457332 -0.158816 0
M  V30 28 H -0.406197 -6.180375 0.512789 0
M  V30 29 H -0.090291 -6.144585 -1.271719 0
M  V30 30 H -0.991634 -4.799622 -0.419789 0
M  V30 31 H 2.299907 -6.748806 0.149250 0
M  V30 32 H -0.442015 -0.000645 -0.711029 0
M  V30 33 H 2.614245 1.825051 -1.995093 0
M  V30 34 H 2.649914 4.297441 -1.217419 0
M  V30 35 H 0.779575 4.502091 0.694550 0
M  V30 36 H 0.770167 0.610545 2.171827 0
M  V30 37 H -0.757514 -0.009783 3.914469 0
M  V30 38 H -3.596326 2.867507 2.421763 0
M  V30 39 H -1.954104 3.483301 0.609522 0
M  V30 40 H -1.283855 -1.783894 -0.743594 0
M  V30 END ATOM
M  V30 BEGIN BOND
M  V30 1 1 1 2
M  V30 2 2 2 3
M  V30 3 1 3 4
M  V30 4 1 4 5
M  V30 5 2 5 6
M  V30 6 1 6 7
M  V30 7 2 7 8
M  V30 8 1 7 9
M  V30 9 2 9 10
M  V30 10 1 10 11
M  V30 11 2 11 12
M  V30 12 1 12 13
M  V30 13 2 13 14
M  V30 14 1 14 15
M  V30 15 1 15 16
M  V30 16 2 16 17
M  V30 17 1 17 18
M  V30 18 2 18 19
M  V30 19 1 19 20
M  V30 20 2 20 21
M  V30 21 1 20 22
M  V30 22 1 19 23
M  V30 23 2 23 24
M  V30 24 1 9 25
M  V30 25 2 25 26 CFG=2
M  V30 26 1 25 27
M  V30 27 1 27 2
M  V30 28 1 27 5
M  V30 29 1 15 11
M  V30 30 1 24 16
M  V30 31 1 1 28
M  V30 32 1 1 29
M  V30 33 1 1 30
M  V30 34 1 3 31
M  V30 35 1 10 32
M  V30 36 1 12 33
M  V30 37 1 13 34
M  V30 38 1 14 35
M  V30 39 1 17 36
M  V30 40 1 18 37
M  V30 41 1 23 38
M  V30 42 1 24 39
M  V30 43 1 26 40
M  V30 END BOND
M  V30 END CTAB
M  END
>  <Dataset>  (130) 
ChEMBL_Kinases

>  <Ligand_Instance>  (130) 
nan

>  <PDB_ID>  (130) 
nan

>  <Standardized_SMILES>  (130) 
CC1=CSC2=NC(=O)/C(=C\c3cccn3-c3ccc([N+](=O)[O-])cc3)C(=N)N12

>  <Name>  (130) 
nan

>  <Pocket>  (130) 
nan

>  <ATP_Site>  (130) 
nan

>  <Peripheral>  (130) 
nan

>  <Num_H_Atoms_ProtBoundConf>  (130) 
nan

>  <Num_Resolved_Atoms>  (130) 
nan

>  <Num_Not_Resolved_Atoms>  (130) 
nan

$$$$
CHEMBL1470688
     RDKit          3D

  0  0  0  0  0  0  0  0  0  0999 V3000
M  V30 BEGIN CTAB
M  V30 COUNTS 57 59 0 0 0
M  V30 BEGIN ATOM
M  V30 1 C 4.309943 -3.476420 5.324330 0
M  V30 2 O 3.282786 -2.502573 5.339937 0
M  V30 3 C 2.511347 -2.373107 4.190558 0
M  V30 4 C 1.495012 -1.440455 4.146876 0
M  V30 5 C 0.733658 -1.316711 3.004747 0
M  V30 6 C 0.934799 -2.095330 1.866958 0
M  V30 7 N 0.054661 -1.843489 0.758479 0
M  V30 8 C 0.483565 -0.860864 -0.187930 0
M  V30 9 C 0.007611 0.525833 0.150936 0
M  V30 10 O -0.666641 1.130363 1.021122 0
M  V30 11 N 0.436553 1.522006 -0.798847 0
M  V30 12 C -0.015176 2.854871 -0.481796 0
M  V30 13 C 0.677055 3.759901 0.298016 0
M  V30 14 C 0.100519 5.001767 0.506082 0
M  V30 15 C -1.124450 5.313565 -0.051671 0
M  V30 16 C -1.797594 4.382534 -0.831882 0
M  V30 17 C -3.114254 4.816162 -1.388973 0
M  V30 18 C -1.230965 3.144807 -1.043755 0
M  V30 19 C -2.020737 2.213724 -1.889783 0
M  V30 20 S -1.439922 -2.691091 0.593535 0
M  V30 21 O -2.605672 -1.748816 0.667995 0
M  V30 22 O -1.583541 -3.612880 1.786784 0
M  V30 23 C -1.416995 -3.597320 -0.875779 0
M  V30 24 C -0.982044 -4.884801 -1.081945 0
M  V30 25 C -0.469938 -5.573025 0.121780 0
M  V30 26 N -1.024415 -5.470083 -2.292563 0
M  V30 27 C -1.503944 -4.795615 -3.354818 0
M  V30 28 O -1.536555 -5.428250 -4.602114 0
M  V30 29 N -1.943609 -3.531825 -3.210943 0
M  V30 30 C -1.910256 -2.918445 -1.993565 0
M  V30 31 O -2.409584 -1.623559 -2.070831 0
M  V30 32 C 1.947249 -3.011344 1.935715 0
M  V30 33 C 2.713637 -3.145372 3.067207 0
M  V30 34 H 5.023780 -3.312148 4.495658 0
M  V30 35 H 4.796852 -3.417664 6.323052 0
M  V30 36 H 3.824976 -4.476290 5.176937 0
M  V30 37 H 1.349141 -0.843208 5.034880 0
M  V30 38 H -0.027131 -0.557325 3.091332 0
M  V30 39 H 0.141841 -1.151969 -1.192500 0
M  V30 40 H 1.610233 -0.867141 -0.231512 0
M  V30 41 H 1.020036 1.420975 -1.672957 0
M  V30 42 H 1.632606 3.420237 0.691636 0
M  V30 43 H 0.681685 5.684292 1.127681 0
M  V30 44 H -1.540927 6.295417 0.134911 0
M  V30 45 H -3.595297 3.995122 -1.944778 0
M  V30 46 H -3.086504 5.775275 -1.905689 0
M  V30 47 H -3.765773 4.962932 -0.478436 0
M  V30 48 H -1.413302 1.332841 -2.197275 0
M  V30 49 H -2.911767 1.814172 -1.373680 0
M  V30 50 H -2.263490 2.730125 -2.852735 0
M  V30 51 H 0.084599 -4.896597 0.778163 0
M  V30 52 H 0.230827 -6.363752 -0.243139 0
M  V30 53 H -1.280658 -6.125088 0.641197 0
M  V30 54 H -0.958506 -6.218064 -4.763282 0
M  V30 55 H -1.975051 -0.957463 -2.704062 0
M  V30 56 H 2.090074 -3.608181 1.042057 0
M  V30 57 H 3.501668 -3.874406 3.089765 0
M  V30 END ATOM
M  V30 BEGIN BOND
M  V30 1 1 1 2
M  V30 2 1 2 3
M  V30 3 2 3 4
M  V30 4 1 4 5
M  V30 5 2 5 6
M  V30 6 1 6 7
M  V30 7 1 7 8
M  V30 8 1 8 9
M  V30 9 2 9 10
M  V30 10 1 9 11
M  V30 11 1 11 12
M  V30 12 2 12 13
M  V30 13 1 13 14
M  V30 14 2 14 15
M  V30 15 1 15 16
M  V30 16 1 16 17
M  V30 17 2 16 18
M  V30 18 1 18 19
M  V30 19 1 7 20
M  V30 20 2 20 21
M  V30 21 2 20 22
M  V30 22 1 20 23
M  V30 23 2 23 24
M  V30 24 1 24 25
M  V30 25 1 24 26
M  V30 26 2 26 27
M  V30 27 1 27 28
M  V30 28 1 27 29
M  V30 29 2 29 30
M  V30 30 1 30 31
M  V30 31 1 6 32
M  V30 32 2 32 33
M  V30 33 1 33 3
M  V30 34 1 18 12
M  V30 35 1 30 23
M  V30 36 1 1 34
M  V30 37 1 1 35
M  V30 38 1 1 36
M  V30 39 1 4 37
M  V30 40 1 5 38
M  V30 41 1 8 39
M  V30 42 1 8 40
M  V30 43 1 11 41
M  V30 44 1 13 42
M  V30 45 1 14 43
M  V30 46 1 15 44
M  V30 47 1 17 45
M  V30 48 1 17 46
M  V30 49 1 17 47
M  V30 50 1 19 48
M  V30 51 1 19 49
M  V30 52 1 19 50
M  V30 53 1 25 51
M  V30 54 1 25 52
M  V30 55 1 25 53
M  V30 56 1 28 54
M  V30 57 1 31 55
M  V30 58 1 32 56
M  V30 59 1 33 57
M  V30 END BOND
M  V30 END CTAB
M  END
>  <Dataset>  (131) 
ChEMBL_Kinases

>  <Ligand_Instance>  (131) 
nan

>  <PDB_ID>  (131) 
nan

>  <Standardized_SMILES>  (131) 
COc1ccc(N(CC(=O)Nc2cccc(C)c2C)S(=O)(=O)c2c(C)nc(O)nc2O)cc1

>  <Name>  (131) 
nan

>  <Pocket>  (131) 
nan

>  <ATP_Site>  (131) 
nan

>  <Peripheral>  (131) 
nan

>  <Num_H_Atoms_ProtBoundConf>  (131) 
nan

>  <Num_Resolved_Atoms>  (131) 
nan

>  <Num_Not_Resolved_Atoms>  (131) 
nan

$$$$
CHEMBL1470632
     RDKit          3D

  0  0  0  0  0  0  0  0  0  0999 V3000
M  V30 BEGIN CTAB
M  V30 COUNTS 35 36 0 0 0
M  V30 BEGIN ATOM
M  V30 1 O -0.157462 -0.443782 1.211336 0
M  V30 2 C -0.475052 -0.628332 0.008661 0
M  V30 3 C -0.132952 -1.902541 -0.669195 0
M  V30 4 C 0.595734 -2.857850 0.228580 0
M  V30 5 N 1.840031 -2.372893 0.746640 0
M  V30 6 C 2.882438 -2.006782 -0.136650 0
M  V30 7 O 2.704317 -2.112261 -1.390231 0
M  V30 8 C 4.152915 -1.511642 0.383110 0
M  V30 9 C 4.493185 -1.348179 1.717974 0
M  V30 10 C 5.778727 -0.858506 1.799067 0
M  V30 11 C 6.164131 -0.746393 0.478302 0
M  V30 12 Br 7.826926 -0.134989 -0.276307 0
M  V30 13 O 5.186440 -1.138113 -0.331977 0
M  V30 14 N -1.164003 0.335476 -0.773295 0
M  V30 15 C -1.583192 1.640729 -0.284286 0
M  V30 16 C -2.794255 1.447084 0.557524 0
M  V30 17 C -2.908065 1.237182 1.914080 0
M  V30 18 C -4.147002 1.077408 2.492024 0
M  V30 19 C -5.299439 1.122986 1.733616 0
M  V30 20 C -5.167341 1.334534 0.374352 0
M  V30 21 N -3.946529 1.488037 -0.169408 0
M  V30 22 H -1.101206 -2.375046 -0.926290 0
M  V30 23 H 0.402658 -1.783141 -1.622178 0
M  V30 24 H -0.072933 -3.271971 0.999885 0
M  V30 25 H 0.856728 -3.738754 -0.427849 0
M  V30 26 H 2.043584 -2.264878 1.772505 0
M  V30 27 H 3.883047 -1.556889 2.598313 0
M  V30 28 H 6.416017 -0.595289 2.632963 0
M  V30 29 H -1.409201 0.138044 -1.776376 0
M  V30 30 H -0.764358 2.097862 0.326596 0
M  V30 31 H -1.767953 2.349649 -1.097185 0
M  V30 32 H -1.955072 1.221361 2.414794 0
M  V30 33 H -4.156669 0.915682 3.566260 0
M  V30 34 H -6.267986 0.993809 2.214123 0
M  V30 35 H -6.062045 1.376934 -0.260186 0
M  V30 END ATOM
M  V30 BEGIN BOND
M  V30 1 2 1 2
M  V30 2 1 2 3
M  V30 3 1 3 4
M  V30 4 1 4 5
M  V30 5 1 5 6
M  V30 6 2 6 7
M  V30 7 1 6 8
M  V30 8 2 8 9
M  V30 9 1 9 10
M  V30 10 2 10 11
M  V30 11 1 11 12
M  V30 12 1 11 13
M  V30 13 1 2 14
M  V30 14 1 14 15
M  V30 15 1 15 16
M  V30 16 2 16 17
M  V30 17 1 17 18
M  V30 18 2 18 19
M  V30 19 1 19 20
M  V30 20 2 20 21
M  V30 21 1 13 8
M  V30 22 1 21 16
M  V30 23 1 3 22
M  V30 24 1 3 23
M  V30 25 1 4 24
M  V30 26 1 4 25
M  V30 27 1 5 26
M  V30 28 1 9 27
M  V30 29 1 10 28
M  V30 30 1 14 29
M  V30 31 1 15 30
M  V30 32 1 15 31
M  V30 33 1 17 32
M  V30 34 1 18 33
M  V30 35 1 19 34
M  V30 36 1 20 35
M  V30 END BOND
M  V30 END CTAB
M  END
>  <Dataset>  (132) 
ChEMBL_Kinases

>  <Ligand_Instance>  (132) 
nan

>  <PDB_ID>  (132) 
nan

>  <Standardized_SMILES>  (132) 
O=C(CCNC(=O)c1ccc(Br)o1)NCc1ccccn1

>  <Name>  (132) 
nan

>  <Pocket>  (132) 
nan

>  <ATP_Site>  (132) 
nan

>  <Peripheral>  (132) 
nan

>  <Num_H_Atoms_ProtBoundConf>  (132) 
nan

>  <Num_Resolved_Atoms>  (132) 
nan

>  <Num_Not_Resolved_Atoms>  (132) 
nan

$$$$
CHEMBL1470203
     RDKit          3D

  0  0  0  0  0  0  0  0  0  0999 V3000
M  V30 BEGIN CTAB
M  V30 COUNTS 40 41 0 0 0
M  V30 BEGIN ATOM
M  V30 1 C -1.257472 -5.884341 1.197890 0
M  V30 2 C -0.178519 -4.893936 0.960028 0
M  V30 3 C 0.550731 -4.852872 -0.234993 0
M  V30 4 C 1.548338 -3.924659 -0.440617 0
M  V30 5 C 1.864513 -2.990720 0.542864 0
M  V30 6 S 3.091564 -1.748848 0.415652 0
M  V30 7 O 4.223914 -2.167329 -0.473869 0
M  V30 8 O 3.654033 -1.534237 1.793857 0
M  V30 9 C 2.364096 -0.216186 -0.194984 0
M  V30 10 C 1.313006 0.247498 0.719967 0
M  V30 11 N 0.594225 1.433138 0.454291 0
M  V30 12 C -0.803704 1.251858 0.111303 0
M  V30 13 C -1.823746 2.113737 0.246475 0
M  V30 14 C -1.738738 3.489067 0.796702 0
M  V30 15 C -2.966303 4.276321 0.617783 0
M  V30 16 F -2.768581 5.505761 1.251522 0
M  V30 17 F -3.193734 4.531051 -0.725031 0
M  V30 18 F -4.020291 3.655573 1.223811 0
M  V30 19 N -0.707769 3.984814 1.385970 0
M  V30 20 C 0.600904 3.462080 1.700146 0
M  V30 21 C 1.210309 2.709983 0.522317 0
M  V30 22 C 1.132008 -3.045963 1.721069 0
M  V30 23 C 0.147372 -3.962753 1.922679 0
M  V30 24 H -0.883826 -6.791291 1.718037 0
M  V30 25 H -2.063066 -5.418761 1.782681 0
M  V30 26 H -1.708647 -6.233354 0.241027 0
M  V30 27 H 0.321077 -5.572212 -1.017656 0
M  V30 28 H 2.131049 -3.858924 -1.339060 0
M  V30 29 H 3.193911 0.445569 -0.394535 0
M  V30 30 H 1.924752 -0.455939 -1.187845 0
M  V30 31 H 1.810412 0.396880 1.727457 0
M  V30 32 H 0.592597 -0.574970 0.927206 0
M  V30 33 H -1.084826 0.273108 -0.316134 0
M  V30 34 H -2.773244 1.721328 -0.090361 0
M  V30 35 H 1.248387 4.293321 2.031797 0
M  V30 36 H 0.473424 2.766375 2.550560 0
M  V30 37 H 2.306568 2.716223 0.545186 0
M  V30 38 H 0.939517 3.310750 -0.369974 0
M  V30 39 H 1.343601 -2.332200 2.525988 0
M  V30 40 H -0.404364 -3.973382 2.856620 0
M  V30 END ATOM
M  V30 BEGIN BOND
M  V30 1 1 1 2
M  V30 2 2 2 3
M  V30 3 1 3 4
M  V30 4 2 4 5
M  V30 5 1 5 6
M  V30 6 2 6 7
M  V30 7 2 6 8
M  V30 8 1 6 9
M  V30 9 1 9 10
M  V30 10 1 10 11
M  V30 11 1 11 12
M  V30 12 2 12 13
M  V30 13 1 13 14
M  V30 14 1 14 15
M  V30 15 1 15 16
M  V30 16 1 15 17
M  V30 17 1 15 18
M  V30 18 2 14 19
M  V30 19 1 19 20
M  V30 20 1 20 21
M  V30 21 1 5 22
M  V30 22 2 22 23
M  V30 23 1 23 2
M  V30 24 1 21 11
M  V30 25 1 1 24
M  V30 26 1 1 25
M  V30 27 1 1 26
M  V30 28 1 3 27
M  V30 29 1 4 28
M  V30 30 1 9 29
M  V30 31 1 9 30
M  V30 32 1 10 31
M  V30 33 1 10 32
M  V30 34 1 12 33
M  V30 35 1 13 34
M  V30 36 1 20 35
M  V30 37 1 20 36
M  V30 38 1 21 37
M  V30 39 1 21 38
M  V30 40 1 22 39
M  V30 41 1 23 40
M  V30 END BOND
M  V30 END CTAB
M  END
>  <Dataset>  (133) 
ChEMBL_Kinases

>  <Ligand_Instance>  (133) 
nan

>  <PDB_ID>  (133) 
nan

>  <Standardized_SMILES>  (133) 
Cc1ccc(S(=O)(=O)CCN2C=CC(C(F)(F)F)=NCC2)cc1

>  <Name>  (133) 
nan

>  <Pocket>  (133) 
nan

>  <ATP_Site>  (133) 
nan

>  <Peripheral>  (133) 
nan

>  <Num_H_Atoms_ProtBoundConf>  (133) 
nan

>  <Num_Resolved_Atoms>  (133) 
nan

>  <Num_Not_Resolved_Atoms>  (133) 
nan

$$$$
CHEMBL1470084
     RDKit          3D

  0  0  0  0  0  0  0  0  0  0999 V3000
M  V30 BEGIN CTAB
M  V30 COUNTS 47 50 0 0 0
M  V30 BEGIN ATOM
M  V30 1 C 2.844359 -4.272274 3.359957 0
M  V30 2 C 3.150536 -3.854720 1.969911 0
M  V30 3 C 3.850992 -4.730947 1.138486 0
M  V30 4 C 4.141885 -4.354391 -0.155004 0
M  V30 5 C 3.739103 -3.111308 -0.623289 0
M  V30 6 C 3.043495 -2.263107 0.230611 0
M  V30 7 N 2.561097 -0.972309 -0.072299 0
M  V30 8 C 1.297115 -0.587666 -0.612208 0
M  V30 9 O 0.635634 -1.667368 -0.786486 0
M  V30 10 C 1.154860 0.896760 -0.794758 0
M  V30 11 C 1.292130 1.648926 0.469673 0
M  V30 12 C 0.105341 2.378185 0.985345 0
M  V30 13 N -0.998677 2.540253 0.149893 0
M  V30 14 S -2.542442 2.499810 0.728698 0
M  V30 15 O -3.536840 2.825686 -0.374498 0
M  V30 16 O -2.787193 3.577555 1.777196 0
M  V30 17 C -2.994800 1.000433 1.452994 0
M  V30 18 C -2.033376 -0.004355 1.398616 0
M  V30 19 C -2.280764 -1.233573 1.925265 0
M  V30 20 C -3.482406 -1.504984 2.519347 0
M  V30 21 C -4.427924 -0.527015 2.576056 0
M  V30 22 N -5.780412 -0.528874 3.140414 0
M  V30 23 S -6.494678 0.918446 2.939536 0
M  V30 24 N -5.138003 1.807562 2.067758 0
M  V30 25 C -4.224423 0.706657 2.066244 0
M  V30 26 C -0.783797 2.436936 -1.250462 0
M  V30 27 C -0.020446 1.203745 -1.652845 0
M  V30 28 N 2.764822 -2.639966 1.490032 0
M  V30 29 H 2.778725 -3.379925 4.027394 0
M  V30 30 H 3.647813 -4.926164 3.771068 0
M  V30 31 H 1.861737 -4.778276 3.419449 0
M  V30 32 H 4.172701 -5.700118 1.482037 0
M  V30 33 H 4.684372 -4.986463 -0.859312 0
M  V30 34 H 3.919330 -2.719219 -1.628211 0
M  V30 35 H 3.363809 -0.329023 0.195489 0
M  V30 36 H 2.053497 1.140527 -1.440920 0
M  V30 37 H 1.660150 0.900422 1.242841 0
M  V30 38 H 2.162560 2.365518 0.369755 0
M  V30 39 H -0.215255 1.978404 1.994234 0
M  V30 40 H 0.440755 3.430118 1.270125 0
M  V30 41 H -1.043549 0.020096 0.970819 0
M  V30 42 H -1.602616 -2.096422 1.940119 0
M  V30 43 H -3.806112 -2.419111 2.969165 0
M  V30 44 H -1.765905 2.416225 -1.765324 0
M  V30 45 H -0.263698 3.352860 -1.599667 0
M  V30 46 H -0.719063 0.320772 -1.563461 0
M  V30 47 H 0.205647 1.277412 -2.738190 0
M  V30 END ATOM
M  V30 BEGIN BOND
M  V30 1 1 1 2
M  V30 2 2 2 3
M  V30 3 1 3 4
M  V30 4 2 4 5
M  V30 5 1 5 6
M  V30 6 1 6 7
M  V30 7 1 7 8
M  V30 8 2 8 9
M  V30 9 1 8 10
M  V30 10 1 10 11
M  V30 11 1 11 12
M  V30 12 1 12 13
M  V30 13 1 13 14
M  V30 14 2 14 15
M  V30 15 2 14 16
M  V30 16 1 14 17
M  V30 17 2 17 18
M  V30 18 1 18 19
M  V30 19 2 19 20
M  V30 20 1 20 21
M  V30 21 2 21 22
M  V30 22 1 22 23
M  V30 23 1 23 24
M  V30 24 2 24 25
M  V30 25 1 13 26
M  V30 26 1 26 27
M  V30 27 2 6 28
M  V30 28 1 28 2
M  V30 29 1 27 10
M  V30 30 1 25 17
M  V30 31 1 25 21
M  V30 32 1 1 29
M  V30 33 1 1 30
M  V30 34 1 1 31
M  V30 35 1 3 32
M  V30 36 1 4 33
M  V30 37 1 5 34
M  V30 38 1 7 35
M  V30 39 1 10 36
M  V30 40 1 11 37
M  V30 41 1 11 38
M  V30 42 1 12 39
M  V30 43 1 12 40
M  V30 44 1 18 41
M  V30 45 1 19 42
M  V30 46 1 20 43
M  V30 47 1 26 44
M  V30 48 1 26 45
M  V30 49 1 27 46
M  V30 50 1 27 47
M  V30 END BOND
M  V30 END CTAB
M  END
>  <Dataset>  (134) 
ChEMBL_Kinases

>  <Ligand_Instance>  (134) 
nan

>  <PDB_ID>  (134) 
nan

>  <Standardized_SMILES>  (134) 
Cc1cccc(NC(=O)C2CCN(S(=O)(=O)c3cccc4nsnc34)CC2)n1

>  <Name>  (134) 
nan

>  <Pocket>  (134) 
nan

>  <ATP_Site>  (134) 
nan

>  <Peripheral>  (134) 
nan

>  <Num_H_Atoms_ProtBoundConf>  (134) 
nan

>  <Num_Resolved_Atoms>  (134) 
nan

>  <Num_Not_Resolved_Atoms>  (134) 
nan

$$$$
CHEMBL1470045
     RDKit          3D

  0  0  0  0  0  0  0  0  0  0999 V3000
M  V30 BEGIN CTAB
M  V30 COUNTS 37 39 0 0 0
M  V30 BEGIN ATOM
M  V30 1 C 4.156241 -2.262318 -0.044657 0
M  V30 2 O 3.274359 -1.402556 0.632742 0
M  V30 3 C 2.417636 -0.616176 -0.127586 0
M  V30 4 C 2.286863 -0.538886 -1.485300 0
M  V30 5 C 1.375242 0.306370 -2.047619 0
M  V30 6 C 0.534421 1.129016 -1.316245 0
M  V30 7 S -0.631982 2.210348 -2.035769 0
M  V30 8 O -0.605642 1.977872 -3.525069 0
M  V30 9 O -0.337657 3.640656 -1.794210 0
M  V30 10 N -2.226809 1.787374 -1.494543 0
M  V30 11 C -2.532761 0.437644 -1.922518 0
M  V30 12 C -3.886895 0.039754 -1.479229 0
M  V30 13 C -4.248615 -0.584421 -0.283109 0
M  V30 14 C -5.616467 -0.744576 -0.338451 0
M  V30 15 C -6.034758 -0.214343 -1.560681 0
M  V30 16 O -4.974481 0.229150 -2.182340 0
M  V30 17 C 0.683470 1.035064 0.060758 0
M  V30 18 C -0.155904 1.856795 0.804460 0
M  V30 19 C -0.094444 1.845683 2.174175 0
M  V30 20 C 0.799591 1.018662 2.781932 0
M  V30 21 C 1.619218 0.215342 2.028885 0
M  V30 22 C 1.600126 0.186602 0.668831 0
M  V30 23 H 4.493841 -3.054718 0.658051 0
M  V30 24 H 5.069375 -1.737368 -0.385728 0
M  V30 25 H 3.653330 -2.725745 -0.893098 0
M  V30 26 H 2.946606 -1.183182 -2.025690 0
M  V30 27 H 1.306146 0.334434 -3.135534 0
M  V30 28 H -2.897939 2.440413 -1.972370 0
M  V30 29 H -2.493029 0.386500 -3.041087 0
M  V30 30 H -1.791822 -0.270822 -1.518962 0
M  V30 31 H -3.582405 -0.879370 0.519960 0
M  V30 32 H -6.157803 -1.218779 0.494522 0
M  V30 33 H -7.084732 -0.222430 -1.842152 0
M  V30 34 H -0.871574 2.519586 0.339204 0
M  V30 35 H -0.723472 2.464186 2.810355 0
M  V30 36 H 0.878269 0.981175 3.860129 0
M  V30 37 H 2.316988 -0.428681 2.544974 0
M  V30 END ATOM
M  V30 BEGIN BOND
M  V30 1 1 1 2
M  V30 2 1 2 3
M  V30 3 2 3 4
M  V30 4 1 4 5
M  V30 5 2 5 6
M  V30 6 1 6 7
M  V30 7 2 7 8
M  V30 8 2 7 9
M  V30 9 1 7 10
M  V30 10 1 10 11
M  V30 11 1 11 12
M  V30 12 2 12 13
M  V30 13 1 13 14
M  V30 14 2 14 15
M  V30 15 1 15 16
M  V30 16 1 6 17
M  V30 17 2 17 18
M  V30 18 1 18 19
M  V30 19 2 19 20
M  V30 20 1 20 21
M  V30 21 2 21 22
M  V30 22 1 22 3
M  V30 23 1 16 12
M  V30 24 1 22 17
M  V30 25 1 1 23
M  V30 26 1 1 24
M  V30 27 1 1 25
M  V30 28 1 4 26
M  V30 29 1 5 27
M  V30 30 1 10 28
M  V30 31 1 11 29
M  V30 32 1 11 30
M  V30 33 1 13 31
M  V30 34 1 14 32
M  V30 35 1 15 33
M  V30 36 1 18 34
M  V30 37 1 19 35
M  V30 38 1 20 36
M  V30 39 1 21 37
M  V30 END BOND
M  V30 END CTAB
M  END
>  <Dataset>  (135) 
ChEMBL_Kinases

>  <Ligand_Instance>  (135) 
nan

>  <PDB_ID>  (135) 
nan

>  <Standardized_SMILES>  (135) 
COc1ccc(S(=O)(=O)NCc2ccco2)c2ccccc12

>  <Name>  (135) 
nan

>  <Pocket>  (135) 
nan

>  <ATP_Site>  (135) 
nan

>  <Peripheral>  (135) 
nan

>  <Num_H_Atoms_ProtBoundConf>  (135) 
nan

>  <Num_Resolved_Atoms>  (135) 
nan

>  <Num_Not_Resolved_Atoms>  (135) 
nan

$$$$
CHEMBL1469865
     RDKit          3D

  0  0  0  0  0  0  0  0  0  0999 V3000
M  V30 BEGIN CTAB
M  V30 COUNTS 45 49 0 0 0
M  V30 BEGIN ATOM
M  V30 1 C -1.696763 -0.886821 -0.468326 0
M  V30 2 N -0.739924 -1.322608 0.484554 0
M  V30 3 C 0.115191 -0.440522 1.036306 0
M  V30 4 C 0.526720 0.947690 0.911464 0
M  V30 5 O 1.137306 1.614872 1.784873 0
M  V30 6 N 0.385749 1.888896 -0.138729 0
M  V30 7 C 0.881355 3.199526 0.008369 0
M  V30 8 C 0.105663 4.197609 0.523678 0
M  V30 9 C 0.543533 5.504258 0.689877 0
M  V30 10 C 1.849570 5.764084 0.296504 0
M  V30 11 C 2.675707 4.772693 -0.234812 0
M  V30 12 C 2.181656 3.486833 -0.376274 0
M  V30 13 O 3.906313 5.400724 -0.511808 0
M  V30 14 C 3.674061 6.815600 -0.582791 0
M  V30 15 O 2.581830 6.964812 0.333827 0
M  V30 16 C 0.890597 -1.142760 1.980365 0
M  V30 17 C 0.474452 -2.455410 1.967932 0
M  V30 18 C 0.850299 -3.596379 2.656041 0
M  V30 19 O 1.766255 -3.530526 3.510446 0
M  V30 20 N 0.274989 -4.776728 2.448519 0
M  V30 21 C 0.710522 -5.932743 3.199092 0
M  V30 22 C -0.709488 -4.886574 1.540358 0
M  V30 23 C -1.256079 -6.138924 1.362391 0
M  V30 24 C -2.255486 -6.240869 0.417099 0
M  V30 25 C -2.664968 -5.111076 -0.302653 0
M  V30 26 C -2.074919 -3.904377 -0.068901 0
M  V30 27 C -1.081265 -3.750215 0.857892 0
M  V30 28 C -0.531739 -2.505706 1.024995 0
M  V30 29 H -2.769589 -1.070439 -0.107828 0
M  V30 30 H -1.762227 0.241588 -0.550874 0
M  V30 31 H -1.537170 -1.188946 -1.515213 0
M  V30 32 H -0.071946 1.582153 -1.024798 0
M  V30 33 H -0.909216 4.014607 0.833968 0
M  V30 34 H -0.085726 6.281915 1.100100 0
M  V30 35 H 2.837482 2.719565 -0.793217 0
M  V30 36 H 3.331468 7.072342 -1.615868 0
M  V30 37 H 4.550119 7.374441 -0.256033 0
M  V30 38 H 1.705317 -0.860331 2.674098 0
M  V30 39 H -0.069731 -6.319251 3.879977 0
M  V30 40 H 1.024956 -6.736253 2.470340 0
M  V30 41 H 1.614213 -5.710145 3.782647 0
M  V30 42 H -0.923894 -6.996927 1.929367 0
M  V30 43 H -2.691822 -7.218254 0.269159 0
M  V30 44 H -3.454838 -5.334265 -1.010102 0
M  V30 45 H -2.479699 -3.160160 -0.695867 0
M  V30 END ATOM
M  V30 BEGIN BOND
M  V30 1 1 1 2
M  V30 2 1 2 3
M  V30 3 1 3 4
M  V30 4 2 4 5
M  V30 5 1 4 6
M  V30 6 1 6 7
M  V30 7 2 7 8
M  V30 8 1 8 9
M  V30 9 2 9 10
M  V30 10 1 10 11
M  V30 11 2 11 12
M  V30 12 1 11 13
M  V30 13 1 13 14
M  V30 14 1 14 15
M  V30 15 2 3 16
M  V30 16 1 16 17
M  V30 17 1 17 18
M  V30 18 2 18 19
M  V30 19 1 18 20
M  V30 20 1 20 21
M  V30 21 1 20 22
M  V30 22 2 22 23
M  V30 23 1 23 24
M  V30 24 2 24 25
M  V30 25 1 25 26
M  V30 26 2 26 27
M  V30 27 1 27 28
M  V30 28 1 28 2
M  V30 29 1 12 7
M  V30 30 2 28 17
M  V30 31 1 15 10
M  V30 32 1 27 22
M  V30 33 1 1 29
M  V30 34 1 1 30
M  V30 35 1 1 31
M  V30 36 1 6 32
M  V30 37 1 8 33
M  V30 38 1 9 34
M  V30 39 1 12 35
M  V30 40 1 14 36
M  V30 41 1 14 37
M  V30 42 1 16 38
M  V30 43 1 21 39
M  V30 44 1 21 40
M  V30 45 1 21 41
M  V30 46 1 23 42
M  V30 47 1 24 43
M  V30 48 1 25 44
M  V30 49 1 26 45
M  V30 END BOND
M  V30 END CTAB
M  END
>  <Dataset>  (136) 
ChEMBL_Kinases

>  <Ligand_Instance>  (136) 
nan

>  <PDB_ID>  (136) 
nan

>  <Standardized_SMILES>  (136) 
Cn1c(C(=O)Nc2ccc3c(c2)OCO3)cc2c(=O)n(C)c3ccccc3c21

>  <Name>  (136) 
nan

>  <Pocket>  (136) 
nan

>  <ATP_Site>  (136) 
nan

>  <Peripheral>  (136) 
nan

>  <Num_H_Atoms_ProtBoundConf>  (136) 
nan

>  <Num_Resolved_Atoms>  (136) 
nan

>  <Num_Not_Resolved_Atoms>  (136) 
nan

$$$$
CHEMBL1469822
     RDKit          3D

  0  0  0  0  0  0  0  0  0  0999 V3000
M  V30 BEGIN CTAB
M  V30 COUNTS 54 57 0 0 0
M  V30 BEGIN ATOM
M  V30 1 C -1.523596 -1.295459 4.679315 0
M  V30 2 C -0.225639 -0.534528 4.612190 0
M  V30 3 O 0.598369 -1.044198 3.580282 0
M  V30 4 C 1.829509 -0.465280 3.368957 0
M  V30 5 O 2.321681 0.513660 4.025610 0
M  V30 6 N 2.678967 -0.957206 2.338491 0
M  V30 7 C 3.980950 -0.370090 2.082392 0
M  V30 8 C 3.982958 0.228679 0.674119 0
M  V30 9 N 3.402799 -0.679890 -0.219983 0
M  V30 10 C 2.598419 -0.211618 -1.276909 0
M  V30 11 C 1.340226 0.380003 -0.760418 0
M  V30 12 O 0.798535 0.577297 0.355731 0
M  V30 13 N 0.414932 0.903413 -1.738117 0
M  V30 14 C -0.752339 1.446633 -1.148400 0
M  V30 15 C -0.991750 2.748401 -0.701131 0
M  V30 16 C -2.292950 2.805912 -0.195363 0
M  V30 17 C -2.852800 4.070123 0.362471 0
M  V30 18 N -2.802099 1.560546 -0.345550 0
M  V30 19 N -1.878282 0.803411 -0.901345 0
M  V30 20 C -2.248750 -0.577951 -1.145483 0
M  V30 21 N -3.136466 -1.321417 -1.016640 0
M  V30 22 C -3.183452 -2.598485 -1.358010 0
M  V30 23 C -4.237076 -3.477761 -1.205601 0
M  V30 24 C -4.093526 -4.781392 -1.628581 0
M  V30 25 C -2.957784 -5.305077 -2.208995 0
M  V30 26 C -1.885950 -4.454812 -2.376340 0
M  V30 27 C -2.037723 -3.149802 -1.949490 0
M  V30 28 S -0.922272 -1.668408 -1.957271 0
M  V30 29 C 3.053511 -1.974215 0.208639 0
M  V30 30 C 2.279421 -2.065859 1.499006 0
M  V30 31 H -1.399867 -2.393905 4.536231 0
M  V30 32 H -2.248652 -0.924147 3.916246 0
M  V30 33 H -1.966135 -1.127935 5.697204 0
M  V30 34 H 0.294531 -0.660029 5.582096 0
M  V30 35 H -0.470287 0.515637 4.358422 0
M  V30 36 H 4.742412 -1.168575 2.168725 0
M  V30 37 H 4.180337 0.418277 2.840659 0
M  V30 38 H 5.056264 0.369928 0.418595 0
M  V30 39 H 3.462561 1.204480 0.770295 0
M  V30 40 H 3.113354 0.466815 -1.988496 0
M  V30 41 H 2.291789 -1.104637 -1.891945 0
M  V30 42 H 0.547083 0.904810 -2.785266 0
M  V30 43 H -0.280125 3.559551 -0.746020 0
M  V30 44 H -2.427598 4.275938 1.366048 0
M  V30 45 H -2.658335 4.920678 -0.296014 0
M  V30 46 H -3.938239 3.923651 0.493508 0
M  V30 47 H -5.201165 -3.239269 -0.771030 0
M  V30 48 H -4.912753 -5.498686 -1.519297 0
M  V30 49 H -2.788561 -6.309600 -2.557343 0
M  V30 50 H -0.916166 -4.669889 -2.805780 0
M  V30 51 H 2.448948 -2.506124 -0.584042 0
M  V30 52 H 4.019631 -2.555183 0.315456 0
M  V30 53 H 2.492087 -3.035119 2.005025 0
M  V30 54 H 1.192021 -1.994748 1.231845 0
M  V30 END ATOM
M  V30 BEGIN BOND
M  V30 1 1 1 2
M  V30 2 1 2 3
M  V30 3 1 3 4
M  V30 4 2 4 5
M  V30 5 1 4 6
M  V30 6 1 6 7
M  V30 7 1 7 8
M  V30 8 1 8 9
M  V30 9 1 9 10
M  V30 10 1 10 11
M  V30 11 2 11 12
M  V30 12 1 11 13
M  V30 13 1 13 14
M  V30 14 2 14 15
M  V30 15 1 15 16
M  V30 16 1 16 17
M  V30 17 2 16 18
M  V30 18 1 18 19
M  V30 19 1 19 20
M  V30 20 2 20 21
M  V30 21 1 21 22
M  V30 22 2 22 23
M  V30 23 1 23 24
M  V30 24 2 24 25
M  V30 25 1 25 26
M  V30 26 2 26 27
M  V30 27 1 27 28
M  V30 28 1 9 29
M  V30 29 1 29 30
M  V30 30 1 30 6
M  V30 31 1 19 14
M  V30 32 1 28 20
M  V30 33 1 27 22
M  V30 34 1 1 31
M  V30 35 1 1 32
M  V30 36 1 1 33
M  V30 37 1 2 34
M  V30 38 1 2 35
M  V30 39 1 7 36
M  V30 40 1 7 37
M  V30 41 1 8 38
M  V30 42 1 8 39
M  V30 43 1 10 40
M  V30 44 1 10 41
M  V30 45 1 13 42
M  V30 46 1 15 43
M  V30 47 1 17 44
M  V30 48 1 17 45
M  V30 49 1 17 46
M  V30 50 1 23 47
M  V30 51 1 24 48
M  V30 52 1 25 49
M  V30 53 1 26 50
M  V30 54 1 29 51
M  V30 55 1 29 52
M  V30 56 1 30 53
M  V30 57 1 30 54
M  V30 END BOND
M  V30 END CTAB
M  END
>  <Dataset>  (137) 
ChEMBL_Kinases

>  <Ligand_Instance>  (137) 
nan

>  <PDB_ID>  (137) 
nan

>  <Standardized_SMILES>  (137) 
CCOC(=O)N1CCN(CC(=O)Nc2cc(C)nn2-c2nc3ccccc3s2)CC1

>  <Name>  (137) 
nan

>  <Pocket>  (137) 
nan

>  <ATP_Site>  (137) 
nan

>  <Peripheral>  (137) 
nan

>  <Num_H_Atoms_ProtBoundConf>  (137) 
nan

>  <Num_Resolved_Atoms>  (137) 
nan

>  <Num_Not_Resolved_Atoms>  (137) 
nan

$$$$
CHEMBL1469753
     RDKit          3D

  0  0  0  0  0  0  0  0  0  0999 V3000
M  V30 BEGIN CTAB
M  V30 COUNTS 28 28 0 0 0
M  V30 BEGIN ATOM
M  V30 1 C -0.030607 -0.566355 4.016935 0
M  V30 2 C -0.871685 -0.849337 2.802213 0
M  V30 3 C -1.709644 -2.082592 3.100743 0
M  V30 4 C -1.818974 0.300820 2.557764 0
M  V30 5 C -0.110654 -1.095055 1.597224 0
M  V30 6 C 0.374848 -2.288868 1.091990 0
M  V30 7 C 1.081218 -2.295911 -0.082606 0
M  V30 8 C 1.260919 -1.045873 -0.699488 0
M  V30 9 C 1.930514 -0.639712 -1.917842 0
M  V30 10 C 1.945124 0.635016 -2.265992 0
M  V30 11 C 2.640166 0.963567 -3.507016 0
M  V30 12 O 3.182250 0.058019 -4.179794 0
M  V30 13 O 2.691372 2.299348 -3.931633 0
M  V30 14 S 0.414018 0.151482 0.406730 0
M  V30 15 H -0.648794 -0.189468 4.843743 0
M  V30 16 H 0.800239 0.120836 3.757193 0
M  V30 17 H 0.399963 -1.549165 4.334300 0
M  V30 18 H -0.995864 -2.920457 3.283050 0
M  V30 19 H -2.315821 -1.894627 4.003295 0
M  V30 20 H -2.360992 -2.307133 2.226322 0
M  V30 21 H -1.322521 1.179082 2.096300 0
M  V30 22 H -2.685477 0.036078 1.935828 0
M  V30 23 H -2.155706 0.635677 3.558563 0
M  V30 24 H 0.185654 -3.203467 1.639432 0
M  V30 25 H 1.501636 -3.164031 -0.562202 0
M  V30 26 H 2.370531 -1.474681 -2.438545 0
M  V30 27 H 1.471205 1.402685 -1.671719 0
M  V30 28 H 2.982691 2.531136 -4.892178 0
M  V30 END ATOM
M  V30 BEGIN BOND
M  V30 1 1 1 2
M  V30 2 1 2 3
M  V30 3 1 2 4
M  V30 4 1 2 5
M  V30 5 2 5 6
M  V30 6 1 6 7
M  V30 7 2 7 8
M  V30 8 1 8 9
M  V30 9 2 9 10
M  V30 10 1 10 11
M  V30 11 2 11 12
M  V30 12 1 11 13
M  V30 13 1 8 14
M  V30 14 1 14 5
M  V30 15 1 1 15
M  V30 16 1 1 16
M  V30 17 1 1 17
M  V30 18 1 3 18
M  V30 19 1 3 19
M  V30 20 1 3 20
M  V30 21 1 4 21
M  V30 22 1 4 22
M  V30 23 1 4 23
M  V30 24 1 6 24
M  V30 25 1 7 25
M  V30 26 1 9 26
M  V30 27 1 10 27
M  V30 28 1 13 28
M  V30 END BOND
M  V30 END CTAB
M  END
>  <Dataset>  (138) 
ChEMBL_Kinases

>  <Ligand_Instance>  (138) 
nan

>  <PDB_ID>  (138) 
nan

>  <Standardized_SMILES>  (138) 
CC(C)(C)c1ccc(/C=C/C(=O)O)s1

>  <Name>  (138) 
nan

>  <Pocket>  (138) 
nan

>  <ATP_Site>  (138) 
nan

>  <Peripheral>  (138) 
nan

>  <Num_H_Atoms_ProtBoundConf>  (138) 
nan

>  <Num_Resolved_Atoms>  (138) 
nan

>  <Num_Not_Resolved_Atoms>  (138) 
nan

$$$$
CHEMBL1469710
     RDKit          3D

  0  0  0  0  0  0  0  0  0  0999 V3000
M  V30 BEGIN CTAB
M  V30 COUNTS 57 61 0 0 0
M  V30 BEGIN ATOM
M  V30 1 O 3.409789 0.850723 0.729082 0
M  V30 2 C 2.953461 -0.177774 0.149541 0
M  V30 3 N 3.531294 -1.464348 0.205900 0
M  V30 4 C 4.748891 -1.676797 0.978136 0
M  V30 5 C 4.420287 -1.294557 2.388891 0
M  V30 6 C 3.918849 -2.099317 3.397465 0
M  V30 7 C 3.750206 -1.366787 4.561066 0
M  V30 8 C 4.173081 -0.105981 4.191440 0
M  V30 9 O 4.550915 -0.104211 2.934414 0
M  V30 10 C 1.736668 0.229240 -0.569143 0
M  V30 11 C 1.471279 1.718823 -0.328955 0
M  V30 12 C -0.000843 1.977538 -0.611209 0
M  V30 13 N -0.379169 1.055468 -1.686114 0
M  V30 14 C -1.547858 0.291683 -1.963629 0
M  V30 15 O -1.657799 -0.460350 -2.987555 0
M  V30 16 C -2.731002 0.296557 -1.103030 0
M  V30 17 C -3.111214 1.505044 -0.608422 0
M  V30 18 C -4.238665 1.227359 0.166379 0
M  V30 19 S -5.483461 1.940712 1.204185 0
M  V30 20 C -6.329762 0.351090 1.537226 0
M  V30 21 C -5.581742 -0.616553 0.816922 0
M  V30 22 C -4.509473 -0.116585 0.123582 0
M  V30 23 N -3.564497 -0.668357 -0.666023 0
M  V30 24 C -3.364317 -2.070324 -1.067582 0
M  V30 25 C -2.484239 -2.799510 -0.129372 0
M  V30 26 C -1.126013 -2.900215 -0.353874 0
M  V30 27 C -0.231070 -3.559983 0.465446 0
M  V30 28 C -0.789042 -4.146553 1.582255 0
M  V30 29 Cl 0.245673 -5.014323 2.702584 0
M  V30 30 C -2.138239 -4.096462 1.888435 0
M  V30 31 C -2.976076 -3.409100 1.006274 0
M  V30 32 C 0.714324 0.923248 -2.654373 0
M  V30 33 C 1.829869 0.063648 -2.069423 0
M  V30 34 H 3.004519 -2.187100 -0.341860 0
M  V30 35 H 5.512111 -0.982032 0.569688 0
M  V30 36 H 5.061152 -2.731018 0.953706 0
M  V30 37 H 3.690594 -3.159122 3.278710 0
M  V30 38 H 3.380281 -1.689780 5.530420 0
M  V30 39 H 4.206135 0.790627 4.818712 0
M  V30 40 H 0.833580 -0.297157 -0.209678 0
M  V30 41 H 1.755513 2.024872 0.697180 0
M  V30 42 H 2.038141 2.280380 -1.107971 0
M  V30 43 H -0.640466 1.880946 0.269064 0
M  V30 44 H -0.144078 3.018940 -1.015071 0
M  V30 45 H -2.741404 2.524700 -0.695254 0
M  V30 46 H -7.233748 0.182173 2.165480 0
M  V30 47 H -5.951698 -1.626987 0.907310 0
M  V30 48 H -4.381497 -2.517863 -1.054179 0
M  V30 49 H -2.997434 -2.130543 -2.086866 0
M  V30 50 H -0.736524 -2.412865 -1.252482 0
M  V30 51 H 0.822500 -3.619670 0.268687 0
M  V30 52 H -2.547921 -4.566662 2.775003 0
M  V30 53 H -4.039428 -3.360650 1.227454 0
M  V30 54 H 1.124705 1.922014 -2.890250 0
M  V30 55 H 0.343512 0.521376 -3.627207 0
M  V30 56 H 1.663753 -1.012626 -2.292322 0
M  V30 57 H 2.829609 0.351253 -2.427701 0
M  V30 END ATOM
M  V30 BEGIN BOND
M  V30 1 2 1 2
M  V30 2 1 2 3
M  V30 3 1 3 4
M  V30 4 1 4 5
M  V30 5 2 5 6
M  V30 6 1 6 7
M  V30 7 2 7 8
M  V30 8 1 8 9
M  V30 9 1 2 10
M  V30 10 1 10 11
M  V30 11 1 11 12
M  V30 12 1 12 13
M  V30 13 1 13 14
M  V30 14 2 14 15
M  V30 15 1 14 16
M  V30 16 2 16 17
M  V30 17 1 17 18
M  V30 18 1 18 19
M  V30 19 1 19 20
M  V30 20 2 20 21
M  V30 21 1 21 22
M  V30 22 1 22 23
M  V30 23 1 23 24
M  V30 24 1 24 25
M  V30 25 2 25 26
M  V30 26 1 26 27
M  V30 27 2 27 28
M  V30 28 1 28 29
M  V30 29 1 28 30
M  V30 30 2 30 31
M  V30 31 1 13 32
M  V30 32 1 32 33
M  V30 33 1 9 5
M  V30 34 1 33 10
M  V30 35 1 23 16
M  V30 36 1 31 25
M  V30 37 2 22 18
M  V30 38 1 3 34
M  V30 39 1 4 35
M  V30 40 1 4 36
M  V30 41 1 6 37
M  V30 42 1 7 38
M  V30 43 1 8 39
M  V30 44 1 10 40
M  V30 45 1 11 41
M  V30 46 1 11 42
M  V30 47 1 12 43
M  V30 48 1 12 44
M  V30 49 1 17 45
M  V30 50 1 20 46
M  V30 51 1 21 47
M  V30 52 1 24 48
M  V30 53 1 24 49
M  V30 54 1 26 50
M  V30 55 1 27 51
M  V30 56 1 30 52
M  V30 57 1 31 53
M  V30 58 1 32 54
M  V30 59 1 32 55
M  V30 60 1 33 56
M  V30 61 1 33 57
M  V30 END BOND
M  V30 END CTAB
M  END
>  <Dataset>  (139) 
ChEMBL_Kinases

>  <Ligand_Instance>  (139) 
nan

>  <PDB_ID>  (139) 
nan

>  <Standardized_SMILES>  (139) 
O=C(NCc1ccco1)C1CCN(C(=O)c2cc3sccc3n2Cc2ccc(Cl)cc2)CC1

>  <Name>  (139) 
nan

>  <Pocket>  (139) 
nan

>  <ATP_Site>  (139) 
nan

>  <Peripheral>  (139) 
nan

>  <Num_H_Atoms_ProtBoundConf>  (139) 
nan

>  <Num_Resolved_Atoms>  (139) 
nan

>  <Num_Not_Resolved_Atoms>  (139) 
nan

$$$$
CHEMBL1469625
     RDKit          3D

  0  0  0  0  0  0  0  0  0  0999 V3000
M  V30 BEGIN CTAB
M  V30 COUNTS 46 47 0 0 0
M  V30 BEGIN ATOM
M  V30 1 C -3.079081 -4.707566 2.765737 0
M  V30 2 C -2.395625 -5.872767 2.094669 0
M  V30 3 C -0.932862 -5.615434 1.942582 0
M  V30 4 C -0.672999 -4.409186 1.110826 0
M  V30 5 O -1.234231 -3.240917 1.671083 0
M  V30 6 C -1.073018 -2.013927 0.998149 0
M  V30 7 C -0.361655 -2.041242 -0.188281 0
M  V30 8 C -0.202081 -0.840517 -0.849878 0
M  V30 9 C -0.725055 0.359075 -0.364130 0
M  V30 10 S -0.481353 1.842566 -1.259809 0
M  V30 11 O -1.681610 2.746036 -1.173804 0
M  V30 12 O -0.323445 1.441854 -2.712403 0
M  V30 13 N 0.967249 2.663235 -0.788544 0
M  V30 14 C 0.854491 3.010786 0.597892 0
M  V30 15 C 1.964432 3.943613 1.052785 0
M  V30 16 C 3.050693 3.160394 1.749005 0
M  V30 17 C 3.279031 1.865974 0.990573 0
M  V30 18 C 3.372426 2.202868 -0.473745 0
M  V30 19 C 2.075638 1.845211 -1.128506 0
M  V30 20 C -1.429516 0.314457 0.834281 0
M  V30 21 C -1.619560 -0.868010 1.541090 0
M  V30 22 H -3.973789 -5.045498 3.339622 0
M  V30 23 H -2.369588 -4.194021 3.458986 0
M  V30 24 H -3.406139 -4.000875 1.985901 0
M  V30 25 H -2.564815 -6.786117 2.705048 0
M  V30 26 H -2.857852 -6.087783 1.106677 0
M  V30 27 H -0.480394 -6.498250 1.399966 0
M  V30 28 H -0.425441 -5.539077 2.928144 0
M  V30 29 H -1.095709 -4.493754 0.086774 0
M  V30 30 H 0.425384 -4.297428 0.958146 0
M  V30 31 H 0.058526 -2.955411 -0.594830 0
M  V30 32 H 0.345516 -0.825138 -1.775116 0
M  V30 33 H 0.718249 2.159021 1.285433 0
M  V30 34 H -0.087876 3.617407 0.690683 0
M  V30 35 H 2.313150 4.484117 0.147713 0
M  V30 36 H 1.579297 4.736817 1.741109 0
M  V30 37 H 4.016230 3.702544 1.758649 0
M  V30 38 H 2.712168 2.925325 2.766417 0
M  V30 39 H 4.228879 1.380194 1.337444 0
M  V30 40 H 2.491261 1.105174 1.179096 0
M  V30 41 H 4.144165 1.512628 -0.912976 0
M  V30 42 H 3.726090 3.215972 -0.672872 0
M  V30 43 H 1.855037 0.802600 -0.854681 0
M  V30 44 H 2.175099 1.865296 -2.238257 0
M  V30 45 H -1.820139 1.258259 1.181417 0
M  V30 46 H -2.170884 -0.874973 2.469837 0
M  V30 END ATOM
M  V30 BEGIN BOND
M  V30 1 1 1 2
M  V30 2 1 2 3
M  V30 3 1 3 4
M  V30 4 1 4 5
M  V30 5 1 5 6
M  V30 6 2 6 7
M  V30 7 1 7 8
M  V30 8 2 8 9
M  V30 9 1 9 10
M  V30 10 2 10 11
M  V30 11 2 10 12
M  V30 12 1 10 13
M  V30 13 1 13 14
M  V30 14 1 14 15
M  V30 15 1 15 16
M  V30 16 1 16 17
M  V30 17 1 17 18
M  V30 18 1 18 19
M  V30 19 1 9 20
M  V30 20 2 20 21
M  V30 21 1 21 6
M  V30 22 1 19 13
M  V30 23 1 1 22
M  V30 24 1 1 23
M  V30 25 1 1 24
M  V30 26 1 2 25
M  V30 27 1 2 26
M  V30 28 1 3 27
M  V30 29 1 3 28
M  V30 30 1 4 29
M  V30 31 1 4 30
M  V30 32 1 7 31
M  V30 33 1 8 32
M  V30 34 1 14 33
M  V30 35 1 14 34
M  V30 36 1 15 35
M  V30 37 1 15 36
M  V30 38 1 16 37
M  V30 39 1 16 38
M  V30 40 1 17 39
M  V30 41 1 17 40
M  V30 42 1 18 41
M  V30 43 1 18 42
M  V30 44 1 19 43
M  V30 45 1 19 44
M  V30 46 1 20 45
M  V30 47 1 21 46
M  V30 END BOND
M  V30 END CTAB
M  END
>  <Dataset>  (140) 
ChEMBL_Kinases

>  <Ligand_Instance>  (140) 
nan

>  <PDB_ID>  (140) 
nan

>  <Standardized_SMILES>  (140) 
CCCCOc1ccc(S(=O)(=O)N2CCCCCC2)cc1

>  <Name>  (140) 
nan

>  <Pocket>  (140) 
nan

>  <ATP_Site>  (140) 
nan

>  <Peripheral>  (140) 
nan

>  <Num_H_Atoms_ProtBoundConf>  (140) 
nan

>  <Num_Resolved_Atoms>  (140) 
nan

>  <Num_Not_Resolved_Atoms>  (140) 
nan

$$$$
CHEMBL1469425
     RDKit          3D

  0  0  0  0  0  0  0  0  0  0999 V3000
M  V30 BEGIN CTAB
M  V30 COUNTS 52 54 0 0 0
M  V30 BEGIN ATOM
M  V30 1 C -0.082440 0.339945 -0.727804 0
M  V30 2 C -0.015443 -0.353720 0.600785 0
M  V30 3 N -0.080032 0.601430 1.660329 0
M  V30 4 C 0.975715 1.145373 2.263556 0
M  V30 5 C 2.453658 1.120605 2.226183 0
M  V30 6 O 3.116529 2.082722 1.570552 0
M  V30 7 C 3.366996 2.680756 0.436750 0
M  V30 8 C 4.275774 3.721485 0.703466 0
M  V30 9 C 4.764651 4.572326 -0.292029 0
M  V30 10 C 4.319962 4.359801 -1.580385 0
M  V30 11 C 3.433198 3.363231 -1.914156 0
M  V30 12 C 2.881139 3.024474 -3.246529 0
M  V30 13 C 2.996093 2.565451 -0.881702 0
M  V30 14 N 0.427595 1.990014 3.195677 0
M  V30 15 N -0.883418 1.922043 3.118711 0
M  V30 16 C -1.237963 1.050669 2.154926 0
M  V30 17 S -2.948206 0.732011 1.796382 0
M  V30 18 C -3.661846 -0.609250 2.733216 0
M  V30 19 C -3.139901 -1.947471 2.418979 0
M  V30 20 O -2.118201 -2.352597 2.975949 0
M  V30 21 N -3.768293 -2.814594 1.488095 0
M  V30 22 C -3.438239 -4.109582 1.055505 0
M  V30 23 C -4.237896 -4.753607 0.134673 0
M  V30 24 C -3.948657 -6.015512 -0.311428 0
M  V30 25 C -2.853248 -6.738312 0.113687 0
M  V30 26 C -2.051817 -6.091430 1.037116 0
M  V30 27 C -0.884029 -6.826485 1.506127 0
M  V30 28 O -0.649694 -7.983452 1.071494 0
M  V30 29 O 0.059529 -6.400717 2.418928 0
M  V30 30 C -2.352289 -4.830890 1.474427 0
M  V30 31 H -1.054908 0.094490 -1.246185 0
M  V30 32 H 0.714246 -0.061524 -1.385042 0
M  V30 33 H -0.006069 1.446905 -0.598495 0
M  V30 34 H -0.835917 -1.092582 0.737248 0
M  V30 35 H 0.909424 -0.979884 0.676774 0
M  V30 36 H 2.855834 1.101588 3.302537 0
M  V30 37 H 2.730953 0.061904 1.900531 0
M  V30 38 H 4.733097 4.038415 1.649918 0
M  V30 39 H 5.457175 5.391196 -0.199419 0
M  V30 40 H 4.636272 4.962615 -2.418519 0
M  V30 41 H 1.824808 3.339394 -3.353371 0
M  V30 42 H 2.874546 1.914702 -3.389709 0
M  V30 43 H 3.489416 3.459509 -4.083051 0
M  V30 44 H 2.321455 1.760384 -1.018520 0
M  V30 45 H -4.756821 -0.592546 2.544965 0
M  V30 46 H -3.492526 -0.412338 3.825449 0
M  V30 47 H -4.640801 -2.370053 1.063869 0
M  V30 48 H -5.131008 -4.241296 -0.252992 0
M  V30 49 H -4.626105 -6.452163 -1.033581 0
M  V30 50 H -2.723548 -7.717163 -0.301282 0
M  V30 51 H 1.034724 -6.555398 2.182193 0
M  V30 52 H -1.669135 -4.437417 2.178890 0
M  V30 END ATOM
M  V30 BEGIN BOND
M  V30 1 1 1 2
M  V30 2 1 2 3
M  V30 3 1 3 4
M  V30 4 1 4 5
M  V30 5 1 5 6
M  V30 6 1 6 7
M  V30 7 2 7 8
M  V30 8 1 8 9
M  V30 9 2 9 10
M  V30 10 1 10 11
M  V30 11 1 11 12
M  V30 12 2 11 13
M  V30 13 2 4 14
M  V30 14 1 14 15
M  V30 15 2 15 16
M  V30 16 1 16 17
M  V30 17 1 17 18
M  V30 18 1 18 19
M  V30 19 2 19 20
M  V30 20 1 19 21
M  V30 21 1 21 22
M  V30 22 2 22 23
M  V30 23 1 23 24
M  V30 24 2 24 25
M  V30 25 1 25 26
M  V30 26 1 26 27
M  V30 27 2 27 28
M  V30 28 1 27 29
M  V30 29 2 26 30
M  V30 30 1 16 3
M  V30 31 1 30 22
M  V30 32 1 13 7
M  V30 33 1 1 31
M  V30 34 1 1 32
M  V30 35 1 1 33
M  V30 36 1 2 34
M  V30 37 1 2 35
M  V30 38 1 5 36
M  V30 39 1 5 37
M  V30 40 1 8 38
M  V30 41 1 9 39
M  V30 42 1 10 40
M  V30 43 1 12 41
M  V30 44 1 12 42
M  V30 45 1 12 43
M  V30 46 1 13 44
M  V30 47 1 18 45
M  V30 48 1 18 46
M  V30 49 1 21 47
M  V30 50 1 23 48
M  V30 51 1 24 49
M  V30 52 1 25 50
M  V30 53 1 29 51
M  V30 54 1 30 52
M  V30 END BOND
M  V30 END CTAB
M  END
>  <Dataset>  (141) 
ChEMBL_Kinases

>  <Ligand_Instance>  (141) 
nan

>  <PDB_ID>  (141) 
nan

>  <Standardized_SMILES>  (141) 
CCn1c(COc2cccc(C)c2)nnc1SCC(=O)Nc1cccc(C(=O)O)c1

>  <Name>  (141) 
nan

>  <Pocket>  (141) 
nan

>  <ATP_Site>  (141) 
nan

>  <Peripheral>  (141) 
nan

>  <Num_H_Atoms_ProtBoundConf>  (141) 
nan

>  <Num_Resolved_Atoms>  (141) 
nan

>  <Num_Not_Resolved_Atoms>  (141) 
nan

$$$$
CHEMBL1469423
     RDKit          3D

  0  0  0  0  0  0  0  0  0  0999 V3000
M  V30 BEGIN CTAB
M  V30 COUNTS 40 41 0 0 0
M  V30 BEGIN ATOM
M  V30 1 C 0.829447 -3.439714 2.083556 0
M  V30 2 C 2.176531 -2.869748 1.770646 0
M  V30 3 O 2.071346 -1.639290 1.117594 0
M  V30 4 C 1.449663 -1.460176 -0.087865 0
M  V30 5 C 0.848167 -2.455477 -0.825403 0
M  V30 6 C 0.227581 -2.254088 -2.039228 0
M  V30 7 C 0.184652 -0.993538 -2.583451 0
M  V30 8 C -0.461269 -0.749612 -3.859855 0
M  V30 9 C -0.493139 0.622745 -4.427329 0
M  V30 10 O -0.990143 -1.711426 -4.474621 0
M  V30 11 C 0.779805 0.015848 -1.862904 0
M  V30 12 C 1.409163 -0.188838 -0.630808 0
M  V30 13 C 2.014575 1.009615 0.054092 0
M  V30 14 O 1.142421 1.399628 1.101398 0
M  V30 15 C 0.812007 0.579272 2.138469 0
M  V30 16 O 1.122599 1.345673 1.166758 0
M  V30 17 C -0.054840 0.807833 3.276655 0
M  V30 18 C -0.171575 -0.202415 4.123101 0
M  V30 19 O -1.023560 0.164201 5.147267 0
M  V30 20 C -2.158882 0.932350 4.862758 0
M  V30 21 C -1.702783 2.247327 4.284797 0
M  V30 22 O -0.656752 2.053720 3.342451 0
M  V30 23 H -0.007642 -2.808792 1.686328 0
M  V30 24 H 0.696241 -4.472689 1.715219 0
M  V30 25 H 0.688447 -3.483761 3.188348 0
M  V30 26 H 2.738701 -3.579154 1.110839 0
M  V30 27 H 2.751846 -2.759931 2.705404 0
M  V30 28 H 0.852410 -3.460546 -0.449596 0
M  V30 29 H -0.237847 -3.051212 -2.599722 0
M  V30 30 H -0.743168 1.320885 -3.609497 0
M  V30 31 H -1.224740 0.689016 -5.267100 0
M  V30 32 H 0.486643 0.910747 -4.869998 0
M  V30 33 H 0.769774 1.028080 -2.255948 0
M  V30 34 H 2.138232 1.817829 -0.690704 0
M  V30 35 H 3.032979 0.759292 0.464947 0
M  V30 36 H 0.349624 -1.133954 3.967478 0
M  V30 37 H -2.682651 1.189295 5.828082 0
M  V30 38 H -2.889644 0.419866 4.231199 0
M  V30 39 H -1.294279 2.870901 5.102320 0
M  V30 40 H -2.576460 2.681793 3.770149 0
M  V30 END ATOM
M  V30 BEGIN BOND
M  V30 1 1 1 2
M  V30 2 1 2 3
M  V30 3 1 3 4
M  V30 4 2 4 5
M  V30 5 1 5 6
M  V30 6 2 6 7
M  V30 7 1 7 8
M  V30 8 1 8 9
M  V30 9 2 8 10
M  V30 10 1 7 11
M  V30 11 2 11 12
M  V30 12 1 12 13
M  V30 13 1 13 14
M  V30 14 1 14 15
M  V30 15 2 15 16
M  V30 16 1 15 17
M  V30 17 2 17 18
M  V30 18 1 18 19
M  V30 19 1 19 20
M  V30 20 1 20 21
M  V30 21 1 21 22
M  V30 22 1 12 4
M  V30 23 1 22 17
M  V30 24 1 1 23
M  V30 25 1 1 24
M  V30 26 1 1 25
M  V30 27 1 2 26
M  V30 28 1 2 27
M  V30 29 1 5 28
M  V30 30 1 6 29
M  V30 31 1 9 30
M  V30 32 1 9 31
M  V30 33 1 9 32
M  V30 34 1 11 33
M  V30 35 1 13 34
M  V30 36 1 13 35
M  V30 37 1 18 36
M  V30 38 1 20 37
M  V30 39 1 20 38
M  V30 40 1 21 39
M  V30 41 1 21 40
M  V30 END BOND
M  V30 END CTAB
M  END
>  <Dataset>  (142) 
ChEMBL_Kinases

>  <Ligand_Instance>  (142) 
nan

>  <PDB_ID>  (142) 
nan

>  <Standardized_SMILES>  (142) 
CCOc1ccc(C(C)=O)cc1COC(=O)C1=COCCO1

>  <Name>  (142) 
nan

>  <Pocket>  (142) 
nan

>  <ATP_Site>  (142) 
nan

>  <Peripheral>  (142) 
nan

>  <Num_H_Atoms_ProtBoundConf>  (142) 
nan

>  <Num_Resolved_Atoms>  (142) 
nan

>  <Num_Not_Resolved_Atoms>  (142) 
nan

$$$$
CHEMBL1469414
     RDKit          3D

  0  0  0  0  0  0  0  0  0  0999 V3000
M  V30 BEGIN CTAB
M  V30 COUNTS 63 66 0 0 0
M  V30 BEGIN ATOM
M  V30 1 C 2.520616 0.769601 8.032262 0
M  V30 2 O 2.622594 2.058075 7.416630 0
M  V30 3 C 2.772048 2.071316 6.036370 0
M  V30 4 C 2.820081 0.909586 5.295975 0
M  V30 5 C 2.969180 0.951076 3.925957 0
M  V30 6 C 3.077872 2.130466 3.219352 0
M  V30 7 N 3.228424 2.203082 1.816654 0
M  V30 8 C 3.399771 3.386331 1.030871 0
M  V30 9 C 2.249682 3.594240 0.052158 0
M  V30 10 N 1.675207 2.294827 -0.292137 0
M  V30 11 C 0.264347 2.296987 -0.462283 0
M  V30 12 O -0.130709 3.473537 -0.260795 0
M  V30 13 C -0.603271 1.181399 -0.803541 0
M  V30 14 C -1.557696 0.970590 0.196163 0
M  V30 15 C -2.499157 -0.049192 0.083353 0
M  V30 16 C -2.485233 -0.867716 -1.043390 0
M  V30 17 N -3.441448 -1.892820 -1.143534 0
M  V30 18 C -4.717188 -1.600590 -1.787231 0
M  V30 19 S -3.219188 -3.489367 -0.556298 0
M  V30 20 O -4.319812 -3.774995 0.420966 0
M  V30 21 O -1.879393 -3.602759 0.154530 0
M  V30 22 C -3.295266 -4.673756 -1.842244 0
M  V30 23 C -4.483036 -5.283648 -2.234053 0
M  V30 24 C -4.466097 -6.219679 -3.267602 0
M  V30 25 C -3.260867 -6.535562 -3.898154 0
M  V30 26 C -3.345085 -7.548642 -4.992371 0
M  V30 27 C -2.084983 -5.911063 -3.487460 0
M  V30 28 C -2.101506 -4.985291 -2.465341 0
M  V30 29 C -1.534944 -0.642542 -2.017986 0
M  V30 30 C -0.603683 0.364843 -1.908290 0
M  V30 31 C 2.689543 1.251787 -0.389904 0
M  V30 32 C 3.218876 1.005283 1.000853 0
M  V30 33 C 3.025464 3.270695 3.995282 0
M  V30 34 C 2.876928 3.275792 5.371897 0
M  V30 35 H 3.449568 0.224185 7.766936 0
M  V30 36 H 1.684876 0.186113 7.563252 0
M  V30 37 H 2.351121 0.844703 9.113372 0
M  V30 38 H 2.738013 -0.034943 5.816421 0
M  V30 39 H 2.998808 0.016089 3.425013 0
M  V30 40 H 3.560644 4.288364 1.613430 0
M  V30 41 H 4.304031 3.265924 0.365374 0
M  V30 42 H 2.598116 4.031987 -0.907187 0
M  V30 43 H 1.505760 4.303560 0.453017 0
M  V30 44 H -1.668220 1.542847 1.119603 0
M  V30 45 H -3.253934 -0.239734 0.841611 0
M  V30 46 H -5.457888 -1.318771 -0.992031 0
M  V30 47 H -5.005399 -2.475302 -2.372532 0
M  V30 48 H -4.650972 -0.702497 -2.435709 0
M  V30 49 H -5.360164 -4.977177 -1.691095 0
M  V30 50 H -5.434058 -6.639698 -3.502211 0
M  V30 51 H -4.077005 -8.311707 -4.710398 0
M  V30 52 H -2.370240 -8.022930 -5.204649 0
M  V30 53 H -3.699200 -7.095914 -5.943420 0
M  V30 54 H -1.191319 -6.195657 -4.010399 0
M  V30 55 H -1.166600 -4.517963 -2.170915 0
M  V30 56 H -1.489615 -1.253232 -2.905560 0
M  V30 57 H 0.173541 0.618164 -2.612063 0
M  V30 58 H 2.266080 0.302741 -0.768046 0
M  V30 59 H 3.493217 1.649544 -1.039674 0
M  V30 60 H 2.517049 0.256811 1.473410 0
M  V30 61 H 4.212399 0.507532 0.985651 0
M  V30 62 H 3.096990 4.265780 3.584174 0
M  V30 63 H 2.836865 4.166726 5.968259 0
M  V30 END ATOM
M  V30 BEGIN BOND
M  V30 1 1 1 2
M  V30 2 1 2 3
M  V30 3 2 3 4
M  V30 4 1 4 5
M  V30 5 2 5 6
M  V30 6 1 6 7
M  V30 7 1 7 8
M  V30 8 1 8 9
M  V30 9 1 9 10
M  V30 10 1 10 11
M  V30 11 2 11 12
M  V30 12 1 11 13
M  V30 13 2 13 14
M  V30 14 1 14 15
M  V30 15 2 15 16
M  V30 16 1 16 17
M  V30 17 1 17 18
M  V30 18 1 17 19
M  V30 19 2 19 20
M  V30 20 2 19 21
M  V30 21 1 19 22
M  V30 22 2 22 23
M  V30 23 1 23 24
M  V30 24 2 24 25
M  V30 25 1 25 26
M  V30 26 1 25 27
M  V30 27 2 27 28
M  V30 28 1 16 29
M  V30 29 2 29 30
M  V30 30 1 10 31
M  V30 31 1 31 32
M  V30 32 1 6 33
M  V30 33 2 33 34
M  V30 34 1 34 3
M  V30 35 1 32 7
M  V30 36 1 30 13
M  V30 37 1 28 22
M  V30 38 1 1 35
M  V30 39 1 1 36
M  V30 40 1 1 37
M  V30 41 1 4 38
M  V30 42 1 5 39
M  V30 43 1 8 40
M  V30 44 1 8 41
M  V30 45 1 9 42
M  V30 46 1 9 43
M  V30 47 1 14 44
M  V30 48 1 15 45
M  V30 49 1 18 46
M  V30 50 1 18 47
M  V30 51 1 18 48
M  V30 52 1 23 49
M  V30 53 1 24 50
M  V30 54 1 26 51
M  V30 55 1 26 52
M  V30 56 1 26 53
M  V30 57 1 27 54
M  V30 58 1 28 55
M  V30 59 1 29 56
M  V30 60 1 30 57
M  V30 61 1 31 58
M  V30 62 1 31 59
M  V30 63 1 32 60
M  V30 64 1 32 61
M  V30 65 1 33 62
M  V30 66 1 34 63
M  V30 END BOND
M  V30 END CTAB
M  END
>  <Dataset>  (143) 
ChEMBL_Kinases

>  <Ligand_Instance>  (143) 
nan

>  <PDB_ID>  (143) 
nan

>  <Standardized_SMILES>  (143) 
COc1ccc(N2CCN(C(=O)c3ccc(N(C)S(=O)(=O)c4ccc(C)cc4)cc3)CC2)cc1

>  <Name>  (143) 
nan

>  <Pocket>  (143) 
nan

>  <ATP_Site>  (143) 
nan

>  <Peripheral>  (143) 
nan

>  <Num_H_Atoms_ProtBoundConf>  (143) 
nan

>  <Num_Resolved_Atoms>  (143) 
nan

>  <Num_Not_Resolved_Atoms>  (143) 
nan

$$$$
CHEMBL1474286
     RDKit          3D

  0  0  0  0  0  0  0  0  0  0999 V3000
M  V30 BEGIN CTAB
M  V30 COUNTS 56 59 0 0 0
M  V30 BEGIN ATOM
M  V30 1 C 2.957863 1.696261 3.978622 0
M  V30 2 C 3.802053 1.392805 2.782548 0
M  V30 3 C 5.169988 1.573764 2.792152 0
M  V30 4 C 5.835952 2.078807 4.004068 0
M  V30 5 O 6.110768 1.028595 4.629123 0
M  V30 6 O 6.225283 3.240531 4.626554 0
M  V30 7 C 5.976664 1.298445 1.691660 0
M  V30 8 O 7.349729 1.498236 1.753873 0
M  V30 9 C 5.366947 0.818119 0.530148 0
M  V30 10 C 3.989985 0.646506 0.551001 0
M  V30 11 C 3.182705 0.918728 1.642755 0
M  V30 12 C 1.734344 0.699891 1.553723 0
M  V30 13 O 1.017287 0.945213 2.533659 0
M  V30 14 C 1.169709 0.197417 0.311138 0
M  V30 15 C -0.190742 -0.026878 0.173248 0
M  V30 16 O -0.960761 0.258513 1.289118 0
M  V30 17 C -0.771273 -0.504130 -0.990336 0
M  V30 18 O -2.133457 -0.674383 -0.971086 0
M  V30 19 C -2.759071 -1.894051 -0.572334 0 CFG=1
M  V30 20 O -3.565542 -1.589407 0.512487 0
M  V30 21 C -4.433820 -2.575018 0.873245 0
M  V30 22 C -5.815790 -1.957218 1.073549 0
M  V30 23 O -6.278089 -1.351960 -0.093725 0
M  V30 24 C -4.476698 -3.789525 0.018921 0
M  V30 25 O -5.651879 -4.487222 0.366490 0
M  V30 26 C -4.455903 -3.532171 -1.463139 0
M  V30 27 O -5.728137 -3.265930 -1.967372 0
M  V30 28 C -3.521456 -2.388278 -1.758857 0
M  V30 29 O -4.215013 -1.366892 -2.408054 0
M  V30 30 C 0.072088 -0.763198 -2.057578 0
M  V30 31 O -0.514033 -1.236640 -3.208029 0
M  V30 32 C 1.437800 -0.565047 -1.997365 0
M  V30 33 O 2.223235 -0.841482 -3.093125 0
M  V30 34 C 1.950187 -0.086208 -0.803560 0
M  V30 35 C 3.389447 0.142499 -0.682527 0
M  V30 36 O 4.103713 -0.115059 -1.696856 0
M  V30 37 H 3.651737 1.999571 4.812142 0
M  V30 38 H 2.465008 0.767653 4.369231 0
M  V30 39 H 2.255813 2.507220 3.761126 0
M  V30 40 H 5.980119 3.423986 5.580843 0
M  V30 41 H 7.912470 0.982249 1.082314 0
M  V30 42 H 5.968912 0.599834 -0.328237 0
M  V30 43 H -0.902822 -0.376071 2.072527 0
M  V30 44 H -2.018063 -2.667651 -0.287049 0
M  V30 45 H -4.116436 -2.919307 1.897031 0
M  V30 46 H -6.552311 -2.718466 1.451015 0
M  V30 47 H -5.782440 -1.171752 1.855289 0
M  V30 48 H -7.243671 -1.450024 -0.157091 0
M  V30 49 H -3.653480 -4.478010 0.310002 0
M  V30 50 H -5.562643 -5.453584 0.314361 0
M  V30 51 H -4.116593 -4.481447 -1.934069 0
M  V30 52 H -5.872340 -3.749061 -2.819378 0
M  V30 53 H -2.770936 -2.752178 -2.492393 0
M  V30 54 H -4.106741 -1.398085 -3.394898 0
M  V30 55 H -0.725827 -0.624010 -3.979503 0
M  V30 56 H 2.219665 -0.270363 -3.914560 0
M  V30 END ATOM
M  V30 BEGIN BOND
M  V30 1 1 1 2
M  V30 2 2 2 3
M  V30 3 1 3 4
M  V30 4 2 4 5
M  V30 5 1 4 6
M  V30 6 1 3 7
M  V30 7 1 7 8
M  V30 8 2 7 9
M  V30 9 1 9 10
M  V30 10 2 10 11
M  V30 11 1 11 12
M  V30 12 2 12 13
M  V30 13 1 12 14
M  V30 14 2 14 15
M  V30 15 1 15 16
M  V30 16 1 15 17
M  V30 17 1 17 18
M  V30 18 1 18 19
M  V30 19 1 19 20
M  V30 20 1 20 21
M  V30 21 1 21 22
M  V30 22 1 22 23
M  V30 23 1 21 24
M  V30 24 1 24 25
M  V30 25 1 24 26
M  V30 26 1 26 27
M  V30 27 1 26 28
M  V30 28 1 28 29
M  V30 29 2 17 30
M  V30 30 1 30 31
M  V30 31 1 30 32
M  V30 32 1 32 33
M  V30 33 2 32 34
M  V30 34 1 34 35
M  V30 35 2 35 36
M  V30 36 1 11 2
M  V30 37 1 34 14
M  V30 38 1 35 10
M  V30 39 1 28 19
M  V30 40 1 1 37
M  V30 41 1 1 38
M  V30 42 1 1 39
M  V30 43 1 6 40
M  V30 44 1 8 41
M  V30 45 1 9 42
M  V30 46 1 16 43
M  V30 47 1 19 44 CFG=1
M  V30 48 1 21 45
M  V30 49 1 22 46
M  V30 50 1 22 47
M  V30 51 1 23 48
M  V30 52 1 24 49
M  V30 53 1 25 50
M  V30 54 1 26 51
M  V30 55 1 27 52
M  V30 56 1 28 53
M  V30 57 1 29 54
M  V30 58 1 31 55
M  V30 59 1 33 56
M  V30 END BOND
M  V30 END CTAB
M  END
>  <Dataset>  (144) 
ChEMBL_Kinases

>  <Ligand_Instance>  (144) 
nan

>  <PDB_ID>  (144) 
nan

>  <Standardized_SMILES>  (144) 
Cc1c(C(=O)O)c(O)cc2c1C(=O)c1c(O)c(O[C@H]3OC(CO)C(O)C(O)C3O)c(O)c(O)c1C2=O

>  <Name>  (144) 
nan

>  <Pocket>  (144) 
nan

>  <ATP_Site>  (144) 
nan

>  <Peripheral>  (144) 
nan

>  <Num_H_Atoms_ProtBoundConf>  (144) 
nan

>  <Num_Resolved_Atoms>  (144) 
nan

>  <Num_Not_Resolved_Atoms>  (144) 
nan

$$$$
CHEMBL1467864
     RDKit          3D

  0  0  0  0  0  0  0  0  0  0999 V3000
M  V30 BEGIN CTAB
M  V30 COUNTS 48 50 0 0 0
M  V30 BEGIN ATOM
M  V30 1 O 1.707255 -1.973260 1.805210 0
M  V30 2 C 1.941439 -0.919379 1.116743 0
M  V30 3 C 3.121645 -1.191375 0.300253 0
M  V30 4 O 3.537650 -0.128891 -0.532116 0
M  V30 5 C 3.948337 1.094171 -0.066587 0
M  V30 6 O 4.000826 1.394832 1.138169 0
M  V30 7 C 4.347041 2.101750 -1.041257 0
M  V30 8 C 4.327361 1.876185 -2.389194 0
M  V30 9 C 4.708857 2.840502 -3.320311 0
M  V30 10 C 5.132609 4.097398 -2.879588 0
M  V30 11 O 5.490979 4.991093 -3.850897 0
M  V30 12 N 5.152371 4.320360 -1.554126 0
M  V30 13 C 4.775087 3.362780 -0.664340 0
M  V30 14 N 1.067489 0.187480 1.290114 0
M  V30 15 C -0.011979 0.078139 2.210932 0
M  V30 16 C 0.141054 0.439478 3.548744 0
M  V30 17 C -0.934519 0.320820 4.424946 0
M  V30 18 C -2.150060 -0.160265 3.941952 0
M  V30 19 C -2.324812 -0.523240 2.625054 0
M  V30 20 S -3.840203 -1.129366 1.995677 0
M  V30 21 O -3.879972 -0.817154 0.507050 0
M  V30 22 O -5.031953 -0.506772 2.613176 0
M  V30 23 N -3.838552 -2.851416 2.165875 0
M  V30 24 C -2.785480 -3.469843 1.424310 0
M  V30 25 C -3.123574 -4.918170 1.054748 0
M  V30 26 O -4.170692 -4.977947 0.153948 0
M  V30 27 C -5.031424 -3.893373 0.300782 0
M  V30 28 C -5.104521 -3.421046 1.746803 0
M  V30 29 C -1.247196 -0.398674 1.771318 0
M  V30 30 H 3.978550 -1.599861 0.884057 0
M  V30 31 H 2.842699 -2.015203 -0.401122 0
M  V30 32 H 4.002823 0.908381 -2.767843 0
M  V30 33 H 4.673553 2.609807 -4.357324 0
M  V30 34 H 4.862557 5.463767 -4.490994 0
M  V30 35 H 4.801022 3.572051 0.413531 0
M  V30 36 H 1.363610 0.968490 0.671490 0
M  V30 37 H 1.099879 0.805583 3.872938 0
M  V30 38 H -0.818206 0.600555 5.463397 0
M  V30 39 H -2.997295 -0.254502 4.628886 0
M  V30 40 H -2.486127 -2.897993 0.517390 0
M  V30 41 H -1.836529 -3.570678 2.025941 0
M  V30 42 H -3.309005 -5.439304 2.007773 0
M  V30 43 H -2.199774 -5.334485 0.595595 0
M  V30 44 H -4.593840 -3.065646 -0.300952 0
M  V30 45 H -6.032013 -4.182182 -0.019101 0
M  V30 46 H -5.332706 -4.271571 2.417089 0
M  V30 47 H -5.855934 -2.614756 1.771693 0
M  V30 48 H -1.344302 -0.674482 0.724894 0
M  V30 END ATOM
M  V30 BEGIN BOND
M  V30 1 2 1 2
M  V30 2 1 2 3
M  V30 3 1 3 4
M  V30 4 1 4 5
M  V30 5 2 5 6
M  V30 6 1 5 7
M  V30 7 2 7 8
M  V30 8 1 8 9
M  V30 9 2 9 10
M  V30 10 1 10 11
M  V30 11 1 10 12
M  V30 12 2 12 13
M  V30 13 1 2 14
M  V30 14 1 14 15
M  V30 15 2 15 16
M  V30 16 1 16 17
M  V30 17 2 17 18
M  V30 18 1 18 19
M  V30 19 1 19 20
M  V30 20 2 20 21
M  V30 21 2 20 22
M  V30 22 1 20 23
M  V30 23 1 23 24
M  V30 24 1 24 25
M  V30 25 1 25 26
M  V30 26 1 26 27
M  V30 27 1 27 28
M  V30 28 2 19 29
M  V30 29 1 13 7
M  V30 30 1 29 15
M  V30 31 1 28 23
M  V30 32 1 3 30
M  V30 33 1 3 31
M  V30 34 1 8 32
M  V30 35 1 9 33
M  V30 36 1 11 34
M  V30 37 1 13 35
M  V30 38 1 14 36
M  V30 39 1 16 37
M  V30 40 1 17 38
M  V30 41 1 18 39
M  V30 42 1 24 40
M  V30 43 1 24 41
M  V30 44 1 25 42
M  V30 45 1 25 43
M  V30 46 1 27 44
M  V30 47 1 27 45
M  V30 48 1 28 46
M  V30 49 1 28 47
M  V30 50 1 29 48
M  V30 END BOND
M  V30 END CTAB
M  END
>  <Dataset>  (145) 
ChEMBL_Kinases

>  <Ligand_Instance>  (145) 
nan

>  <PDB_ID>  (145) 
nan

>  <Standardized_SMILES>  (145) 
O=C(COC(=O)c1ccc(O)nc1)Nc1cccc(S(=O)(=O)N2CCOCC2)c1

>  <Name>  (145) 
nan

>  <Pocket>  (145) 
nan

>  <ATP_Site>  (145) 
nan

>  <Peripheral>  (145) 
nan

>  <Num_H_Atoms_ProtBoundConf>  (145) 
nan

>  <Num_Resolved_Atoms>  (145) 
nan

>  <Num_Not_Resolved_Atoms>  (145) 
nan

$$$$
CHEMBL1467999
     RDKit          3D

  0  0  0  0  0  0  0  0  0  0999 V3000
M  V30 BEGIN CTAB
M  V30 COUNTS 55 58 0 0 0
M  V30 BEGIN ATOM
M  V30 1 C -0.842059 -5.654952 2.627479 0
M  V30 2 O -0.208438 -5.016454 1.538943 0
M  V30 3 C 0.806038 -4.086573 1.671516 0
M  V30 4 C 1.287669 -3.703671 2.905391 0
M  V30 5 C 2.304382 -2.772197 3.067387 0
M  V30 6 C 2.832939 -2.225846 1.919885 0
M  V30 7 C 3.923695 -1.199277 1.755716 0
M  V30 8 C 3.304616 0.172858 1.730179 0
M  V30 9 O 2.698478 0.595363 2.745950 0
M  V30 10 N 3.404535 0.982235 0.559737 0
M  V30 11 C 2.733556 2.237040 0.793459 0
M  V30 12 C 3.289042 3.417859 1.240147 0
M  V30 13 C 2.424661 4.505478 1.404526 0
M  V30 14 C 1.076855 4.419217 1.137571 0
M  V30 15 C 0.518598 3.224157 0.686646 0
M  V30 16 C -0.903405 3.119455 0.409156 0
M  V30 17 N -1.884676 4.029796 0.480397 0
M  V30 18 N -3.042153 3.451631 0.122460 0
M  V30 19 C -2.780174 2.186910 -0.169410 0
M  V30 20 C -3.656289 1.099133 -0.613205 0
M  V30 21 C -5.007312 1.323625 -0.782798 0
M  V30 22 C -5.805042 0.276411 -1.197796 0
M  V30 23 C -5.289695 -0.992205 -1.448821 0
M  V30 24 C -3.943615 -1.218388 -1.280863 0
M  V30 25 C -3.286824 -2.536458 -1.521290 0
M  V30 26 C -3.156659 -0.168070 -0.866697 0
M  V30 27 O -1.494041 2.026601 0.013085 0
M  V30 28 C 1.364341 2.162565 0.525930 0
M  V30 29 C 2.358487 -2.601028 0.656297 0
M  V30 30 C 1.335917 -3.539061 0.522025 0
M  V30 31 O 0.840504 -3.935965 -0.695683 0
M  V30 32 C 1.261438 -3.484160 -1.946347 0
M  V30 33 H -0.088067 -6.373460 3.056033 0
M  V30 34 H -1.148917 -4.986557 3.439421 0
M  V30 35 H -1.717954 -6.257237 2.297667 0
M  V30 36 H 0.896631 -4.109265 3.823491 0
M  V30 37 H 2.751233 -2.401471 3.956325 0
M  V30 38 H 4.567410 -1.196384 2.680925 0
M  V30 39 H 4.577514 -1.395348 0.908778 0
M  V30 40 H 3.917778 0.583910 -0.263764 0
M  V30 41 H 4.333725 3.377312 1.419615 0
M  V30 42 H 2.888557 5.415120 1.752079 0
M  V30 43 H 0.460413 5.293935 1.283855 0
M  V30 44 H -5.447767 2.305316 -0.594048 0
M  V30 45 H -6.865632 0.415808 -1.341484 0
M  V30 46 H -5.862847 -1.847324 -1.774883 0
M  V30 47 H -2.185583 -2.410949 -1.673688 0
M  V30 48 H -3.755235 -3.013778 -2.388826 0
M  V30 49 H -3.412646 -3.196622 -0.617071 0
M  V30 50 H -2.084209 -0.343341 -0.731466 0
M  V30 51 H 0.888885 1.252851 0.170524 0
M  V30 52 H 2.709905 -2.227018 -0.310062 0
M  V30 53 H 0.456018 -3.681269 -2.710966 0
M  V30 54 H 2.221553 -3.875198 -2.303463 0
M  V30 55 H 1.378948 -2.365993 -1.962717 0
M  V30 END ATOM
M  V30 BEGIN BOND
M  V30 1 1 1 2
M  V30 2 1 2 3
M  V30 3 2 3 4
M  V30 4 1 4 5
M  V30 5 2 5 6
M  V30 6 1 6 7
M  V30 7 1 7 8
M  V30 8 2 8 9
M  V30 9 1 8 10
M  V30 10 1 10 11
M  V30 11 2 11 12
M  V30 12 1 12 13
M  V30 13 2 13 14
M  V30 14 1 14 15
M  V30 15 1 15 16
M  V30 16 2 16 17
M  V30 17 1 17 18
M  V30 18 2 18 19
M  V30 19 1 19 20
M  V30 20 2 20 21
M  V30 21 1 21 22
M  V30 22 2 22 23
M  V30 23 1 23 24
M  V30 24 1 24 25
M  V30 25 2 24 26
M  V30 26 1 19 27
M  V30 27 2 15 28
M  V30 28 1 6 29
M  V30 29 2 29 30
M  V30 30 1 30 31
M  V30 31 1 31 32
M  V30 32 1 30 3
M  V30 33 1 28 11
M  V30 34 1 27 16
M  V30 35 1 26 20
M  V30 36 1 1 33
M  V30 37 1 1 34
M  V30 38 1 1 35
M  V30 39 1 4 36
M  V30 40 1 5 37
M  V30 41 1 7 38
M  V30 42 1 7 39
M  V30 43 1 10 40
M  V30 44 1 12 41
M  V30 45 1 13 42
M  V30 46 1 14 43
M  V30 47 1 21 44
M  V30 48 1 22 45
M  V30 49 1 23 46
M  V30 50 1 25 47
M  V30 51 1 25 48
M  V30 52 1 25 49
M  V30 53 1 26 50
M  V30 54 1 28 51
M  V30 55 1 29 52
M  V30 56 1 32 53
M  V30 57 1 32 54
M  V30 58 1 32 55
M  V30 END BOND
M  V30 END CTAB
M  END
>  <Dataset>  (146) 
ChEMBL_Kinases

>  <Ligand_Instance>  (146) 
nan

>  <PDB_ID>  (146) 
nan

>  <Standardized_SMILES>  (146) 
COc1ccc(CC(=O)Nc2cccc(-c3nnc(-c4cccc(C)c4)o3)c2)cc1OC

>  <Name>  (146) 
nan

>  <Pocket>  (146) 
nan

>  <ATP_Site>  (146) 
nan

>  <Peripheral>  (146) 
nan

>  <Num_H_Atoms_ProtBoundConf>  (146) 
nan

>  <Num_Resolved_Atoms>  (146) 
nan

>  <Num_Not_Resolved_Atoms>  (146) 
nan

$$$$
CHEMBL1468216
     RDKit          3D

  0  0  0  0  0  0  0  0  0  0999 V3000
M  V30 BEGIN CTAB
M  V30 COUNTS 43 46 0 0 0
M  V30 BEGIN ATOM
M  V30 1 O 1.147768 2.890126 -0.008168 0
M  V30 2 C 1.432218 1.832311 0.646833 0
M  V30 3 C 2.748099 1.202547 0.675116 0
M  V30 4 N 3.666246 1.175264 1.669071 0
M  V30 5 N 4.804954 0.532330 1.474975 0
M  V30 6 C 5.140714 -0.114865 0.346577 0
M  V30 7 O 6.324283 -0.777240 0.155689 0
M  V30 8 C 4.226918 -0.110335 -0.692303 0
M  V30 9 C 4.537130 -0.765297 -1.866517 0
M  V30 10 C 3.635742 -0.774705 -2.926354 0
M  V30 11 C 2.427384 -0.128927 -2.808071 0
M  V30 12 C 2.166588 0.509115 -1.615394 0
M  V30 13 C 3.021109 0.554956 -0.523431 0
M  V30 14 N 0.383780 1.233821 1.395386 0
M  V30 15 C -1.004575 1.601317 1.549201 0
M  V30 16 C -1.885701 0.502155 0.954701 0
M  V30 17 N -1.523035 -0.783705 1.594880 0
M  V30 18 C -2.404822 -1.665542 2.220326 0
M  V30 19 C -3.719694 -1.523755 1.750407 0
M  V30 20 C -4.765522 -2.319378 2.185179 0
M  V30 21 C -4.522974 -3.300537 3.121671 0
M  V30 22 C -3.243819 -3.471020 3.608343 0
M  V30 23 C -2.230331 -2.668933 3.159775 0
M  V30 24 Cl -0.612775 -2.816830 3.752640 0
M  V30 25 C -0.112838 -1.045367 1.445333 0
M  V30 26 C 0.654572 0.013162 2.178654 0
M  V30 27 H 6.303165 -1.750139 -0.081928 0
M  V30 28 H 5.471368 -1.300139 -2.046272 0
M  V30 29 H 3.796529 -1.260043 -3.881333 0
M  V30 30 H 1.676469 -0.090382 -3.590485 0
M  V30 31 H 1.201863 1.021787 -1.522667 0
M  V30 32 H -1.225889 2.534015 0.994334 0
M  V30 33 H -1.243389 1.638903 2.626745 0
M  V30 34 H -1.648791 0.402342 -0.122439 0
M  V30 35 H -2.922895 0.768823 1.039879 0
M  V30 36 H -4.118731 -0.814256 1.006602 0
M  V30 37 H -5.793166 -2.261682 1.861960 0
M  V30 38 H -5.260665 -3.959452 3.513242 0
M  V30 39 H -2.956569 -4.212229 4.341568 0
M  V30 40 H 0.227629 -2.070445 1.549623 0
M  V30 41 H 0.165793 -0.860919 0.351390 0
M  V30 42 H 1.732848 -0.166556 2.200996 0
M  V30 43 H 0.277978 0.220325 3.203057 0
M  V30 END ATOM
M  V30 BEGIN BOND
M  V30 1 2 1 2
M  V30 2 1 2 3
M  V30 3 2 3 4
M  V30 4 1 4 5
M  V30 5 2 5 6
M  V30 6 1 6 7
M  V30 7 1 6 8
M  V30 8 2 8 9
M  V30 9 1 9 10
M  V30 10 2 10 11
M  V30 11 1 11 12
M  V30 12 2 12 13
M  V30 13 1 2 14
M  V30 14 1 14 15
M  V30 15 1 15 16
M  V30 16 1 16 17
M  V30 17 1 17 18
M  V30 18 2 18 19
M  V30 19 1 19 20
M  V30 20 2 20 21
M  V30 21 1 21 22
M  V30 22 2 22 23
M  V30 23 1 23 24
M  V30 24 1 17 25
M  V30 25 1 25 26
M  V30 26 1 13 3
M  V30 27 1 26 14
M  V30 28 1 13 8
M  V30 29 1 23 18
M  V30 30 1 7 27
M  V30 31 1 9 28
M  V30 32 1 10 29
M  V30 33 1 11 30
M  V30 34 1 12 31
M  V30 35 1 15 32
M  V30 36 1 15 33
M  V30 37 1 16 34
M  V30 38 1 16 35
M  V30 39 1 19 36
M  V30 40 1 20 37
M  V30 41 1 21 38
M  V30 42 1 22 39
M  V30 43 1 25 40
M  V30 44 1 25 41
M  V30 45 1 26 42
M  V30 46 1 26 43
M  V30 END BOND
M  V30 END CTAB
M  END
>  <Dataset>  (147) 
ChEMBL_Kinases

>  <Ligand_Instance>  (147) 
nan

>  <PDB_ID>  (147) 
nan

>  <Standardized_SMILES>  (147) 
O=C(c1nnc(O)c2ccccc12)N1CCN(c2ccccc2Cl)CC1

>  <Name>  (147) 
nan

>  <Pocket>  (147) 
nan

>  <ATP_Site>  (147) 
nan

>  <Peripheral>  (147) 
nan

>  <Num_H_Atoms_ProtBoundConf>  (147) 
nan

>  <Num_Resolved_Atoms>  (147) 
nan

>  <Num_Not_Resolved_Atoms>  (147) 
nan

$$$$
CHEMBL1468257
     RDKit          3D

  0  0  0  0  0  0  0  0  0  0999 V3000
M  V30 BEGIN CTAB
M  V30 COUNTS 32 33 0 0 0
M  V30 BEGIN ATOM
M  V30 1 C -0.398138 -2.357982 3.928007 0
M  V30 2 O -0.083955 -1.783629 2.690146 0
M  V30 3 C 0.981854 -2.236540 1.956022 0
M  V30 4 C 1.728856 -3.266740 2.470020 0
M  V30 5 C 2.799011 -3.758808 1.786731 0
M  V30 6 C 3.090936 -3.183060 0.575826 0
M  V30 7 Br 4.588609 -3.876019 -0.374326 0
M  V30 8 C 2.328826 -2.154277 0.083557 0
M  V30 9 C 1.234663 -1.630511 0.752372 0
M  V30 10 C 0.515668 -0.545168 0.122451 0
M  V30 11 N 0.882652 -0.048644 -1.070784 0
M  V30 12 C 0.089245 0.948573 -1.476855 0
M  V30 13 C 0.245567 1.693403 -2.754068 0
M  V30 14 C -0.854733 1.117878 -0.493281 0
M  V30 15 C -1.925149 2.081705 -0.491058 0
M  V30 16 C -2.896535 2.186133 0.621918 0
M  V30 17 O -2.024700 2.850884 -1.470978 0
M  V30 18 N -0.547882 0.200474 0.430483 0
M  V30 19 O -1.278975 0.070662 1.568248 0
M  V30 20 H -1.283391 -1.888443 4.398281 0
M  V30 21 H 0.468540 -2.258919 4.626694 0
M  V30 22 H -0.585034 -3.454995 3.797571 0
M  V30 23 H 1.467272 -3.686835 3.416803 0
M  V30 24 H 3.357790 -4.563086 2.219777 0
M  V30 25 H 2.678295 -1.792071 -0.894104 0
M  V30 26 H 0.027318 2.775155 -2.619340 0
M  V30 27 H -0.428755 1.308606 -3.543401 0
M  V30 28 H 1.280807 1.610407 -3.139818 0
M  V30 29 H -3.435403 3.171450 0.565450 0
M  V30 30 H -2.431436 2.103195 1.605024 0
M  V30 31 H -3.700036 1.404501 0.574306 0
M  V30 32 H -2.193898 -0.381597 1.545702 0
M  V30 END ATOM
M  V30 BEGIN BOND
M  V30 1 1 1 2
M  V30 2 1 2 3
M  V30 3 2 3 4
M  V30 4 1 4 5
M  V30 5 2 5 6
M  V30 6 1 6 7
M  V30 7 1 6 8
M  V30 8 2 8 9
M  V30 9 1 9 10
M  V30 10 2 10 11
M  V30 11 1 11 12
M  V30 12 1 12 13
M  V30 13 2 12 14
M  V30 14 1 14 15
M  V30 15 1 15 16
M  V30 16 2 15 17
M  V30 17 1 14 18
M  V30 18 1 18 19
M  V30 19 1 9 3
M  V30 20 1 18 10
M  V30 21 1 1 20
M  V30 22 1 1 21
M  V30 23 1 1 22
M  V30 24 1 4 23
M  V30 25 1 5 24
M  V30 26 1 8 25
M  V30 27 1 13 26
M  V30 28 1 13 27
M  V30 29 1 13 28
M  V30 30 1 16 29
M  V30 31 1 16 30
M  V30 32 1 16 31
M  V30 33 1 19 32
M  V30 END BOND
M  V30 END CTAB
M  END
>  <Dataset>  (148) 
ChEMBL_Kinases

>  <Ligand_Instance>  (148) 
nan

>  <PDB_ID>  (148) 
nan

>  <Standardized_SMILES>  (148) 
COc1ccc(Br)cc1-c1nc(C)c(C(C)=O)n1O

>  <Name>  (148) 
nan

>  <Pocket>  (148) 
nan

>  <ATP_Site>  (148) 
nan

>  <Peripheral>  (148) 
nan

>  <Num_H_Atoms_ProtBoundConf>  (148) 
nan

>  <Num_Resolved_Atoms>  (148) 
nan

>  <Num_Not_Resolved_Atoms>  (148) 
nan

$$$$
CHEMBL1468342
     RDKit          3D

  0  0  0  0  0  0  0  0  0  0999 V3000
M  V30 BEGIN CTAB
M  V30 COUNTS 37 39 0 0 0
M  V30 BEGIN ATOM
M  V30 1 C -1.466361 -3.744560 4.710481 0
M  V30 2 C -0.457098 -3.210620 3.806949 0
M  V30 3 S 1.251734 -3.004228 4.345528 0
M  V30 4 C 1.818994 -2.340703 2.757874 0
M  V30 5 N 3.053222 -1.938287 2.394787 0
M  V30 6 C 3.287752 -1.469177 1.159749 0
M  V30 7 N 2.220565 -1.455278 0.398898 0
M  V30 8 C 0.975575 -1.835309 0.688209 0
M  V30 9 N 0.051004 -1.688956 -0.386758 0
M  V30 10 C 0.438601 -1.167447 -1.666177 0
M  V30 11 C 0.950120 0.247490 -1.643143 0
M  V30 12 C -0.104912 1.178048 -1.111180 0
M  V30 13 N 0.361091 2.547628 -1.078056 0
M  V30 14 C 0.177816 3.348797 -2.141199 0
M  V30 15 C 0.718942 4.593125 -1.831407 0
M  V30 16 N 1.219614 4.525221 -0.589231 0
M  V30 17 C 0.994620 3.275341 -0.143942 0
M  V30 18 C 0.706058 -2.319533 1.945014 0
M  V30 19 C -0.467127 -2.767717 2.485357 0
M  V30 20 C -1.783555 -2.834536 1.801209 0
M  V30 21 H -1.196665 -3.472313 5.751281 0
M  V30 22 H -1.635279 -4.829270 4.613066 0
M  V30 23 H -2.460070 -3.238803 4.528688 0
M  V30 24 H 4.262695 -1.145622 0.856329 0
M  V30 25 H -0.961166 -1.913082 -0.419044 0
M  V30 26 H -0.384207 -1.246518 -2.388670 0
M  V30 27 H 1.276385 -1.810437 -2.045861 0
M  V30 28 H 1.077485 0.530338 -2.730137 0
M  V30 29 H 1.887508 0.341701 -1.101303 0
M  V30 30 H -0.286606 0.875854 -0.058282 0
M  V30 31 H -1.050350 1.069231 -1.651663 0
M  V30 32 H -0.285229 3.187894 -3.114707 0
M  V30 33 H 0.742438 5.482736 -2.472834 0
M  V30 34 H 1.257472 2.844868 0.817648 0
M  V30 35 H -2.580859 -3.213595 2.498064 0
M  V30 36 H -2.183450 -1.838236 1.505639 0
M  V30 37 H -1.829109 -3.520469 0.951795 0
M  V30 END ATOM
M  V30 BEGIN BOND
M  V30 1 1 1 2
M  V30 2 1 2 3
M  V30 3 1 3 4
M  V30 4 2 4 5
M  V30 5 1 5 6
M  V30 6 2 6 7
M  V30 7 1 7 8
M  V30 8 1 8 9
M  V30 9 1 9 10
M  V30 10 1 10 11
M  V30 11 1 11 12
M  V30 12 1 12 13
M  V30 13 1 13 14
M  V30 14 2 14 15
M  V30 15 1 15 16
M  V30 16 2 16 17
M  V30 17 2 8 18
M  V30 18 1 18 19
M  V30 19 1 19 20
M  V30 20 2 19 2
M  V30 21 1 18 4
M  V30 22 1 17 13
M  V30 23 1 1 21
M  V30 24 1 1 22
M  V30 25 1 1 23
M  V30 26 1 6 24
M  V30 27 1 9 25
M  V30 28 1 10 26
M  V30 29 1 10 27
M  V30 30 1 11 28
M  V30 31 1 11 29
M  V30 32 1 12 30
M  V30 33 1 12 31
M  V30 34 1 14 32
M  V30 35 1 15 33
M  V30 36 1 17 34
M  V30 37 1 20 35
M  V30 38 1 20 36
M  V30 39 1 20 37
M  V30 END BOND
M  V30 END CTAB
M  END
>  <Dataset>  (149) 
ChEMBL_Kinases

>  <Ligand_Instance>  (149) 
nan

>  <PDB_ID>  (149) 
nan

>  <Standardized_SMILES>  (149) 
Cc1sc2ncnc(NCCCn3ccnc3)c2c1C

>  <Name>  (149) 
nan

>  <Pocket>  (149) 
nan

>  <ATP_Site>  (149) 
nan

>  <Peripheral>  (149) 
nan

>  <Num_H_Atoms_ProtBoundConf>  (149) 
nan

>  <Num_Resolved_Atoms>  (149) 
nan

>  <Num_Not_Resolved_Atoms>  (149) 
nan

$$$$
CHEMBL1468505
     RDKit          3D

  0  0  0  0  0  0  0  0  0  0999 V3000
M  V30 BEGIN CTAB
M  V30 COUNTS 50 54 0 0 0
M  V30 BEGIN ATOM
M  V30 1 O 2.566312 2.156464 2.299363 0
M  V30 2 C 2.428397 1.009580 1.749802 0
M  V30 3 N 2.175636 1.243805 0.347980 0
M  V30 4 C 2.034026 2.306863 -0.608710 0
M  V30 5 C 3.238184 2.666752 -1.190686 0
M  V30 6 C 3.249718 3.686781 -2.139400 0
M  V30 7 C 2.051306 4.290069 -2.452297 0
M  V30 8 C 0.850729 3.904540 -1.847587 0
M  V30 9 C 0.824859 2.880850 -0.892364 0
M  V30 10 O -0.141267 4.710603 -2.391693 0
M  V30 11 C 0.401091 5.294900 -3.577304 0
M  V30 12 O 1.808961 5.317493 -3.355811 0
M  V30 13 C 2.450077 -0.410565 2.101169 0
M  V30 14 C 3.613096 -0.978743 2.579245 0
M  V30 15 C 3.641335 -2.330329 2.908234 0
M  V30 16 C 2.474484 -3.023989 2.728019 0
M  V30 17 C 1.298017 -2.479784 2.252049 0
M  V30 18 C 1.297368 -1.150938 1.936810 0
M  V30 19 C -0.081533 -0.898601 1.458608 0
M  V30 20 O -0.339412 0.301926 1.097049 0
M  V30 21 N -0.842782 -2.128923 1.517644 0
M  V30 22 C -2.210917 -2.069473 1.043698 0
M  V30 23 C -3.163621 -2.272192 2.178132 0
M  V30 24 C -3.298612 -3.654328 2.686974 0
M  V30 25 C -3.146829 -4.699068 1.629179 0
M  V30 26 C -3.413555 -4.114280 0.256483 0
M  V30 27 C -2.406461 -3.042052 -0.072203 0
M  V30 28 C 0.000197 -3.175940 2.043903 0
M  V30 29 H 2.016980 0.441119 -0.331501 0
M  V30 30 H 4.188193 2.207014 -0.959100 0
M  V30 31 H 4.164539 4.001762 -2.619292 0
M  V30 32 H -0.082254 2.568825 -0.414240 0
M  V30 33 H 0.207560 4.589683 -4.408610 0
M  V30 34 H 0.066995 6.321021 -3.744279 0
M  V30 35 H 4.494213 -0.350988 2.690503 0
M  V30 36 H 4.560865 -2.753879 3.280255 0
M  V30 37 H 2.573305 -4.085001 3.007293 0
M  V30 38 H -2.433979 -1.004403 0.684653 0
M  V30 39 H -4.169824 -1.818034 1.951195 0
M  V30 40 H -2.798461 -1.636827 3.047604 0
M  V30 41 H -2.614894 -3.803056 3.553101 0
M  V30 42 H -4.336122 -3.723630 3.155454 0
M  V30 43 H -2.182957 -5.220674 1.684749 0
M  V30 44 H -3.944395 -5.467340 1.785505 0
M  V30 45 H -3.337530 -4.922701 -0.494330 0
M  V30 46 H -4.423150 -3.705687 0.239432 0
M  V30 47 H -2.755073 -2.534643 -1.001448 0
M  V30 48 H -1.456301 -3.543586 -0.375113 0
M  V30 49 H 0.168382 -3.886544 1.201779 0
M  V30 50 H -0.363376 -3.655291 2.949374 0
M  V30 END ATOM
M  V30 BEGIN BOND
M  V30 1 2 1 2
M  V30 2 1 2 3
M  V30 3 1 3 4
M  V30 4 2 4 5
M  V30 5 1 5 6
M  V30 6 2 6 7
M  V30 7 1 7 8
M  V30 8 2 8 9
M  V30 9 1 8 10
M  V30 10 1 10 11
M  V30 11 1 11 12
M  V30 12 1 2 13
M  V30 13 2 13 14
M  V30 14 1 14 15
M  V30 15 2 15 16
M  V30 16 1 16 17
M  V30 17 2 17 18
M  V30 18 1 18 19
M  V30 19 2 19 20
M  V30 20 1 19 21
M  V30 21 1 21 22
M  V30 22 1 22 23
M  V30 23 1 23 24
M  V30 24 1 24 25
M  V30 25 1 25 26
M  V30 26 1 26 27
M  V30 27 1 21 28
M  V30 28 1 9 4
M  V30 29 1 18 13
M  V30 30 1 27 22
M  V30 31 1 12 7
M  V30 32 1 28 17
M  V30 33 1 3 29
M  V30 34 1 5 30
M  V30 35 1 6 31
M  V30 36 1 9 32
M  V30 37 1 11 33
M  V30 38 1 11 34
M  V30 39 1 14 35
M  V30 40 1 15 36
M  V30 41 1 16 37
M  V30 42 1 22 38
M  V30 43 1 23 39
M  V30 44 1 23 40
M  V30 45 1 24 41
M  V30 46 1 24 42
M  V30 47 1 25 43
M  V30 48 1 25 44
M  V30 49 1 26 45
M  V30 50 1 26 46
M  V30 51 1 27 47
M  V30 52 1 27 48
M  V30 53 1 28 49
M  V30 54 1 28 50
M  V30 END BOND
M  V30 END CTAB
M  END
>  <Dataset>  (150) 
ChEMBL_Kinases

>  <Ligand_Instance>  (150) 
nan

>  <PDB_ID>  (150) 
nan

>  <Standardized_SMILES>  (150) 
O=C(Nc1ccc2c(c1)OCO2)c1cccc2c1C(=O)N(C1CCCCC1)C2

>  <Name>  (150) 
nan

>  <Pocket>  (150) 
nan

>  <ATP_Site>  (150) 
nan

>  <Peripheral>  (150) 
nan

>  <Num_H_Atoms_ProtBoundConf>  (150) 
nan

>  <Num_Resolved_Atoms>  (150) 
nan

>  <Num_Not_Resolved_Atoms>  (150) 
nan

$$$$
CHEMBL1468507
     RDKit          3D

  0  0  0  0  0  0  0  0  0  0999 V3000
M  V30 BEGIN CTAB
M  V30 COUNTS 44 48 0 0 0
M  V30 BEGIN ATOM
M  V30 1 C -2.530743 -0.970360 -3.878535 0
M  V30 2 C -2.015581 -0.626574 -2.512970 0
M  V30 3 C -2.864980 -0.863143 -1.447966 0
M  V30 4 C -2.462986 -0.571347 -0.148884 0
M  V30 5 C -3.293321 -0.787840 1.040832 0
M  V30 6 C -1.199509 -0.047045 -0.004402 0
M  V30 7 C -0.324881 0.201748 -1.042825 0
M  V30 8 C -0.752636 -0.097975 -2.320323 0
M  V30 9 C 1.002977 0.745517 -0.786612 0
M  V30 10 C 1.962575 1.061341 -1.723965 0
M  V30 11 C 3.008460 1.553103 -0.969739 0
M  V30 12 C 4.334660 2.059497 -1.427723 0
M  V30 13 N 2.610326 1.494904 0.300355 0
M  V30 14 N 1.410693 1.015877 0.465261 0
M  V30 15 C 0.621858 0.781515 1.656193 0
M  V30 16 C 1.301622 -0.211275 2.528922 0
M  V30 17 C 2.581698 -0.712430 2.463344 0
M  V30 18 C 3.071771 -1.635348 3.359475 0
M  V30 19 C 2.289144 -2.113559 4.388174 0
M  V30 20 C 0.998590 -1.644835 4.500264 0
M  V30 21 C 0.527148 -0.711877 3.581464 0
M  V30 22 O 0.464843 -2.291205 5.605292 0
M  V30 23 C 1.229893 -3.436068 5.923409 0
M  V30 24 O 2.507475 -3.023649 5.416009 0
M  V30 25 N -0.700074 0.300997 1.281445 0
M  V30 26 H -3.276376 -0.237572 -4.247513 0
M  V30 27 H -1.641447 -1.027524 -4.548130 0
M  V30 28 H -2.972273 -1.987306 -3.895629 0
M  V30 29 H -3.853375 -1.276888 -1.596948 0
M  V30 30 H -2.699136 -1.352988 1.795519 0
M  V30 31 H -4.240737 -1.316062 0.810087 0
M  V30 32 H -3.592402 0.172354 1.540983 0
M  V30 33 H -0.114844 0.073523 -3.181691 0
M  V30 34 H 1.947022 0.967039 -2.782188 0
M  V30 35 H 4.305977 3.166642 -1.394897 0
M  V30 36 H 4.609167 1.639806 -2.413267 0
M  V30 37 H 5.122102 1.756017 -0.681315 0
M  V30 38 H 0.521782 1.751174 2.228485 0
M  V30 39 H 3.177172 -0.327043 1.651074 0
M  V30 40 H 4.092482 -1.966262 3.220717 0
M  V30 41 H -0.498293 -0.424055 3.780011 0
M  V30 42 H 0.836416 -4.272086 5.289491 0
M  V30 43 H 1.281343 -3.676630 6.984867 0
M  V30 44 H -1.385717 0.197075 2.071438 0
M  V30 END ATOM
M  V30 BEGIN BOND
M  V30 1 1 1 2
M  V30 2 2 2 3
M  V30 3 1 3 4
M  V30 4 1 4 5
M  V30 5 2 4 6
M  V30 6 1 6 7
M  V30 7 2 7 8
M  V30 8 1 7 9
M  V30 9 2 9 10
M  V30 10 1 10 11
M  V30 11 1 11 12
M  V30 12 2 11 13
M  V30 13 1 13 14
M  V30 14 1 14 15
M  V30 15 1 15 16
M  V30 16 2 16 17
M  V30 17 1 17 18
M  V30 18 2 18 19
M  V30 19 1 19 20
M  V30 20 2 20 21
M  V30 21 1 20 22
M  V30 22 1 22 23
M  V30 23 1 23 24
M  V30 24 1 15 25
M  V30 25 1 8 2
M  V30 26 1 14 9
M  V30 27 1 21 16
M  V30 28 1 25 6
M  V30 29 1 24 19
M  V30 30 1 1 26
M  V30 31 1 1 27
M  V30 32 1 1 28
M  V30 33 1 3 29
M  V30 34 1 5 30
M  V30 35 1 5 31
M  V30 36 1 5 32
M  V30 37 1 8 33
M  V30 38 1 10 34
M  V30 39 1 12 35
M  V30 40 1 12 36
M  V30 41 1 12 37
M  V30 42 1 15 38
M  V30 43 1 17 39
M  V30 44 1 18 40
M  V30 45 1 21 41
M  V30 46 1 23 42
M  V30 47 1 23 43
M  V30 48 1 25 44
M  V30 END BOND
M  V30 END CTAB
M  END
>  <Dataset>  (151) 
ChEMBL_Kinases

>  <Ligand_Instance>  (151) 
nan

>  <PDB_ID>  (151) 
nan

>  <Standardized_SMILES>  (151) 
Cc1cc(C)c2c(c1)-c1cc(C)nn1C(c1ccc3c(c1)OCO3)N2

>  <Name>  (151) 
nan

>  <Pocket>  (151) 
nan

>  <ATP_Site>  (151) 
nan

>  <Peripheral>  (151) 
nan

>  <Num_H_Atoms_ProtBoundConf>  (151) 
nan

>  <Num_Resolved_Atoms>  (151) 
nan

>  <Num_Not_Resolved_Atoms>  (151) 
nan

$$$$
CHEMBL1469412
     RDKit          3D

  0  0  0  0  0  0  0  0  0  0999 V3000
M  V30 BEGIN CTAB
M  V30 COUNTS 48 50 0 0 0
M  V30 BEGIN ATOM
M  V30 1 C 0.689012 -2.404039 4.755030 0
M  V30 2 C 1.647356 -2.312108 3.582412 0
M  V30 3 O 2.072242 -0.963569 3.523844 0
M  V30 4 C 2.956946 -0.493738 2.582407 0
M  V30 5 O 3.410575 -1.311042 1.727202 0
M  V30 6 C 3.477489 0.888856 2.418820 0
M  V30 7 C 4.408228 0.958804 1.264107 0
M  V30 8 N 5.742032 1.010771 1.344999 0
M  V30 9 C 6.500691 1.065076 0.233224 0
M  V30 10 C 5.888373 1.066669 -1.019085 0
M  V30 11 C 4.497287 1.011914 -1.114063 0
M  V30 12 C 3.741046 0.956749 0.060913 0
M  V30 13 C 2.313585 0.909368 -0.201312 0
M  V30 14 O 1.802841 2.043888 -0.038319 0
M  V30 15 N 1.510560 -0.180301 -0.586608 0
M  V30 16 C 0.141049 -0.221627 -0.840605 0
M  V30 17 C -0.755815 0.813091 -0.772166 0
M  V30 18 C -2.112929 0.721139 -1.043586 0
M  V30 19 C -2.610167 -0.517540 -1.416006 0
M  V30 20 O -3.960221 -0.606139 -1.686036 0
M  V30 21 C -4.873823 -0.913306 -0.696314 0
M  V30 22 C -5.506363 0.025245 0.101423 0
M  V30 23 C -6.411377 -0.388510 1.071189 0
M  V30 24 C -6.724803 -1.732638 1.288592 0
M  V30 25 C -6.084418 -2.674976 0.480467 0
M  V30 26 C -5.196140 -2.223701 -0.465459 0
M  V30 27 C -1.737548 -1.577516 -1.493985 0
M  V30 28 C -0.414426 -1.424887 -1.214792 0
M  V30 29 H 1.122013 -1.893681 5.624848 0
M  V30 30 H 0.387968 -3.433644 4.977854 0
M  V30 31 H -0.243681 -1.840632 4.509346 0
M  V30 32 H 1.067281 -2.601035 2.679616 0
M  V30 33 H 2.478334 -3.023842 3.749947 0
M  V30 34 H 2.704065 1.661608 2.404656 0
M  V30 35 H 4.111299 1.080446 3.324141 0
M  V30 36 H 7.589050 1.105710 0.301275 0
M  V30 37 H 6.549554 1.110567 -1.869639 0
M  V30 38 H 4.172865 1.018391 -2.135981 0
M  V30 39 H 2.103085 -1.036380 -0.670514 0
M  V30 40 H -0.412538 1.782851 -0.488416 0
M  V30 41 H -2.756885 1.570176 -0.969999 0
M  V30 42 H -5.276071 1.063047 -0.045583 0
M  V30 43 H -6.915176 0.328821 1.704317 0
M  V30 44 H -7.433336 -2.001958 2.054368 0
M  V30 45 H -6.308031 -3.728300 0.627557 0
M  V30 46 H -4.735550 -2.997955 -1.055971 0
M  V30 47 H -2.106188 -2.542586 -1.781291 0
M  V30 48 H 0.234685 -2.314750 -1.292096 0
M  V30 END ATOM
M  V30 BEGIN BOND
M  V30 1 1 1 2
M  V30 2 1 2 3
M  V30 3 1 3 4
M  V30 4 2 4 5
M  V30 5 1 4 6
M  V30 6 1 6 7
M  V30 7 2 7 8
M  V30 8 1 8 9
M  V30 9 2 9 10
M  V30 10 1 10 11
M  V30 11 2 11 12
M  V30 12 1 12 13
M  V30 13 2 13 14
M  V30 14 1 13 15
M  V30 15 1 15 16
M  V30 16 2 16 17
M  V30 17 1 17 18
M  V30 18 2 18 19
M  V30 19 1 19 20
M  V30 20 1 20 21
M  V30 21 2 21 22
M  V30 22 1 22 23
M  V30 23 2 23 24
M  V30 24 1 24 25
M  V30 25 2 25 26
M  V30 26 1 19 27
M  V30 27 2 27 28
M  V30 28 1 12 7
M  V30 29 1 28 16
M  V30 30 1 26 21
M  V30 31 1 1 29
M  V30 32 1 1 30
M  V30 33 1 1 31
M  V30 34 1 2 32
M  V30 35 1 2 33
M  V30 36 1 6 34
M  V30 37 1 6 35
M  V30 38 1 9 36
M  V30 39 1 10 37
M  V30 40 1 11 38
M  V30 41 1 15 39
M  V30 42 1 17 40
M  V30 43 1 18 41
M  V30 44 1 22 42
M  V30 45 1 23 43
M  V30 46 1 24 44
M  V30 47 1 25 45
M  V30 48 1 26 46
M  V30 49 1 27 47
M  V30 50 1 28 48
M  V30 END BOND
M  V30 END CTAB
M  END
>  <Dataset>  (152) 
ChEMBL_Kinases

>  <Ligand_Instance>  (152) 
nan

>  <PDB_ID>  (152) 
nan

>  <Standardized_SMILES>  (152) 
CCOC(=O)Cc1ncccc1C(=O)Nc1ccc(Oc2ccccc2)cc1

>  <Name>  (152) 
nan

>  <Pocket>  (152) 
nan

>  <ATP_Site>  (152) 
nan

>  <Peripheral>  (152) 
nan

>  <Num_H_Atoms_ProtBoundConf>  (152) 
nan

>  <Num_Resolved_Atoms>  (152) 
nan

>  <Num_Not_Resolved_Atoms>  (152) 
nan

$$$$
CHEMBL1468590
     RDKit          3D

  0  0  0  0  0  0  0  0  0  0999 V3000
M  V30 BEGIN CTAB
M  V30 COUNTS 43 45 0 0 0
M  V30 BEGIN ATOM
M  V30 1 C 0.010333 -5.193186 -1.025934 0
M  V30 2 O 0.423223 -3.865215 -0.717520 0
M  V30 3 C 1.192092 -3.705539 0.433016 0
M  V30 4 C 1.582259 -4.717245 1.288528 0
M  V30 5 C 2.347319 -4.456992 2.408716 0
M  V30 6 C 2.721184 -3.133637 2.659308 0
M  V30 7 C 2.339460 -2.101150 1.811741 0
M  V30 8 C 1.566257 -2.396235 0.687204 0
M  V30 9 N 1.193413 -1.303490 -0.165860 0
M  V30 10 C -0.226323 -1.062490 -0.375229 0
M  V30 11 C -0.520696 0.390190 -0.610332 0
M  V30 12 N 0.483839 1.298094 -0.327713 0
M  V30 13 C 0.175072 2.600253 0.123051 0
M  V30 14 C -0.622615 2.672938 1.373135 0
M  V30 15 C -0.182851 2.475400 2.662805 0
M  V30 16 F 1.114595 2.189265 2.803441 0
M  V30 17 C -1.051899 2.573861 3.730812 0
M  V30 18 C -2.389404 2.872790 3.548797 0
M  V30 19 C -2.847380 3.073945 2.262782 0
M  V30 20 C -1.977501 2.975692 1.189836 0
M  V30 21 F -2.557947 3.197170 -0.021904 0
M  V30 22 C 1.832051 0.964519 -0.262700 0
M  V30 23 C 2.158782 -0.416047 -0.836333 0
M  V30 24 H 0.890498 -5.849786 -1.182599 0
M  V30 25 H -0.589719 -5.644343 -0.211435 0
M  V30 26 H -0.633577 -5.214225 -1.927619 0
M  V30 27 H 1.251927 -5.713595 1.024677 0
M  V30 28 H 2.622397 -5.289363 3.041789 0
M  V30 29 H 3.319821 -2.922574 3.533006 0
M  V30 30 H 2.674078 -1.114292 2.084563 0
M  V30 31 H -0.783563 -1.459792 0.499965 0
M  V30 32 H -0.522548 -1.679585 -1.246834 0
M  V30 33 H -0.788463 0.495942 -1.701926 0
M  V30 34 H -1.470962 0.616400 -0.064126 0
M  V30 35 H 1.153673 3.109129 0.377198 0
M  V30 36 H -0.256800 3.269927 -0.665482 0
M  V30 37 H -0.626257 2.403716 4.713797 0
M  V30 38 H -3.016606 2.932950 4.449229 0
M  V30 39 H -3.906217 3.308079 2.144732 0
M  V30 40 H 2.319733 0.962710 0.734398 0
M  V30 41 H 2.440042 1.655032 -0.918155 0
M  V30 42 H 1.981662 -0.467230 -1.923672 0
M  V30 43 H 3.152588 -0.711373 -0.512363 0
M  V30 END ATOM
M  V30 BEGIN BOND
M  V30 1 1 1 2
M  V30 2 1 2 3
M  V30 3 2 3 4
M  V30 4 1 4 5
M  V30 5 2 5 6
M  V30 6 1 6 7
M  V30 7 2 7 8
M  V30 8 1 8 9
M  V30 9 1 9 10
M  V30 10 1 10 11
M  V30 11 1 11 12
M  V30 12 1 12 13
M  V30 13 1 13 14
M  V30 14 2 14 15
M  V30 15 1 15 16
M  V30 16 1 15 17
M  V30 17 2 17 18
M  V30 18 1 18 19
M  V30 19 2 19 20
M  V30 20 1 20 21
M  V30 21 1 12 22
M  V30 22 1 22 23
M  V30 23 1 8 3
M  V30 24 1 23 9
M  V30 25 1 20 14
M  V30 26 1 1 24
M  V30 27 1 1 25
M  V30 28 1 1 26
M  V30 29 1 4 27
M  V30 30 1 5 28
M  V30 31 1 6 29
M  V30 32 1 7 30
M  V30 33 1 10 31
M  V30 34 1 10 32
M  V30 35 1 11 33
M  V30 36 1 11 34
M  V30 37 1 13 35
M  V30 38 1 13 36
M  V30 39 1 17 37
M  V30 40 1 18 38
M  V30 41 1 19 39
M  V30 42 1 22 40
M  V30 43 1 22 41
M  V30 44 1 23 42
M  V30 45 1 23 43
M  V30 END BOND
M  V30 END CTAB
M  END
>  <Dataset>  (153) 
ChEMBL_Kinases

>  <Ligand_Instance>  (153) 
nan

>  <PDB_ID>  (153) 
nan

>  <Standardized_SMILES>  (153) 
COc1ccccc1N1CCN(Cc2c(F)cccc2F)CC1

>  <Name>  (153) 
nan

>  <Pocket>  (153) 
nan

>  <ATP_Site>  (153) 
nan

>  <Peripheral>  (153) 
nan

>  <Num_H_Atoms_ProtBoundConf>  (153) 
nan

>  <Num_Resolved_Atoms>  (153) 
nan

>  <Num_Not_Resolved_Atoms>  (153) 
nan

$$$$
CHEMBL1468840
     RDKit          3D

  0  0  0  0  0  0  0  0  0  0999 V3000
M  V30 BEGIN CTAB
M  V30 COUNTS 31 31 0 0 0
M  V30 BEGIN ATOM
M  V30 1 C -3.219910 -0.735873 2.349574 0
M  V30 2 C -2.099267 -1.746411 2.573399 0
M  V30 3 N -1.014152 -1.415212 1.706676 0
M  V30 4 C -1.087614 -2.053228 0.426012 0
M  V30 5 C -0.393823 -3.393598 0.390626 0
M  V30 6 C 0.052614 -0.538517 2.052637 0
M  V30 7 O -0.111551 -0.110064 3.225058 0
M  V30 8 C 1.110926 -0.243353 1.146216 0
M  V30 9 S 2.634302 -1.221050 1.104883 0
M  V30 10 C 3.407541 -0.230665 -0.255881 0
M  V30 11 N 4.670620 -0.441779 -0.830947 0
M  V30 12 C 2.422401 0.777047 -0.567498 0
M  V30 13 C 2.705817 1.727958 -1.595180 0
M  V30 14 N 2.941860 2.491282 -2.435740 0
M  V30 15 C 1.271922 0.733761 0.168090 0
M  V30 16 C 0.145316 1.683259 -0.007811 0
M  V30 17 H -4.085691 -0.946524 3.003753 0
M  V30 18 H -2.839362 0.262896 2.588505 0
M  V30 19 H -3.563837 -0.742406 1.302023 0
M  V30 20 H -2.445461 -2.778548 2.501622 0
M  V30 21 H -1.792403 -1.616875 3.652760 0
M  V30 22 H -2.105727 -2.136452 0.002127 0
M  V30 23 H -0.523116 -1.392345 -0.293837 0
M  V30 24 H 0.525526 -3.369520 1.011232 0
M  V30 25 H -1.061274 -4.237805 0.647325 0
M  V30 26 H -0.075150 -3.577699 -0.655736 0
M  V30 27 H 4.614611 -0.760680 -1.842907 0
M  V30 28 H 5.571406 -0.297951 -0.310488 0
M  V30 29 H -0.799981 1.159836 -0.265918 0
M  V30 30 H 0.329296 2.404765 -0.810471 0
M  V30 31 H -0.031203 2.221438 0.935359 0
M  V30 END ATOM
M  V30 BEGIN BOND
M  V30 1 1 1 2
M  V30 2 1 2 3
M  V30 3 1 3 4
M  V30 4 1 4 5
M  V30 5 1 3 6
M  V30 6 2 6 7
M  V30 7 1 6 8
M  V30 8 1 8 9
M  V30 9 1 9 10
M  V30 10 1 10 11
M  V30 11 2 10 12
M  V30 12 1 12 13
M  V30 13 3 13 14
M  V30 14 1 12 15
M  V30 15 1 15 16
M  V30 16 2 15 8
M  V30 17 1 1 17
M  V30 18 1 1 18
M  V30 19 1 1 19
M  V30 20 1 2 20
M  V30 21 1 2 21
M  V30 22 1 4 22
M  V30 23 1 4 23
M  V30 24 1 5 24
M  V30 25 1 5 25
M  V30 26 1 5 26
M  V30 27 1 11 27
M  V30 28 1 11 28
M  V30 29 1 16 29
M  V30 30 1 16 30
M  V30 31 1 16 31
M  V30 END BOND
M  V30 END CTAB
M  END
>  <Dataset>  (154) 
ChEMBL_Kinases

>  <Ligand_Instance>  (154) 
nan

>  <PDB_ID>  (154) 
nan

>  <Standardized_SMILES>  (154) 
CCN(CC)C(=O)c1sc(N)c(C#N)c1C

>  <Name>  (154) 
nan

>  <Pocket>  (154) 
nan

>  <ATP_Site>  (154) 
nan

>  <Peripheral>  (154) 
nan

>  <Num_H_Atoms_ProtBoundConf>  (154) 
nan

>  <Num_Resolved_Atoms>  (154) 
nan

>  <Num_Not_Resolved_Atoms>  (154) 
nan

$$$$
CHEMBL1468928
     RDKit          3D

  0  0  0  0  0  0  0  0  0  0999 V3000
M  V30 BEGIN CTAB
M  V30 COUNTS 54 57 0 0 0
M  V30 BEGIN ATOM
M  V30 1 C -2.691077 0.026947 5.866361 0
M  V30 2 O -2.784015 -0.892243 4.819744 0
M  V30 3 C -1.653509 -1.567545 4.402166 0
M  V30 4 C -0.432084 -1.310380 5.037179 0
M  V30 5 C 0.722418 -1.939170 4.677441 0
M  V30 6 C 0.679840 -2.872810 3.637487 0
M  V30 7 C 1.926778 -3.574188 3.222120 0
M  V30 8 C 2.631316 -2.718736 2.213997 0
M  V30 9 N 1.893403 -2.439084 1.026219 0
M  V30 10 C 2.156250 -1.636255 -0.134910 0
M  V30 11 O 1.814911 -0.396783 -0.103062 0
M  V30 12 C 2.112144 0.233214 -1.240302 0
M  V30 13 C 1.791062 1.684587 -1.395070 0
M  V30 14 C 0.386778 1.849197 -1.838695 0
M  V30 15 C -0.555606 2.205390 -0.869444 0
M  V30 16 C -1.924508 2.393241 -1.065797 0
M  V30 17 C -2.358331 2.198169 -2.366918 0
M  V30 18 C -1.464875 1.849310 -3.344829 0
M  V30 19 C -1.949510 1.668160 -4.639494 0
M  V30 20 C -1.031118 1.325116 -5.587150 0
M  V30 21 C 0.319228 1.147631 -5.361394 0
M  V30 22 C 0.803477 1.325266 -4.080689 0
M  V30 23 C -0.108371 1.672678 -3.104790 0
M  V30 24 N 2.677043 -0.700759 -2.018270 0
M  V30 25 C 2.718129 -1.852357 -1.370970 0
M  V30 26 C 3.208946 -3.142796 -1.740697 0
M  V30 27 N 3.602905 -4.188885 -2.051343 0
M  V30 28 C -0.510678 -3.139932 3.001278 0
M  V30 29 C -1.675632 -2.501891 3.367405 0
M  V30 30 O -2.951234 -2.679485 2.804780 0
M  V30 31 C -3.103353 -3.624753 1.736941 0
M  V30 32 H -1.975035 0.826156 5.568589 0
M  V30 33 H -3.643159 0.538685 6.093415 0
M  V30 34 H -2.247304 -0.477985 6.747513 0
M  V30 35 H -0.419754 -0.579155 5.847059 0
M  V30 36 H 1.683038 -1.782296 5.129162 0
M  V30 37 H 1.693145 -4.589662 2.840271 0
M  V30 38 H 2.580110 -3.593943 4.134891 0
M  V30 39 H 2.858172 -1.738961 2.736170 0
M  V30 40 H 3.633741 -3.145778 1.978769 0
M  V30 41 H 0.954092 -2.827534 0.808647 0
M  V30 42 H 2.504438 2.185758 -2.080774 0
M  V30 43 H 1.929908 2.160533 -0.411758 0
M  V30 44 H -0.206299 2.361034 0.164520 0
M  V30 45 H -2.544123 2.665986 -0.238816 0
M  V30 46 H -3.414275 2.334705 -2.558475 0
M  V30 47 H -2.992250 1.792361 -4.867384 0
M  V30 48 H -1.415049 1.189285 -6.593407 0
M  V30 49 H 1.021402 0.876133 -6.137640 0
M  V30 50 H 1.831306 1.204053 -3.852395 0
M  V30 51 H -0.629633 -3.852113 2.201371 0
M  V30 52 H -2.261984 -3.536002 1.044650 0
M  V30 53 H -3.256601 -4.618528 2.158676 0
M  V30 54 H -4.043652 -3.317038 1.196355 0
M  V30 END ATOM
M  V30 BEGIN BOND
M  V30 1 1 1 2
M  V30 2 1 2 3
M  V30 3 2 3 4
M  V30 4 1 4 5
M  V30 5 2 5 6
M  V30 6 1 6 7
M  V30 7 1 7 8
M  V30 8 1 8 9
M  V30 9 1 9 10
M  V30 10 1 10 11
M  V30 11 1 11 12
M  V30 12 1 12 13
M  V30 13 1 13 14
M  V30 14 2 14 15
M  V30 15 1 15 16
M  V30 16 2 16 17
M  V30 17 1 17 18
M  V30 18 2 18 19
M  V30 19 1 19 20
M  V30 20 2 20 21
M  V30 21 1 21 22
M  V30 22 2 22 23
M  V30 23 2 12 24
M  V30 24 1 24 25
M  V30 25 1 25 26
M  V30 26 3 26 27
M  V30 27 1 6 28
M  V30 28 2 28 29
M  V30 29 1 29 30
M  V30 30 1 30 31
M  V30 31 1 29 3
M  V30 32 2 25 10
M  V30 33 1 23 14
M  V30 34 1 23 18
M  V30 35 1 1 32
M  V30 36 1 1 33
M  V30 37 1 1 34
M  V30 38 1 4 35
M  V30 39 1 5 36
M  V30 40 1 7 37
M  V30 41 1 7 38
M  V30 42 1 8 39
M  V30 43 1 8 40
M  V30 44 1 9 41
M  V30 45 1 13 42
M  V30 46 1 13 43
M  V30 47 1 15 44
M  V30 48 1 16 45
M  V30 49 1 17 46
M  V30 50 1 19 47
M  V30 51 1 20 48
M  V30 52 1 21 49
M  V30 53 1 22 50
M  V30 54 1 28 51
M  V30 55 1 31 52
M  V30 56 1 31 53
M  V30 57 1 31 54
M  V30 END BOND
M  V30 END CTAB
M  END
>  <Dataset>  (155) 
ChEMBL_Kinases

>  <Ligand_Instance>  (155) 
nan

>  <PDB_ID>  (155) 
nan

>  <Standardized_SMILES>  (155) 
COc1ccc(CCNc2oc(Cc3cccc4ccccc34)nc2C#N)cc1OC

>  <Name>  (155) 
nan

>  <Pocket>  (155) 
nan

>  <ATP_Site>  (155) 
nan

>  <Peripheral>  (155) 
nan

>  <Num_H_Atoms_ProtBoundConf>  (155) 
nan

>  <Num_Resolved_Atoms>  (155) 
nan

>  <Num_Not_Resolved_Atoms>  (155) 
nan

$$$$
CHEMBL1469115
     RDKit          3D

  0  0  0  0  0  0  0  0  0  0999 V3000
M  V30 BEGIN CTAB
M  V30 COUNTS 50 50 0 0 0
M  V30 BEGIN ATOM
M  V30 1 C 0.427075 -5.297129 -1.204649 0
M  V30 2 C 1.791887 -5.613452 -1.727289 0
M  V30 3 C 2.893331 -4.793069 -1.151449 0
M  V30 4 C 2.880937 -3.340180 -1.409569 0
M  V30 5 C 1.731273 -2.526042 -0.950155 0
M  V30 6 C 1.923336 -1.025975 -1.275712 0
M  V30 7 C 3.116980 -0.435801 -0.643204 0
M  V30 8 C 3.165893 -0.492111 0.844372 0
M  V30 9 C 2.034429 0.212329 1.531578 0
M  V30 10 C 1.969041 1.680352 1.202045 0
M  V30 11 O 0.870286 2.227490 1.903984 0
M  V30 12 C -0.439308 1.852336 1.756928 0
M  V30 13 O -0.770014 0.969065 0.962305 0
M  V30 14 N -1.472284 2.467417 2.516006 0
M  V30 15 C -2.831803 2.048286 2.334526 0
M  V30 16 C -3.611331 3.270884 1.894013 0
M  V30 17 C -5.053116 2.843272 1.711415 0
M  V30 18 S -5.223735 1.593430 2.965906 0
M  V30 19 O -6.202646 1.969886 4.029209 0
M  V30 20 O -5.574319 0.266080 2.359238 0
M  V30 21 C -3.532713 1.595852 3.585519 0
M  V30 22 H -0.084671 -6.281084 -0.923667 0
M  V30 23 H 0.434196 -4.748765 -0.244953 0
M  V30 24 H -0.261247 -4.841857 -1.966363 0
M  V30 25 H 1.980358 -6.714419 -1.590614 0
M  V30 26 H 1.734979 -5.482438 -2.848677 0
M  V30 27 H 3.852383 -5.241575 -1.581357 0
M  V30 28 H 2.985738 -5.027817 -0.052889 0
M  V30 29 H 3.044193 -3.110966 -2.506297 0
M  V30 30 H 3.808874 -2.891528 -0.915893 0
M  V30 31 H 0.809507 -2.857715 -1.518490 0
M  V30 32 H 1.497883 -2.644607 0.114423 0
M  V30 33 H 2.054551 -0.988970 -2.376681 0
M  V30 34 H 0.971447 -0.562249 -1.057062 0
M  V30 35 H 3.237193 0.650712 -0.939931 0
M  V30 36 H 4.030221 -0.910108 -1.045430 0
M  V30 37 H 3.159304 -1.535476 1.217682 0
M  V30 38 H 4.112887 -0.034141 1.197970 0
M  V30 39 H 2.304756 0.180976 2.629887 0
M  V30 40 H 1.082130 -0.322767 1.482395 0
M  V30 41 H 1.884187 1.855839 0.105431 0
M  V30 42 H 2.916756 2.169593 1.503769 0
M  V30 43 H -1.289097 3.224378 3.213507 0
M  V30 44 H -2.939817 1.259160 1.592350 0
M  V30 45 H -3.197040 3.601903 0.906575 0
M  V30 46 H -3.593702 4.078415 2.634049 0
M  V30 47 H -5.721904 3.704457 1.968821 0
M  V30 48 H -5.253983 2.471213 0.691003 0
M  V30 49 H -3.209700 0.572469 3.838700 0
M  V30 50 H -3.542058 2.313009 4.405985 0
M  V30 END ATOM
M  V30 BEGIN BOND
M  V30 1 1 1 2
M  V30 2 1 2 3
M  V30 3 1 3 4
M  V30 4 1 4 5
M  V30 5 1 5 6
M  V30 6 1 6 7
M  V30 7 1 7 8
M  V30 8 1 8 9
M  V30 9 1 9 10
M  V30 10 1 10 11
M  V30 11 1 11 12
M  V30 12 2 12 13
M  V30 13 1 12 14
M  V30 14 1 14 15
M  V30 15 1 15 16
M  V30 16 1 16 17
M  V30 17 1 17 18
M  V30 18 2 18 19
M  V30 19 2 18 20
M  V30 20 1 18 21
M  V30 21 1 21 15
M  V30 22 1 1 22
M  V30 23 1 1 23
M  V30 24 1 1 24
M  V30 25 1 2 25
M  V30 26 1 2 26
M  V30 27 1 3 27
M  V30 28 1 3 28
M  V30 29 1 4 29
M  V30 30 1 4 30
M  V30 31 1 5 31
M  V30 32 1 5 32
M  V30 33 1 6 33
M  V30 34 1 6 34
M  V30 35 1 7 35
M  V30 36 1 7 36
M  V30 37 1 8 37
M  V30 38 1 8 38
M  V30 39 1 9 39
M  V30 40 1 9 40
M  V30 41 1 10 41
M  V30 42 1 10 42
M  V30 43 1 14 43
M  V30 44 1 15 44
M  V30 45 1 16 45
M  V30 46 1 16 46
M  V30 47 1 17 47
M  V30 48 1 17 48
M  V30 49 1 21 49
M  V30 50 1 21 50
M  V30 END BOND
M  V30 END CTAB
M  END
>  <Dataset>  (156) 
ChEMBL_Kinases

>  <Ligand_Instance>  (156) 
nan

>  <PDB_ID>  (156) 
nan

>  <Standardized_SMILES>  (156) 
CCCCCCCCCCOC(=O)NC1CCS(=O)(=O)C1

>  <Name>  (156) 
nan

>  <Pocket>  (156) 
nan

>  <ATP_Site>  (156) 
nan

>  <Peripheral>  (156) 
nan

>  <Num_H_Atoms_ProtBoundConf>  (156) 
nan

>  <Num_Resolved_Atoms>  (156) 
nan

>  <Num_Not_Resolved_Atoms>  (156) 
nan

$$$$
CHEMBL1469138
     RDKit          3D

  0  0  0  0  0  0  0  0  0  0999 V3000
M  V30 BEGIN CTAB
M  V30 COUNTS 39 41 0 0 0
M  V30 BEGIN ATOM
M  V30 1 C 1.359230 -4.470709 6.998134 0
M  V30 2 O 1.832149 -4.903687 5.744244 0
M  V30 3 C 1.769652 -4.118211 4.603491 0
M  V30 4 C 2.210270 -4.473992 3.349806 0
M  V30 5 C 2.145134 -3.695899 2.233646 0
M  V30 6 C 1.598161 -2.430834 2.312787 0
M  V30 7 C 1.442938 -1.504915 1.318252 0
M  V30 8 Cl 1.935042 -1.741802 -0.369765 0
M  V30 9 C 0.896627 -0.327765 1.552306 0
M  V30 10 C 0.528114 0.914192 0.906645 0
M  V30 11 O -0.016456 1.863957 1.541117 0
M  V30 12 N 0.692199 1.275848 -0.446696 0
M  V30 13 C 0.296600 2.521436 -0.982562 0
M  V30 14 C -1.151312 2.877029 -0.884058 0
M  V30 15 C -2.070714 1.919503 -1.574946 0
M  V30 16 N -1.860915 1.767089 -2.980390 0
M  V30 17 C -1.014584 0.832950 -3.495446 0
M  V30 18 C -1.016554 0.920207 -4.868029 0
M  V30 19 N -1.864936 1.909933 -5.212689 0
M  V30 20 C -2.368289 2.413663 -4.069215 0
M  V30 21 S 0.518226 -0.394713 3.297179 0
M  V30 22 C 1.159298 -2.078161 3.564506 0
M  V30 23 C 1.219058 -2.860639 4.711636 0
M  V30 24 H 2.087827 -3.879439 7.583057 0
M  V30 25 H 1.141767 -5.395578 7.591201 0
M  V30 26 H 0.413271 -3.899728 6.957746 0
M  V30 27 H 2.646121 -5.478086 3.279616 0
M  V30 28 H 2.543112 -4.129856 1.303290 0
M  V30 29 H 1.144292 0.541301 -1.070179 0
M  V30 30 H 0.866313 3.340317 -0.497447 0
M  V30 31 H 0.562137 2.588154 -2.058502 0
M  V30 32 H -1.531688 3.083844 0.116039 0
M  V30 33 H -1.252466 3.858197 -1.436485 0
M  V30 34 H -3.109549 2.268895 -1.331786 0
M  V30 35 H -1.980182 0.940056 -1.065653 0
M  V30 36 H -0.425681 0.126512 -2.942624 0
M  V30 37 H -0.497562 0.375594 -5.639608 0
M  V30 38 H -3.084730 3.220891 -3.898947 0
M  V30 39 H 0.825045 -2.416361 5.606440 0
M  V30 END ATOM
M  V30 BEGIN BOND
M  V30 1 1 1 2
M  V30 2 1 2 3
M  V30 3 2 3 4
M  V30 4 1 4 5
M  V30 5 2 5 6
M  V30 6 1 6 7
M  V30 7 1 7 8
M  V30 8 2 7 9
M  V30 9 1 9 10
M  V30 10 2 10 11
M  V30 11 1 10 12
M  V30 12 1 12 13
M  V30 13 1 13 14
M  V30 14 1 14 15
M  V30 15 1 15 16
M  V30 16 1 16 17
M  V30 17 2 17 18
M  V30 18 1 18 19
M  V30 19 2 19 20
M  V30 20 1 9 21
M  V30 21 1 21 22
M  V30 22 2 22 23
M  V30 23 1 23 3
M  V30 24 1 22 6
M  V30 25 1 20 16
M  V30 26 1 1 24
M  V30 27 1 1 25
M  V30 28 1 1 26
M  V30 29 1 4 27
M  V30 30 1 5 28
M  V30 31 1 12 29
M  V30 32 1 13 30
M  V30 33 1 13 31
M  V30 34 1 14 32
M  V30 35 1 14 33
M  V30 36 1 15 34
M  V30 37 1 15 35
M  V30 38 1 17 36
M  V30 39 1 18 37
M  V30 40 1 20 38
M  V30 41 1 23 39
M  V30 END BOND
M  V30 END CTAB
M  END
>  <Dataset>  (157) 
ChEMBL_Kinases

>  <Ligand_Instance>  (157) 
nan

>  <PDB_ID>  (157) 
nan

>  <Standardized_SMILES>  (157) 
COc1ccc2c(Cl)c(C(=O)NCCCn3ccnc3)sc2c1

>  <Name>  (157) 
nan

>  <Pocket>  (157) 
nan

>  <ATP_Site>  (157) 
nan

>  <Peripheral>  (157) 
nan

>  <Num_H_Atoms_ProtBoundConf>  (157) 
nan

>  <Num_Resolved_Atoms>  (157) 
nan

>  <Num_Not_Resolved_Atoms>  (157) 
nan

$$$$
CHEMBL1469227
     RDKit          3D

  0  0  0  0  0  0  0  0  0  0999 V3000
M  V30 BEGIN CTAB
M  V30 COUNTS 56 58 0 0 0
M  V30 BEGIN ATOM
M  V30 1 C 0.328227 -1.688479 2.976453 0
M  V30 2 C 0.186945 -0.293089 3.582334 0
M  V30 3 C 1.543879 0.065567 4.099154 0
M  V30 4 C 1.744115 -0.011472 5.465542 0
M  V30 5 C 3.013354 0.326749 5.901657 0
M  V30 6 C 4.011637 0.714131 5.031969 0
M  V30 7 C 3.755649 0.773782 3.673427 0
M  V30 8 C 4.812129 1.188906 2.703230 0
M  V30 9 C 2.505932 0.448100 3.173549 0
M  V30 10 N 2.172784 0.491160 1.776662 0
M  V30 11 C 2.034713 1.684123 1.249900 0
M  V30 12 S 2.305250 2.996279 2.442812 0
M  V30 13 N 1.715859 2.011584 -0.079758 0
M  V30 14 C 1.385601 0.884909 -0.925898 0
M  V30 15 C 0.091327 0.236428 -0.539916 0
M  V30 16 C -1.079086 1.201699 -0.631704 0
M  V30 17 C -2.240320 0.205125 -0.566230 0
M  V30 18 N -1.753913 -0.859627 -1.444370 0
M  V30 19 C -2.555223 -1.875569 -2.043343 0
M  V30 20 C -1.979383 -2.836654 -2.881296 0
M  V30 21 C -2.768658 -3.812944 -3.451135 0
M  V30 22 C -4.124418 -3.861330 -3.209197 0
M  V30 23 O -5.098171 -4.735269 -3.663665 0
M  V30 24 C -4.728085 -5.787007 -4.528521 0
M  V30 25 C -4.712639 -2.904157 -2.371416 0
M  V30 26 C -3.911720 -1.911387 -1.791993 0
M  V30 27 C -0.302313 -0.745184 -1.631200 0
M  V30 28 H 1.325465 -1.796309 2.497874 0
M  V30 29 H 0.130184 -2.458723 3.759558 0
M  V30 30 H -0.450448 -1.770891 2.201424 0
M  V30 31 H -0.559020 -0.370110 4.376340 0
M  V30 32 H -0.120913 0.383678 2.771997 0
M  V30 33 H 0.920927 -0.322909 6.110172 0
M  V30 34 H 3.174302 0.265219 6.987870 0
M  V30 35 H 4.981873 0.965233 5.441810 0
M  V30 36 H 4.513112 0.960423 1.677671 0
M  V30 37 H 5.683889 0.509478 2.934502 0
M  V30 38 H 5.176080 2.216384 2.870148 0
M  V30 39 H 3.118146 4.010304 1.904338 0
M  V30 40 H 1.738289 3.016783 -0.360770 0
M  V30 41 H 1.213015 1.311797 -1.953224 0
M  V30 42 H 2.219351 0.195039 -1.032477 0
M  V30 43 H 0.124006 -0.211659 0.453168 0
M  V30 44 H -1.103111 1.915930 0.200075 0
M  V30 45 H -1.119701 1.652586 -1.626614 0
M  V30 46 H -2.288633 -0.256118 0.441482 0
M  V30 47 H -3.184352 0.630416 -0.914537 0
M  V30 48 H -0.939869 -2.837121 -3.095546 0
M  V30 49 H -2.433096 -4.598503 -4.111661 0
M  V30 50 H -4.644180 -5.432175 -5.590396 0
M  V30 51 H -3.724847 -6.154529 -4.237628 0
M  V30 52 H -5.450032 -6.632771 -4.473742 0
M  V30 53 H -5.751910 -2.820246 -2.096148 0
M  V30 54 H -4.331741 -1.149199 -1.134263 0
M  V30 55 H -0.163833 -0.231539 -2.612098 0
M  V30 56 H 0.217076 -1.702705 -1.583527 0
M  V30 END ATOM
M  V30 BEGIN BOND
M  V30 1 1 1 2
M  V30 2 1 2 3
M  V30 3 2 3 4
M  V30 4 1 4 5
M  V30 5 2 5 6
M  V30 6 1 6 7
M  V30 7 1 7 8
M  V30 8 2 7 9
M  V30 9 1 9 10
M  V30 10 2 10 11 CFG=2
M  V30 11 1 11 12
M  V30 12 1 11 13
M  V30 13 1 13 14
M  V30 14 1 14 15
M  V30 15 1 15 16
M  V30 16 1 16 17
M  V30 17 1 17 18
M  V30 18 1 18 19
M  V30 19 2 19 20
M  V30 20 1 20 21
M  V30 21 2 21 22
M  V30 22 1 22 23
M  V30 23 1 23 24
M  V30 24 1 22 25
M  V30 25 2 25 26
M  V30 26 1 18 27
M  V30 27 1 9 3
M  V30 28 1 27 15
M  V30 29 1 26 19
M  V30 30 1 1 28
M  V30 31 1 1 29
M  V30 32 1 1 30
M  V30 33 1 2 31
M  V30 34 1 2 32
M  V30 35 1 4 33
M  V30 36 1 5 34
M  V30 37 1 6 35
M  V30 38 1 8 36
M  V30 39 1 8 37
M  V30 40 1 8 38
M  V30 41 1 12 39
M  V30 42 1 13 40
M  V30 43 1 14 41
M  V30 44 1 14 42
M  V30 45 1 15 43
M  V30 46 1 16 44
M  V30 47 1 16 45
M  V30 48 1 17 46
M  V30 49 1 17 47
M  V30 50 1 20 48
M  V30 51 1 21 49
M  V30 52 1 24 50
M  V30 53 1 24 51
M  V30 54 1 24 52
M  V30 55 1 25 53
M  V30 56 1 26 54
M  V30 57 1 27 55
M  V30 58 1 27 56
M  V30 END BOND
M  V30 END CTAB
M  END
>  <Dataset>  (158) 
ChEMBL_Kinases

>  <Ligand_Instance>  (158) 
nan

>  <PDB_ID>  (158) 
nan

>  <Standardized_SMILES>  (158) 
CCc1cccc(C)c1N=C(S)NCC1CCN(c2ccc(OC)cc2)C1

>  <Name>  (158) 
nan

>  <Pocket>  (158) 
nan

>  <ATP_Site>  (158) 
nan

>  <Peripheral>  (158) 
nan

>  <Num_H_Atoms_ProtBoundConf>  (158) 
nan

>  <Num_Resolved_Atoms>  (158) 
nan

>  <Num_Not_Resolved_Atoms>  (158) 
nan

$$$$
CHEMBL1469307
     RDKit          3D

  0  0  0  0  0  0  0  0  0  0999 V3000
M  V30 BEGIN CTAB
M  V30 COUNTS 44 46 0 0 0
M  V30 BEGIN ATOM
M  V30 1 C -0.366254 -9.069414 -1.574227 0
M  V30 2 C 0.031382 -7.661907 -1.341471 0
M  V30 3 O 1.231000 -7.411629 -1.064612 0
M  V30 4 N -0.934537 -6.596799 -1.429439 0
M  V30 5 C -0.513366 -5.252452 -1.198421 0
M  V30 6 C -0.052987 -4.403384 -2.183907 0
M  V30 7 C 0.346415 -3.107415 -1.923903 0
M  V30 8 C 0.263977 -2.689734 -0.611956 0
M  V30 9 N 0.661802 -1.368879 -0.288351 0
M  V30 10 C -0.199232 -0.237946 -0.293182 0
M  V30 11 O -1.375716 -0.524102 -0.618461 0
M  V30 12 C 0.266495 1.102484 0.049172 0
M  V30 13 C -0.541234 2.219929 0.053972 0
M  V30 14 C 0.361604 3.220218 0.439540 0
M  V30 15 C 1.631269 2.663983 0.640707 0
M  V30 16 C 2.850546 3.408600 1.055960 0
M  V30 17 S 2.905894 3.401191 2.881425 0
M  V30 18 C 1.549830 4.347361 3.553484 0
M  V30 19 C 0.292137 3.896049 3.881119 0
M  V30 20 C -0.661201 4.744252 4.395020 0
M  V30 21 C -0.349588 6.094666 4.590239 0
M  V30 22 C 0.910455 6.547682 4.262253 0
M  V30 23 C 1.882693 5.693009 3.740420 0
M  V30 24 O 1.491167 1.384857 0.385536 0
M  V30 25 C -0.188085 -3.487509 0.427419 0
M  V30 26 C -0.584187 -4.797029 0.121282 0
M  V30 27 H 0.130747 -9.489045 -2.481098 0
M  V30 28 H -1.462429 -9.177229 -1.700732 0
M  V30 29 H -0.006401 -9.725174 -0.731523 0
M  V30 30 H -1.914984 -6.882305 -1.664159 0
M  V30 31 H -0.021702 -4.812501 -3.182181 0
M  V30 32 H 0.700931 -2.455778 -2.689677 0
M  V30 33 H 1.681933 -1.218784 -0.022776 0
M  V30 34 H -1.588031 2.364271 -0.166946 0
M  V30 35 H 0.165376 4.292079 0.579695 0
M  V30 36 H 3.749743 2.844738 0.736115 0
M  V30 37 H 2.862403 4.440911 0.649577 0
M  V30 38 H 0.179277 2.840445 3.683860 0
M  V30 39 H -1.609742 4.270991 4.612324 0
M  V30 40 H -1.149391 6.686511 4.994735 0
M  V30 41 H 1.095912 7.605005 4.435038 0
M  V30 42 H 2.839243 6.153455 3.517624 0
M  V30 43 H -0.224370 -3.084169 1.442366 0
M  V30 44 H -0.940909 -5.440326 0.915729 0
M  V30 END ATOM
M  V30 BEGIN BOND
M  V30 1 1 1 2
M  V30 2 2 2 3
M  V30 3 1 2 4
M  V30 4 1 4 5
M  V30 5 2 5 6
M  V30 6 1 6 7
M  V30 7 2 7 8
M  V30 8 1 8 9
M  V30 9 1 9 10
M  V30 10 2 10 11
M  V30 11 1 10 12
M  V30 12 2 12 13
M  V30 13 1 13 14
M  V30 14 2 14 15
M  V30 15 1 15 16
M  V30 16 1 16 17
M  V30 17 1 17 18
M  V30 18 2 18 19
M  V30 19 1 19 20
M  V30 20 2 20 21
M  V30 21 1 21 22
M  V30 22 2 22 23
M  V30 23 1 15 24
M  V30 24 1 8 25
M  V30 25 2 25 26
M  V30 26 1 26 5
M  V30 27 1 24 12
M  V30 28 1 23 18
M  V30 29 1 1 27
M  V30 30 1 1 28
M  V30 31 1 1 29
M  V30 32 1 4 30
M  V30 33 1 6 31
M  V30 34 1 7 32
M  V30 35 1 9 33
M  V30 36 1 13 34
M  V30 37 1 14 35
M  V30 38 1 16 36
M  V30 39 1 16 37
M  V30 40 1 19 38
M  V30 41 1 20 39
M  V30 42 1 21 40
M  V30 43 1 22 41
M  V30 44 1 23 42
M  V30 45 1 25 43
M  V30 46 1 26 44
M  V30 END BOND
M  V30 END CTAB
M  END
>  <Dataset>  (159) 
ChEMBL_Kinases

>  <Ligand_Instance>  (159) 
nan

>  <PDB_ID>  (159) 
nan

>  <Standardized_SMILES>  (159) 
CC(=O)Nc1ccc(NC(=O)c2ccc(CSc3ccccc3)o2)cc1

>  <Name>  (159) 
nan

>  <Pocket>  (159) 
nan

>  <ATP_Site>  (159) 
nan

>  <Peripheral>  (159) 
nan

>  <Num_H_Atoms_ProtBoundConf>  (159) 
nan

>  <Num_Resolved_Atoms>  (159) 
nan

>  <Num_Not_Resolved_Atoms>  (159) 
nan

$$$$
CHEMBL1469355
     RDKit          3D

  0  0  0  0  0  0  0  0  0  0999 V3000
M  V30 BEGIN CTAB
M  V30 COUNTS 48 51 0 0 0
M  V30 BEGIN ATOM
M  V30 1 C 2.559230 -4.521269 1.459632 0
M  V30 2 C 2.805404 -3.701558 0.236299 0
M  V30 3 N 1.596833 -3.292766 -0.463620 0
M  V30 4 C 1.088757 -4.527921 -0.961740 0
M  V30 5 C 0.091859 -4.358961 -2.081908 0
M  V30 6 C 1.198995 -1.938411 -0.546151 0
M  V30 7 C 2.022562 -0.930073 -0.170755 0
M  V30 8 C 1.606122 0.404645 -0.172649 0
M  V30 9 C 0.310236 0.767083 -0.564718 0
M  V30 10 C -0.031118 2.211895 -0.515431 0
M  V30 11 N 0.494376 2.798397 0.739348 0
M  V30 12 C -0.023911 2.438426 2.014346 0
M  V30 13 C 0.832003 2.488663 3.119513 0
M  V30 14 C 0.303616 2.133265 4.345786 0
M  V30 15 C -1.013606 1.753949 4.422957 0
M  V30 16 C -1.844303 1.715301 3.294982 0
M  V30 17 C -3.159295 1.328838 3.417911 0
M  V30 18 C -3.930663 1.312088 2.253869 0
M  V30 19 C -3.401874 1.665985 1.027465 0
M  V30 20 C -2.065090 2.061670 0.877822 0
M  V30 21 C -1.349687 2.062956 2.058044 0
M  V30 22 N -1.482547 2.430704 -0.381340 0
M  V30 23 C -0.531411 -0.260732 -0.949718 0
M  V30 24 O -1.781335 0.171465 -1.321638 0
M  V30 25 C -0.040954 -1.541117 -0.916810 0
M  V30 26 H 1.584624 -4.220737 1.882324 0
M  V30 27 H 2.615347 -5.628523 1.269170 0
M  V30 28 H 3.337104 -4.275895 2.225229 0
M  V30 29 H 3.377136 -2.828159 0.531209 0
M  V30 30 H 3.485765 -4.278651 -0.447272 0
M  V30 31 H 0.497446 -5.000674 -0.100715 0
M  V30 32 H 1.850582 -5.284039 -1.243648 0
M  V30 33 H 0.170563 -5.252139 -2.791319 0
M  V30 34 H 0.325116 -3.456463 -2.677436 0
M  V30 35 H -0.957955 -4.382659 -1.771419 0
M  V30 36 H 3.036431 -1.007194 0.142448 0
M  V30 37 H 2.285732 1.215489 0.131548 0
M  V30 38 H 0.368600 2.753900 -1.374913 0
M  V30 39 H 1.275836 3.501800 0.656645 0
M  V30 40 H 1.862180 2.794958 2.972374 0
M  V30 41 H 0.981298 2.174367 5.191740 0
M  V30 42 H -1.393641 1.482650 5.396639 0
M  V30 43 H -3.586302 1.051156 4.369373 0
M  V30 44 H -4.955372 1.010701 2.362797 0
M  V30 45 H -4.024251 1.644568 0.139235 0
M  V30 46 H -2.229915 2.809392 -1.013812 0
M  V30 47 H -2.574332 -0.478982 -1.360335 0
M  V30 48 H -0.842168 -2.184601 -1.216631 0
M  V30 END ATOM
M  V30 BEGIN BOND
M  V30 1 1 1 2
M  V30 2 1 2 3
M  V30 3 1 3 4
M  V30 4 1 4 5
M  V30 5 1 3 6
M  V30 6 2 6 7
M  V30 7 1 7 8
M  V30 8 2 8 9
M  V30 9 1 9 10
M  V30 10 1 10 11
M  V30 11 1 11 12
M  V30 12 2 12 13
M  V30 13 1 13 14
M  V30 14 2 14 15
M  V30 15 1 15 16
M  V30 16 2 16 17
M  V30 17 1 17 18
M  V30 18 2 18 19
M  V30 19 1 19 20
M  V30 20 2 20 21
M  V30 21 1 20 22
M  V30 22 1 9 23
M  V30 23 1 23 24
M  V30 24 2 23 25
M  V30 25 1 25 6
M  V30 26 1 22 10
M  V30 27 1 21 12
M  V30 28 1 21 16
M  V30 29 1 1 26
M  V30 30 1 1 27
M  V30 31 1 1 28
M  V30 32 1 2 29
M  V30 33 1 2 30
M  V30 34 1 4 31
M  V30 35 1 4 32
M  V30 36 1 5 33
M  V30 37 1 5 34
M  V30 38 1 5 35
M  V30 39 1 7 36
M  V30 40 1 8 37
M  V30 41 1 10 38
M  V30 42 1 11 39
M  V30 43 1 13 40
M  V30 44 1 14 41
M  V30 45 1 15 42
M  V30 46 1 17 43
M  V30 47 1 18 44
M  V30 48 1 19 45
M  V30 49 1 22 46
M  V30 50 1 24 47
M  V30 51 1 25 48
M  V30 END BOND
M  V30 END CTAB
M  END
>  <Dataset>  (160) 
ChEMBL_Kinases

>  <Ligand_Instance>  (160) 
nan

>  <PDB_ID>  (160) 
nan

>  <Standardized_SMILES>  (160) 
CCN(CC)c1ccc(C2Nc3cccc4cccc(c34)N2)c(O)c1

>  <Name>  (160) 
nan

>  <Pocket>  (160) 
nan

>  <ATP_Site>  (160) 
nan

>  <Peripheral>  (160) 
nan

>  <Num_H_Atoms_ProtBoundConf>  (160) 
nan

>  <Num_Resolved_Atoms>  (160) 
nan

>  <Num_Not_Resolved_Atoms>  (160) 
nan

$$$$
CHEMBL1468526
     RDKit          3D

  0  0  0  0  0  0  0  0  0  0999 V3000
M  V30 BEGIN CTAB
M  V30 COUNTS 29 30 0 0 0
M  V30 BEGIN ATOM
M  V30 1 C -1.491484 -3.337680 2.267447 0
M  V30 2 C -0.192537 -2.683031 2.756098 0
M  V30 3 O -0.002745 -1.522847 1.969339 0
M  V30 4 C 1.054839 -0.652517 2.095403 0
M  V30 5 O 1.789650 -1.089936 3.023113 0
M  V30 6 C 0.964044 0.467194 1.121694 0
M  V30 7 C 0.964084 -0.016271 -0.305679 0
M  V30 8 C 1.743423 0.587381 -1.310049 0
M  V30 9 S 1.357560 -0.381917 -2.784733 0
M  V30 10 C 0.168059 -1.478914 -1.768459 0
M  V30 11 N -0.633184 -2.620202 -2.267315 0
M  V30 12 N 0.242565 -1.027770 -0.707256 0
M  V30 13 C 2.014931 1.513411 1.336145 0
M  V30 14 O 1.423192 2.694741 0.778584 0
M  V30 15 C 0.025939 2.544483 0.802496 0
M  V30 16 O -0.652645 3.481713 0.295706 0
M  V30 17 C -0.291961 1.243828 1.457848 0
M  V30 18 H -1.358744 -3.670588 1.215244 0
M  V30 19 H -1.674460 -4.259563 2.852866 0
M  V30 20 H -2.313159 -2.622418 2.373443 0
M  V30 21 H 0.647101 -3.380191 2.712843 0
M  V30 22 H -0.419271 -2.332340 3.790456 0
M  V30 23 H 2.403440 1.443562 -1.146503 0
M  V30 24 H -1.488917 -2.592780 -2.833682 0
M  V30 25 H -0.209768 -3.506934 -1.963548 0
M  V30 26 H 2.159977 1.633906 2.436375 0
M  V30 27 H 2.964589 1.338285 0.810358 0
M  V30 28 H -0.263980 1.404393 2.544923 0
M  V30 29 H -1.207642 0.770602 1.095536 0
M  V30 END ATOM
M  V30 BEGIN BOND
M  V30 1 1 1 2
M  V30 2 1 2 3
M  V30 3 1 3 4
M  V30 4 2 4 5
M  V30 5 1 4 6
M  V30 6 1 6 7
M  V30 7 2 7 8
M  V30 8 1 8 9
M  V30 9 1 9 10
M  V30 10 1 10 11
M  V30 11 2 10 12
M  V30 12 1 6 13
M  V30 13 1 13 14
M  V30 14 1 14 15
M  V30 15 2 15 16
M  V30 16 1 15 17
M  V30 17 1 17 6
M  V30 18 1 12 7
M  V30 19 1 1 18
M  V30 20 1 1 19
M  V30 21 1 1 20
M  V30 22 1 2 21
M  V30 23 1 2 22
M  V30 24 1 8 23
M  V30 25 1 11 24
M  V30 26 1 11 25
M  V30 27 1 13 26
M  V30 28 1 13 27
M  V30 29 1 17 28
M  V30 30 1 17 29
M  V30 END BOND
M  V30 END CTAB
M  END
>  <Dataset>  (161) 
ChEMBL_Kinases

>  <Ligand_Instance>  (161) 
nan

>  <PDB_ID>  (161) 
nan

>  <Standardized_SMILES>  (161) 
CCOC(=O)C1(c2csc(N)n2)COC(=O)C1

>  <Name>  (161) 
nan

>  <Pocket>  (161) 
nan

>  <ATP_Site>  (161) 
nan

>  <Peripheral>  (161) 
nan

>  <Num_H_Atoms_ProtBoundConf>  (161) 
nan

>  <Num_Resolved_Atoms>  (161) 
nan

>  <Num_Not_Resolved_Atoms>  (161) 
nan

$$$$
CHEMBL1474281
     RDKit          3D

  0  0  0  0  0  0  0  0  0  0999 V3000
M  V30 BEGIN CTAB
M  V30 COUNTS 48 50 0 0 0
M  V30 BEGIN ATOM
M  V30 1 C 0.535352 -4.909752 2.462361 0
M  V30 2 O -0.090644 -4.961504 1.236108 0
M  V30 3 C 0.526010 -4.164320 0.271194 0
M  V30 4 C -0.216090 -4.274639 -1.040047 0
M  V30 5 N -1.564158 -3.836044 -0.856474 0
M  V30 6 C -1.896476 -2.507026 -0.490555 0
M  V30 7 N -0.908960 -1.632809 -0.320767 0
M  V30 8 C -1.093444 -0.338895 0.019856 0
M  V30 9 C -0.015574 0.625719 0.210650 0
M  V30 10 C 1.308537 0.275857 0.064691 0
M  V30 11 C 2.396191 1.112291 0.224449 0
M  V30 12 C 2.081089 2.421609 0.564155 0
M  V30 13 C 3.132632 3.440614 0.771859 0
M  V30 14 O 3.091541 4.022283 -0.322946 0
M  V30 15 N 3.835354 3.500774 1.998928 0
M  V30 16 C 3.562985 2.577745 3.093756 0
M  V30 17 C 4.845699 4.520812 2.136452 0
M  V30 18 C 0.752437 2.830075 0.724572 0
M  V30 19 C -0.296925 1.941016 0.550236 0
M  V30 20 N -2.365534 0.057228 0.189633 0
M  V30 21 C -3.415526 -0.768570 0.035344 0
M  V30 22 C -4.733821 -0.400160 0.200267 0
M  V30 23 C -5.806499 -1.240094 0.043706 0
M  V30 24 C -5.561635 -2.557709 -0.305529 0
M  V30 25 C -4.264410 -2.979982 -0.483149 0
M  V30 26 C -3.208452 -2.109375 -0.318290 0
M  V30 27 H -0.027003 -5.571694 3.153656 0
M  V30 28 H 1.583283 -5.299338 2.429819 0
M  V30 29 H 0.544335 -3.899945 2.910672 0
M  V30 30 H 1.590090 -4.527635 0.162318 0
M  V30 31 H 0.601104 -3.143981 0.671508 0
M  V30 32 H -0.084096 -5.284562 -1.441342 0
M  V30 33 H 0.267124 -3.498034 -1.709825 0
M  V30 34 H -2.235656 -4.612807 -1.025908 0
M  V30 35 H 1.470243 -0.760048 -0.200597 0
M  V30 36 H 3.419644 0.805176 0.102501 0
M  V30 37 H 3.267352 1.583696 2.663742 0
M  V30 38 H 2.745316 2.883022 3.747421 0
M  V30 39 H 4.530529 2.498113 3.663273 0
M  V30 40 H 5.265842 4.840599 1.150878 0
M  V30 41 H 5.706148 4.168719 2.738760 0
M  V30 42 H 4.472695 5.431180 2.689115 0
M  V30 43 H 0.510093 3.862674 0.990412 0
M  V30 44 H -1.315443 2.264565 0.675722 0
M  V30 45 H -4.892694 0.638999 0.474947 0
M  V30 46 H -6.820127 -0.919717 0.180601 0
M  V30 47 H -6.381073 -3.259059 -0.439696 0
M  V30 48 H -4.103357 -4.012287 -0.753711 0
M  V30 END ATOM
M  V30 BEGIN BOND
M  V30 1 1 1 2
M  V30 2 1 2 3
M  V30 3 1 3 4
M  V30 4 1 4 5
M  V30 5 1 5 6
M  V30 6 2 6 7
M  V30 7 1 7 8
M  V30 8 1 8 9
M  V30 9 2 9 10
M  V30 10 1 10 11
M  V30 11 2 11 12
M  V30 12 1 12 13
M  V30 13 2 13 14
M  V30 14 1 13 15
M  V30 15 1 15 16
M  V30 16 1 15 17
M  V30 17 1 12 18
M  V30 18 2 18 19
M  V30 19 2 8 20
M  V30 20 1 20 21
M  V30 21 2 21 22
M  V30 22 1 22 23
M  V30 23 2 23 24
M  V30 24 1 24 25
M  V30 25 2 25 26
M  V30 26 1 26 6
M  V30 27 1 19 9
M  V30 28 1 26 21
M  V30 29 1 1 27
M  V30 30 1 1 28
M  V30 31 1 1 29
M  V30 32 1 3 30
M  V30 33 1 3 31
M  V30 34 1 4 32
M  V30 35 1 4 33
M  V30 36 1 5 34
M  V30 37 1 10 35
M  V30 38 1 11 36
M  V30 39 1 16 37
M  V30 40 1 16 38
M  V30 41 1 16 39
M  V30 42 1 17 40
M  V30 43 1 17 41
M  V30 44 1 17 42
M  V30 45 1 18 43
M  V30 46 1 19 44
M  V30 47 1 22 45
M  V30 48 1 23 46
M  V30 49 1 24 47
M  V30 50 1 25 48
M  V30 END BOND
M  V30 END CTAB
M  END
>  <Dataset>  (162) 
ChEMBL_Kinases

>  <Ligand_Instance>  (162) 
nan

>  <PDB_ID>  (162) 
nan

>  <Standardized_SMILES>  (162) 
COCCNc1nc(-c2ccc(C(=O)N(C)C)cc2)nc2ccccc12

>  <Name>  (162) 
nan

>  <Pocket>  (162) 
nan

>  <ATP_Site>  (162) 
nan

>  <Peripheral>  (162) 
nan

>  <Num_H_Atoms_ProtBoundConf>  (162) 
nan

>  <Num_Resolved_Atoms>  (162) 
nan

>  <Num_Not_Resolved_Atoms>  (162) 
nan

$$$$
CHEMBL1474195
     RDKit          3D

  0  0  0  0  0  0  0  0  0  0999 V3000
M  V30 BEGIN CTAB
M  V30 COUNTS 39 41 0 0 0
M  V30 BEGIN ATOM
M  V30 1 C -0.103420 -5.128519 3.721445 0
M  V30 2 N -0.059993 -3.992506 2.909304 0
M  V30 3 C -0.015700 -2.862245 2.102266 0
M  V30 4 N 0.800223 -1.801818 2.054148 0
M  V30 5 C 0.689936 -0.788796 1.194319 0
M  V30 6 C 1.662400 0.290955 1.275952 0
M  V30 7 C 2.672626 0.281469 2.212077 0
M  V30 8 C 3.532989 1.340254 2.207117 0
M  V30 9 C 3.363865 2.360110 1.284612 0
M  V30 10 C 2.349065 2.380675 0.335840 0
M  V30 11 N 2.203391 3.436480 -0.592868 0
M  V30 12 S 0.753289 4.254467 -1.043769 0
M  V30 13 C -0.444774 3.202315 -1.781962 0
M  V30 14 O 1.146056 5.274073 -2.100635 0
M  V30 15 O 0.117102 4.981600 0.101603 0
M  V30 16 C 1.470847 1.290966 0.347729 0
M  V30 17 N -0.321380 -0.870461 0.330328 0
M  V30 18 C -1.210971 -1.847879 0.248834 0
M  V30 19 C -2.184721 -1.747768 -0.717123 0
M  V30 20 C -3.097502 -2.779382 -0.779399 0
M  V30 21 C -3.019307 -3.845214 0.090787 0
M  V30 22 C -2.011448 -3.864787 1.027673 0
M  V30 23 C -1.055421 -2.882886 1.166667 0
M  V30 24 H -0.265744 -4.968227 4.830212 0
M  V30 25 H 0.777266 -5.837349 3.668098 0
M  V30 26 H -0.959400 -5.828305 3.466781 0
M  V30 27 H 0.798283 -3.720621 3.488010 0
M  V30 28 H 2.786443 -0.522133 2.921062 0
M  V30 29 H 4.365343 1.441123 2.896649 0
M  V30 30 H 4.060063 3.213381 1.283455 0
M  V30 31 H 3.155518 3.675628 -1.001573 0
M  V30 32 H -1.119134 2.738640 -1.035984 0
M  V30 33 H 0.003582 2.399593 -2.392592 0
M  V30 34 H -1.116383 3.818060 -2.428583 0
M  V30 35 H 0.660690 1.270337 -0.381862 0
M  V30 36 H -2.203982 -0.889666 -1.377579 0
M  V30 37 H -3.884790 -2.752414 -1.519860 0
M  V30 38 H -3.727629 -4.649848 0.045544 0
M  V30 39 H -1.980312 -4.710110 1.689391 0
M  V30 END ATOM
M  V30 BEGIN BOND
M  V30 1 1 1 2
M  V30 2 1 2 3
M  V30 3 2 3 4
M  V30 4 1 4 5
M  V30 5 1 5 6
M  V30 6 2 6 7
M  V30 7 1 7 8
M  V30 8 2 8 9
M  V30 9 1 9 10
M  V30 10 1 10 11
M  V30 11 1 11 12
M  V30 12 1 12 13
M  V30 13 2 12 14
M  V30 14 2 12 15
M  V30 15 2 10 16
M  V30 16 2 5 17
M  V30 17 1 17 18
M  V30 18 2 18 19
M  V30 19 1 19 20
M  V30 20 2 20 21
M  V30 21 1 21 22
M  V30 22 2 22 23
M  V30 23 1 23 3
M  V30 24 1 16 6
M  V30 25 1 23 18
M  V30 26 1 1 24
M  V30 27 1 1 25
M  V30 28 1 1 26
M  V30 29 1 2 27
M  V30 30 1 7 28
M  V30 31 1 8 29
M  V30 32 1 9 30
M  V30 33 1 11 31
M  V30 34 1 13 32
M  V30 35 1 13 33
M  V30 36 1 13 34
M  V30 37 1 16 35
M  V30 38 1 19 36
M  V30 39 1 20 37
M  V30 40 1 21 38
M  V30 41 1 22 39
M  V30 END BOND
M  V30 END CTAB
M  END
>  <Dataset>  (163) 
ChEMBL_Kinases

>  <Ligand_Instance>  (163) 
nan

>  <PDB_ID>  (163) 
nan

>  <Standardized_SMILES>  (163) 
CNc1nc(-c2cccc(NS(C)(=O)=O)c2)nc2ccccc12

>  <Name>  (163) 
nan

>  <Pocket>  (163) 
nan

>  <ATP_Site>  (163) 
nan

>  <Peripheral>  (163) 
nan

>  <Num_H_Atoms_ProtBoundConf>  (163) 
nan

>  <Num_Resolved_Atoms>  (163) 
nan

>  <Num_Not_Resolved_Atoms>  (163) 
nan

$$$$
CHEMBL1474125
     RDKit          3D

  0  0  0  0  0  0  0  0  0  0999 V3000
M  V30 BEGIN CTAB
M  V30 COUNTS 50 52 0 0 0
M  V30 BEGIN ATOM
M  V30 1 C 4.548979 -6.843036 0.158614 0
M  V30 2 O 5.167340 -5.612907 0.395180 0
M  V30 3 C 4.412660 -4.383374 0.465411 0
M  V30 4 C 5.054670 -3.195946 0.703572 0
M  V30 5 C 4.491467 -1.961821 0.787817 0
M  V30 6 C 3.101437 -1.861539 0.609662 0
M  V30 7 N 2.220946 -0.761624 0.647985 0
M  V30 8 C 1.582771 -0.288300 1.798485 0
M  V30 9 O 1.928319 -0.991111 2.774367 0
M  V30 10 N 0.716320 0.821947 1.629457 0
M  V30 11 C -0.119286 1.521626 2.580870 0
M  V30 12 C -1.489351 1.254384 1.874474 0
M  V30 13 C -1.114953 1.724718 0.502090 0 CFG=2
M  V30 14 C -1.566135 3.202290 0.515619 0
M  V30 15 C -3.063096 3.192008 0.751176 0
M  V30 16 C -3.715469 1.928378 0.396929 0
M  V30 17 N -3.162748 1.199045 -0.699173 0
M  V30 18 S -3.762810 -0.397101 -0.882273 0
M  V30 19 C -3.300077 -1.484734 0.395502 0
M  V30 20 O -5.329410 -0.162368 -0.657006 0
M  V30 21 O -3.548104 -0.898661 -2.234054 0
M  V30 22 C -1.721795 1.125061 -0.682527 0
M  V30 23 C 0.407930 1.647499 0.482224 0
M  V30 24 C 2.466152 -3.076836 0.371459 0
M  V30 25 C 3.005034 -4.342653 0.284042 0
M  V30 26 H 4.380597 -7.013644 -0.945557 0
M  V30 27 H 3.596576 -6.990034 0.687933 0
M  V30 28 H 5.234608 -7.662704 0.473694 0
M  V30 29 H 6.128012 -3.104116 0.851717 0
M  V30 30 H 4.850400 -0.955382 0.969780 0
M  V30 31 H 2.157154 -0.435441 -0.347219 0
M  V30 32 H 0.064036 2.595200 2.587226 0
M  V30 33 H -0.089468 1.064564 3.589599 0
M  V30 34 H -2.245440 1.868553 2.396540 0
M  V30 35 H -1.642897 0.182999 1.880649 0
M  V30 36 H -1.234044 3.621500 -0.415855 0
M  V30 37 H -1.034571 3.722497 1.347877 0
M  V30 38 H -3.457292 4.028054 0.092878 0
M  V30 39 H -3.248422 3.505964 1.787342 0
M  V30 40 H -4.758557 2.246105 -0.099265 0
M  V30 41 H -4.083425 1.321859 1.175733 0
M  V30 42 H -3.589447 -1.138164 1.391083 0
M  V30 43 H -2.189230 -1.715792 0.377921 0
M  V30 44 H -3.853604 -2.454974 0.275537 0
M  V30 45 H -1.400210 0.091639 -0.923545 0
M  V30 46 H -1.403099 1.728528 -1.599869 0
M  V30 47 H 0.829218 1.297318 -0.465096 0
M  V30 48 H 0.776414 2.667681 0.772235 0
M  V30 49 H 1.370035 -3.181857 0.230160 0
M  V30 50 H 2.533390 -5.286735 0.107865 0
M  V30 END ATOM
M  V30 BEGIN BOND
M  V30 1 1 1 2
M  V30 2 1 2 3
M  V30 3 2 3 4
M  V30 4 1 4 5
M  V30 5 2 5 6
M  V30 6 1 6 7
M  V30 7 1 7 8
M  V30 8 2 8 9
M  V30 9 1 8 10
M  V30 10 1 10 11
M  V30 11 1 11 12
M  V30 12 1 13 12 CFG=1
M  V30 13 1 13 14
M  V30 14 1 14 15
M  V30 15 1 15 16
M  V30 16 1 16 17
M  V30 17 1 17 18
M  V30 18 1 18 19
M  V30 19 2 18 20
M  V30 20 2 18 21
M  V30 21 1 17 22
M  V30 22 1 13 23
M  V30 23 1 6 24
M  V30 24 2 24 25
M  V30 25 1 25 3
M  V30 26 1 23 10
M  V30 27 1 22 13
M  V30 28 1 1 26
M  V30 29 1 1 27
M  V30 30 1 1 28
M  V30 31 1 4 29
M  V30 32 1 5 30
M  V30 33 1 7 31
M  V30 34 1 11 32
M  V30 35 1 11 33
M  V30 36 1 12 34
M  V30 37 1 12 35
M  V30 38 1 14 36
M  V30 39 1 14 37
M  V30 40 1 15 38
M  V30 41 1 15 39
M  V30 42 1 16 40
M  V30 43 1 16 41
M  V30 44 1 19 42
M  V30 45 1 19 43
M  V30 46 1 19 44
M  V30 47 1 22 45
M  V30 48 1 22 46
M  V30 49 1 23 47
M  V30 50 1 23 48
M  V30 51 1 24 49
M  V30 52 1 25 50
M  V30 END BOND
M  V30 END CTAB
M  END
>  <Dataset>  (164) 
ChEMBL_Kinases

>  <Ligand_Instance>  (164) 
nan

>  <PDB_ID>  (164) 
nan

>  <Standardized_SMILES>  (164) 
COc1ccc(NC(=O)N2CC[C@@]3(CCCN(S(C)(=O)=O)C3)C2)cc1

>  <Name>  (164) 
nan

>  <Pocket>  (164) 
nan

>  <ATP_Site>  (164) 
nan

>  <Peripheral>  (164) 
nan

>  <Num_H_Atoms_ProtBoundConf>  (164) 
nan

>  <Num_Resolved_Atoms>  (164) 
nan

>  <Num_Not_Resolved_Atoms>  (164) 
nan

$$$$
CHEMBL1473996
     RDKit          3D

  0  0  0  0  0  0  0  0  0  0999 V3000
M  V30 BEGIN CTAB
M  V30 COUNTS 31 33 0 0 0
M  V30 BEGIN ATOM
M  V30 1 C -1.714959 -2.061703 3.527474 0
M  V30 2 C -1.025152 -2.782880 4.479140 0
M  V30 3 N 0.192599 -3.221553 4.152006 0
M  V30 4 C 0.786582 -3.013270 2.976089 0
M  V30 5 C 0.091064 -2.283629 2.010867 0
M  V30 6 C 0.718422 -2.040139 0.715212 0
M  V30 7 N 1.956663 -2.476280 0.341143 0
M  V30 8 C 2.473300 -2.221800 -0.851642 0
M  V30 9 C 1.787543 -1.493944 -1.800854 0
M  V30 10 C 0.535244 -1.045928 -1.439668 0
M  V30 11 N -0.250221 -0.280112 -2.372507 0
M  V30 12 C 0.166809 1.090111 -2.141134 0
M  V30 13 C -0.073072 1.515213 -0.738279 0
M  V30 14 C 0.754989 1.433450 0.427705 0
M  V30 15 C 0.214985 1.935413 1.573767 0
M  V30 16 C -1.081458 2.500720 1.605700 0
M  V30 17 S -1.632788 2.325831 -0.144565 0
M  V30 18 N 0.057777 -1.331765 -0.216056 0
M  V30 19 C -1.190800 -1.790320 2.279511 0
M  V30 20 H -2.711021 -1.647390 3.661320 0
M  V30 21 H -1.514937 -2.946540 5.426908 0
M  V30 22 H 1.771476 -3.370796 2.715584 0
M  V30 23 H 3.461910 -2.583294 -1.119663 0
M  V30 24 H 2.129890 -1.240473 -2.783975 0
M  V30 25 H -0.778701 -1.066656 -2.806950 0
M  V30 26 H -0.380601 1.789460 -2.847111 0
M  V30 27 H 1.236491 1.198524 -2.389093 0
M  V30 28 H 1.723111 0.989248 0.310357 0
M  V30 29 H 0.769889 1.914362 2.501191 0
M  V30 30 H -1.604532 2.902550 2.357843 0
M  V30 31 H -1.715865 -1.220720 1.505144 0
M  V30 END ATOM
M  V30 BEGIN BOND
M  V30 1 2 1 2
M  V30 2 1 2 3
M  V30 3 2 3 4
M  V30 4 1 4 5
M  V30 5 1 5 6
M  V30 6 2 6 7
M  V30 7 1 7 8
M  V30 8 2 8 9
M  V30 9 1 9 10
M  V30 10 1 10 11
M  V30 11 1 11 12
M  V30 12 1 12 13
M  V30 13 2 13 14
M  V30 14 1 14 15
M  V30 15 2 15 16
M  V30 16 1 16 17
M  V30 17 2 10 18
M  V30 18 2 5 19
M  V30 19 1 19 1
M  V30 20 1 18 6
M  V30 21 1 17 13
M  V30 22 1 1 20
M  V30 23 1 2 21
M  V30 24 1 4 22
M  V30 25 1 8 23
M  V30 26 1 9 24
M  V30 27 1 11 25
M  V30 28 1 12 26
M  V30 29 1 12 27
M  V30 30 1 14 28
M  V30 31 1 15 29
M  V30 32 1 16 30
M  V30 33 1 19 31
M  V30 END BOND
M  V30 END CTAB
M  END
>  <Dataset>  (165) 
ChEMBL_Kinases

>  <Ligand_Instance>  (165) 
nan

>  <PDB_ID>  (165) 
nan

>  <Standardized_SMILES>  (165) 
c1cncc(-c2nccc(NCc3cccs3)n2)c1

>  <Name>  (165) 
nan

>  <Pocket>  (165) 
nan

>  <ATP_Site>  (165) 
nan

>  <Peripheral>  (165) 
nan

>  <Num_H_Atoms_ProtBoundConf>  (165) 
nan

>  <Num_Resolved_Atoms>  (165) 
nan

>  <Num_Not_Resolved_Atoms>  (165) 
nan

$$$$
CHEMBL1473959
     RDKit          3D

  0  0  0  0  0  0  0  0  0  0999 V3000
M  V30 BEGIN CTAB
M  V30 COUNTS 41 44 0 0 0
M  V30 BEGIN ATOM
M  V30 1 F -0.164682 -6.640220 0.098751 0
M  V30 2 C 0.855861 -5.721776 0.151807 0
M  V30 3 C 1.947367 -5.980620 0.967076 0
M  V30 4 C 2.983853 -5.060999 1.029020 0
M  V30 5 C 2.916684 -3.903988 0.281491 0
M  V30 6 C 1.823002 -3.629099 -0.544896 0
M  V30 7 C 1.759841 -2.385684 -1.342809 0
M  V30 8 N 1.115277 -1.322292 -0.585717 0
M  V30 9 C 0.973624 -0.054033 -1.211482 0
M  V30 10 N 1.421419 0.152761 -2.461424 0
M  V30 11 C 1.318565 1.326308 -3.109280 0
M  V30 12 N 0.730786 2.393262 -2.493402 0
M  V30 13 C 0.249255 2.284146 -1.236016 0
M  V30 14 C -0.348975 3.349032 -0.593142 0
M  V30 15 C -0.833982 3.213366 0.692987 0
M  V30 16 C -0.707043 1.987087 1.322498 0
M  V30 17 C -1.220451 1.837336 2.688341 0
M  V30 18 C -0.355155 1.177585 3.536894 0
M  V30 19 C -0.660294 0.937433 4.870881 0
M  V30 20 C -1.890787 1.384305 5.361395 0
M  V30 21 C -2.734005 2.034095 4.510748 0
M  V30 22 C -2.431273 2.272259 3.187600 0
M  V30 23 Cl -3.461190 3.098059 2.037265 0
M  V30 24 C -0.102541 0.945067 0.646833 0
M  V30 25 C 0.388827 1.052565 -0.633235 0
M  V30 26 C 0.809952 -4.554013 -0.589496 0
M  V30 27 H 2.037500 -6.867283 1.563202 0
M  V30 28 H 3.847943 -5.258827 1.670100 0
M  V30 29 H 3.714642 -3.200107 0.331680 0
M  V30 30 H 1.296234 -2.518913 -2.341425 0
M  V30 31 H 2.829311 -2.104536 -1.541934 0
M  V30 32 H 0.797446 -1.560903 0.371797 0
M  V30 33 H 1.710745 1.393196 -4.116522 0
M  V30 34 H -0.414644 4.276255 -1.143026 0
M  V30 35 H -1.288112 4.080952 1.135769 0
M  V30 36 H 0.630220 0.781417 3.276417 0
M  V30 37 H -0.012130 0.424953 5.569626 0
M  V30 38 H -2.150573 1.211867 6.386507 0
M  V30 39 H -3.713980 2.414302 4.817374 0
M  V30 40 H -0.047254 0.040463 1.204720 0
M  V30 41 H -0.068445 -4.400827 -1.211895 0
M  V30 END ATOM
M  V30 BEGIN BOND
M  V30 1 1 1 2
M  V30 2 2 2 3
M  V30 3 1 3 4
M  V30 4 2 4 5
M  V30 5 1 5 6
M  V30 6 1 6 7
M  V30 7 1 7 8
M  V30 8 1 8 9
M  V30 9 2 9 10
M  V30 10 1 10 11
M  V30 11 2 11 12
M  V30 12 1 12 13
M  V30 13 2 13 14
M  V30 14 1 14 15
M  V30 15 2 15 16
M  V30 16 1 16 17
M  V30 17 2 17 18
M  V30 18 1 18 19
M  V30 19 2 19 20
M  V30 20 1 20 21
M  V30 21 2 21 22
M  V30 22 1 22 23
M  V30 23 1 16 24
M  V30 24 2 24 25
M  V30 25 2 6 26
M  V30 26 1 26 2
M  V30 27 1 25 9
M  V30 28 1 25 13
M  V30 29 1 22 17
M  V30 30 1 3 27
M  V30 31 1 4 28
M  V30 32 1 5 29
M  V30 33 1 7 30
M  V30 34 1 7 31
M  V30 35 1 8 32
M  V30 36 1 11 33
M  V30 37 1 14 34
M  V30 38 1 15 35
M  V30 39 1 18 36
M  V30 40 1 19 37
M  V30 41 1 20 38
M  V30 42 1 21 39
M  V30 43 1 24 40
M  V30 44 1 26 41
M  V30 END BOND
M  V30 END CTAB
M  END
>  <Dataset>  (166) 
ChEMBL_Kinases

>  <Ligand_Instance>  (166) 
nan

>  <PDB_ID>  (166) 
nan

>  <Standardized_SMILES>  (166) 
Fc1cccc(CNc2ncnc3ccc(-c4ccccc4Cl)cc23)c1

>  <Name>  (166) 
nan

>  <Pocket>  (166) 
nan

>  <ATP_Site>  (166) 
nan

>  <Peripheral>  (166) 
nan

>  <Num_H_Atoms_ProtBoundConf>  (166) 
nan

>  <Num_Resolved_Atoms>  (166) 
nan

>  <Num_Not_Resolved_Atoms>  (166) 
nan

$$$$
CHEMBL1473834
     RDKit          3D

  0  0  0  0  0  0  0  0  0  0999 V3000
M  V30 BEGIN CTAB
M  V30 COUNTS 43 46 0 0 0
M  V30 BEGIN ATOM
M  V30 1 C 1.321134 -5.314171 1.207390 0
M  V30 2 S 2.977039 -4.680890 1.066177 0
M  V30 3 O 3.733491 -5.351612 -0.027602 0
M  V30 4 O 3.664788 -5.012941 2.355992 0
M  V30 5 N 3.026421 -2.990349 0.859385 0
M  V30 6 C 2.477129 -2.230576 -0.211214 0
M  V30 7 C 2.641971 -2.608439 -1.529518 0
M  V30 8 C 2.140286 -1.916563 -2.615219 0
M  V30 9 C 1.416841 -0.752352 -2.329631 0
M  V30 10 C 1.223018 -0.330100 -1.023020 0
M  V30 11 C 0.472684 0.886023 -0.725553 0
M  V30 12 C 0.525568 1.948109 -1.635692 0
M  V30 13 C -0.175066 3.092337 -1.370355 0
M  V30 14 C -0.914205 3.167595 -0.214190 0
M  V30 15 N -1.603385 4.271596 0.082017 0
M  V30 16 C -2.336796 4.420741 1.188216 0
M  V30 17 N -2.405980 3.425852 2.069277 0
M  V30 18 C -1.756388 2.246375 1.895754 0
M  V30 19 N -1.816886 1.173409 2.829913 0
M  V30 20 C -1.420655 -0.163357 3.126661 0
M  V30 21 C -1.740039 -0.701217 4.551828 0
M  V30 22 C -0.339208 -0.538680 4.046654 0
M  V30 23 C -1.019686 2.171660 0.729430 0
M  V30 24 C -0.292062 1.043006 0.409520 0
M  V30 25 C 1.750647 -1.066060 0.027631 0
M  V30 26 H 1.410390 -6.424471 1.122321 0
M  V30 27 H 0.922645 -5.150502 2.242537 0
M  V30 28 H 0.635694 -4.908359 0.453298 0
M  V30 29 H 3.496595 -2.342532 1.551554 0
M  V30 30 H 3.208391 -3.519924 -1.753063 0
M  V30 31 H 2.314615 -2.282276 -3.623226 0
M  V30 32 H 1.013299 -0.190762 -3.140901 0
M  V30 33 H 1.099217 1.910259 -2.548916 0
M  V30 34 H -0.185347 3.953471 -2.019001 0
M  V30 35 H -2.920928 5.268911 1.508009 0
M  V30 36 H -2.405100 1.501852 3.653533 0
M  V30 37 H -1.706733 -0.973920 2.368750 0
M  V30 38 H -2.208623 -1.680981 4.651081 0
M  V30 39 H -2.161826 0.046127 5.257205 0
M  V30 40 H 0.253376 -1.460723 3.836773 0
M  V30 41 H 0.295713 0.271619 4.464105 0
M  V30 42 H -0.270427 0.203472 1.047292 0
M  V30 43 H 1.633355 -0.790039 1.053587 0
M  V30 END ATOM
M  V30 BEGIN BOND
M  V30 1 1 1 2
M  V30 2 2 2 3
M  V30 3 2 2 4
M  V30 4 1 2 5
M  V30 5 1 5 6
M  V30 6 2 6 7
M  V30 7 1 7 8
M  V30 8 2 8 9
M  V30 9 1 9 10
M  V30 10 1 10 11
M  V30 11 2 11 12
M  V30 12 1 12 13
M  V30 13 2 13 14
M  V30 14 1 14 15
M  V30 15 2 15 16
M  V30 16 1 16 17
M  V30 17 2 17 18
M  V30 18 1 18 19
M  V30 19 1 19 20
M  V30 20 1 20 21
M  V30 21 1 21 22
M  V30 22 1 18 23
M  V30 23 2 23 24
M  V30 24 2 10 25
M  V30 25 1 25 6
M  V30 26 1 24 11
M  V30 27 1 23 14
M  V30 28 1 22 20
M  V30 29 1 1 26
M  V30 30 1 1 27
M  V30 31 1 1 28
M  V30 32 1 5 29
M  V30 33 1 7 30
M  V30 34 1 8 31
M  V30 35 1 9 32
M  V30 36 1 12 33
M  V30 37 1 13 34
M  V30 38 1 16 35
M  V30 39 1 19 36
M  V30 40 1 20 37
M  V30 41 1 21 38
M  V30 42 1 21 39
M  V30 43 1 22 40
M  V30 44 1 22 41
M  V30 45 1 24 42
M  V30 46 1 25 43
M  V30 END BOND
M  V30 END CTAB
M  END
>  <Dataset>  (167) 
ChEMBL_Kinases

>  <Ligand_Instance>  (167) 
nan

>  <PDB_ID>  (167) 
nan

>  <Standardized_SMILES>  (167) 
CS(=O)(=O)Nc1cccc(-c2ccc3ncnc(NC4CC4)c3c2)c1

>  <Name>  (167) 
nan

>  <Pocket>  (167) 
nan

>  <ATP_Site>  (167) 
nan

>  <Peripheral>  (167) 
nan

>  <Num_H_Atoms_ProtBoundConf>  (167) 
nan

>  <Num_Resolved_Atoms>  (167) 
nan

>  <Num_Not_Resolved_Atoms>  (167) 
nan

$$$$
CHEMBL1473809
     RDKit          3D

  0  0  0  0  0  0  0  0  0  0999 V3000
M  V30 BEGIN CTAB
M  V30 COUNTS 40 43 0 0 0
M  V30 BEGIN ATOM
M  V30 1 C -0.576487 -3.804009 -0.224457 0
M  V30 2 C 0.713905 -3.745725 0.502137 0
M  V30 3 N 1.155495 -4.697929 1.332668 0
M  V30 4 O 2.320155 -4.346776 1.806844 0
M  V30 5 C 2.678003 -3.185409 1.320411 0
M  V30 6 C 3.877769 -2.318202 1.506621 0
M  V30 7 C 1.687217 -2.745658 0.474419 0
M  V30 8 C 1.551609 -1.522952 -0.330575 0
M  V30 9 C 1.981430 -1.454060 -1.661383 0
M  V30 10 C 1.833322 -0.283477 -2.376067 0
M  V30 11 C 1.259341 0.838014 -1.790773 0
M  V30 12 N 1.127934 1.958694 -2.528244 0
M  V30 13 C 0.563045 3.068463 -1.979093 0
M  V30 14 N 0.133802 3.036767 -0.683260 0
M  V30 15 C 0.263710 1.921351 0.054535 0
M  V30 16 N -0.176123 1.904528 1.396554 0
M  V30 17 C -1.315824 1.516325 2.136626 0
M  V30 18 C -2.355773 0.940275 1.483394 0
M  V30 19 C -3.490115 0.537254 2.148228 0
M  V30 20 C -3.474787 0.767834 3.526026 0
M  V30 21 C -2.404647 1.358184 4.181662 0
M  V30 22 C -1.288036 1.750013 3.490283 0
M  V30 23 C 0.831671 0.768432 -0.462784 0
M  V30 24 C 0.971719 -0.400393 0.272887 0
M  V30 25 H -1.376067 -3.955059 0.560426 0
M  V30 26 H -0.773097 -2.902791 -0.814971 0
M  V30 27 H -0.561405 -4.744138 -0.815307 0
M  V30 28 H 4.562736 -2.888957 2.173042 0
M  V30 29 H 3.630121 -1.395317 2.092026 0
M  V30 30 H 4.410360 -2.109391 0.572573 0
M  V30 31 H 2.430990 -2.352017 -2.101544 0
M  V30 32 H 2.195549 -0.297302 -3.416376 0
M  V30 33 H 0.468536 3.951352 -2.595036 0
M  V30 34 H 0.682212 2.334665 1.833865 0
M  V30 35 H -2.300817 0.789692 0.401372 0
M  V30 36 H -4.269359 0.090360 1.578469 0
M  V30 37 H -4.385983 0.436746 4.034303 0
M  V30 38 H -2.491810 1.492746 5.256258 0
M  V30 39 H -0.498518 2.200425 4.063429 0
M  V30 40 H 0.611697 -0.361004 1.286641 0
M  V30 END ATOM
M  V30 BEGIN BOND
M  V30 1 1 1 2
M  V30 2 2 2 3
M  V30 3 1 3 4
M  V30 4 1 4 5
M  V30 5 1 5 6
M  V30 6 2 5 7
M  V30 7 1 7 8
M  V30 8 2 8 9
M  V30 9 1 9 10
M  V30 10 2 10 11
M  V30 11 1 11 12
M  V30 12 2 12 13
M  V30 13 1 13 14
M  V30 14 2 14 15
M  V30 15 1 15 16
M  V30 16 1 16 17
M  V30 17 2 17 18
M  V30 18 1 18 19
M  V30 19 2 19 20
M  V30 20 1 20 21
M  V30 21 2 21 22
M  V30 22 1 15 23
M  V30 23 2 23 24
M  V30 24 1 7 2
M  V30 25 1 24 8
M  V30 26 1 23 11
M  V30 27 1 22 17
M  V30 28 1 1 25
M  V30 29 1 1 26
M  V30 30 1 1 27
M  V30 31 1 6 28
M  V30 32 1 6 29
M  V30 33 1 6 30
M  V30 34 1 9 31
M  V30 35 1 10 32
M  V30 36 1 13 33
M  V30 37 1 16 34
M  V30 38 1 18 35
M  V30 39 1 19 36
M  V30 40 1 20 37
M  V30 41 1 21 38
M  V30 42 1 22 39
M  V30 43 1 24 40
M  V30 END BOND
M  V30 END CTAB
M  END
>  <Dataset>  (168) 
ChEMBL_Kinases

>  <Ligand_Instance>  (168) 
nan

>  <PDB_ID>  (168) 
nan

>  <Standardized_SMILES>  (168) 
Cc1noc(C)c1-c1ccc2ncnc(Nc3ccccc3)c2c1

>  <Name>  (168) 
nan

>  <Pocket>  (168) 
nan

>  <ATP_Site>  (168) 
nan

>  <Peripheral>  (168) 
nan

>  <Num_H_Atoms_ProtBoundConf>  (168) 
nan

>  <Num_Resolved_Atoms>  (168) 
nan

>  <Num_Not_Resolved_Atoms>  (168) 
nan

$$$$
CHEMBL1473760
     RDKit          3D

  0  0  0  0  0  0  0  0  0  0999 V3000
M  V30 BEGIN CTAB
M  V30 COUNTS 30 32 0 0 0
M  V30 BEGIN ATOM
M  V30 1 C -2.436807 -2.679649 2.184484 0
M  V30 2 N -1.962531 -1.329639 2.475406 0
M  V30 3 C -0.885448 -0.673145 1.814944 0
M  V30 4 N -0.298414 -1.406361 0.856594 0
M  V30 5 C 0.735577 -0.956008 0.123817 0
M  V30 6 C 1.335659 -1.798865 -0.907099 0
M  V30 7 C 2.396007 -1.310679 -1.644150 0
M  V30 8 C 2.999105 -2.074793 -2.634774 0
M  V30 9 C 2.449304 -3.348795 -2.812550 0
M  V30 10 N 1.410119 -3.827633 -2.090427 0
M  V30 11 C 0.827284 -3.064552 -1.119570 0
M  V30 12 N 1.206693 0.282146 0.356440 0
M  V30 13 C 0.655440 1.079914 1.316286 0
M  V30 14 C 1.086405 2.357745 1.608710 0
M  V30 15 C 0.469324 3.100005 2.600491 0
M  V30 16 C -0.580369 2.577703 3.308687 0
M  V30 17 C -1.042588 1.296851 3.044223 0
M  V30 18 C -0.405161 0.601286 2.058768 0
M  V30 19 H -1.686248 -3.145729 1.480734 0
M  V30 20 H -3.422460 -2.686039 1.695210 0
M  V30 21 H -2.496586 -3.321528 3.080809 0
M  V30 22 H -2.574846 -0.982719 3.245701 0
M  V30 23 H 2.788955 -0.316363 -1.471133 0
M  V30 24 H 3.828944 -1.756937 -3.246814 0
M  V30 25 H 2.840664 -4.024150 -3.553841 0
M  V30 26 H 0.000877 -3.482056 -0.565441 0
M  V30 27 H 1.933376 2.693064 0.990070 0
M  V30 28 H 0.914200 4.074234 2.713234 0
M  V30 29 H -1.022244 3.211142 4.074765 0
M  V30 30 H -1.861353 0.894409 3.599331 0
M  V30 END ATOM
M  V30 BEGIN BOND
M  V30 1 1 1 2
M  V30 2 1 2 3
M  V30 3 2 3 4
M  V30 4 1 4 5
M  V30 5 1 5 6
M  V30 6 2 6 7
M  V30 7 1 7 8
M  V30 8 2 8 9
M  V30 9 1 9 10
M  V30 10 2 10 11
M  V30 11 2 5 12
M  V30 12 1 12 13
M  V30 13 2 13 14
M  V30 14 1 14 15
M  V30 15 2 15 16
M  V30 16 1 16 17
M  V30 17 2 17 18
M  V30 18 1 18 3
M  V30 19 1 11 6
M  V30 20 1 18 13
M  V30 21 1 1 19
M  V30 22 1 1 20
M  V30 23 1 1 21
M  V30 24 1 2 22
M  V30 25 1 7 23
M  V30 26 1 8 24
M  V30 27 1 9 25
M  V30 28 1 11 26
M  V30 29 1 14 27
M  V30 30 1 15 28
M  V30 31 1 16 29
M  V30 32 1 17 30
M  V30 END BOND
M  V30 END CTAB
M  END
>  <Dataset>  (169) 
ChEMBL_Kinases

>  <Ligand_Instance>  (169) 
nan

>  <PDB_ID>  (169) 
nan

>  <Standardized_SMILES>  (169) 
CNc1nc(-c2cccnc2)nc2ccccc12

>  <Name>  (169) 
nan

>  <Pocket>  (169) 
nan

>  <ATP_Site>  (169) 
nan

>  <Peripheral>  (169) 
nan

>  <Num_H_Atoms_ProtBoundConf>  (169) 
nan

>  <Num_Resolved_Atoms>  (169) 
nan

>  <Num_Not_Resolved_Atoms>  (169) 
nan

$$$$
CHEMBL1473748
     RDKit          3D

  0  0  0  0  0  0  0  0  0  0999 V3000
M  V30 BEGIN CTAB
M  V30 COUNTS 47 50 0 0 0
M  V30 BEGIN ATOM
M  V30 1 C 0.336281 -5.231162 1.195060 0
M  V30 2 C 1.152908 -4.583246 0.108592 0
M  V30 3 C 2.111354 -5.203402 -0.660747 0
M  V30 4 C 2.770825 -4.463538 -1.619615 0
M  V30 5 C 2.501827 -3.129310 -1.831045 0
M  V30 6 C 1.551636 -2.465942 -1.086317 0
M  V30 7 C 1.180714 -1.019578 -1.241430 0
M  V30 8 N 1.912245 -0.095492 -0.492203 0
M  V30 9 C 2.660749 0.849667 0.274039 0
M  V30 10 N 3.936128 1.179274 0.255860 0
M  V30 11 C 4.418184 2.126715 1.064393 0
M  V30 12 N 3.591662 2.751291 1.907040 0
M  V30 13 C 2.287180 2.491723 2.003574 0
M  V30 14 C 1.519308 3.184003 2.907686 0
M  V30 15 C 0.174091 2.900650 3.003215 0
M  V30 16 C -0.396131 1.934057 2.202384 0
M  V30 17 C -1.817803 1.521024 2.207771 0
M  V30 18 C -2.492478 1.594167 3.408601 0
M  V30 19 C -3.815250 1.212986 3.500509 0
M  V30 20 C -4.382800 0.763974 2.308808 0
M  V30 21 C -3.710795 0.690725 1.110558 0
M  V30 22 C -4.451384 0.186860 -0.073405 0
M  V30 23 C -2.390145 1.077828 1.045778 0
M  V30 24 C 0.446625 1.290840 1.325057 0
M  V30 25 C 1.808448 1.498806 1.149254 0
M  V30 26 C 0.906158 -3.250110 -0.125697 0
M  V30 27 H 0.277558 -6.321777 1.076896 0
M  V30 28 H 0.746831 -4.943294 2.191739 0
M  V30 29 H -0.698928 -4.835704 1.157867 0
M  V30 30 H 2.270550 -6.250991 -0.440227 0
M  V30 31 H 3.518462 -4.964003 -2.212991 0
M  V30 32 H 3.018091 -2.550551 -2.581006 0
M  V30 33 H 0.074082 -1.027684 -0.989883 0
M  V30 34 H 1.134884 -0.720625 -2.335480 0
M  V30 35 H 2.759291 -0.470071 -1.044317 0
M  V30 36 H 5.484510 2.305903 0.953200 0
M  V30 37 H 1.925882 3.949168 3.553520 0
M  V30 38 H -0.495644 3.400872 3.688197 0
M  V30 39 H -1.989760 1.949031 4.279576 0
M  V30 40 H -4.307544 1.283925 4.448909 0
M  V30 41 H -5.438311 0.467094 2.416413 0
M  V30 42 H -5.404967 -0.270211 0.216842 0
M  V30 43 H -4.578786 0.996691 -0.832441 0
M  V30 44 H -3.786167 -0.583308 -0.542731 0
M  V30 45 H -1.882605 1.013914 0.104854 0
M  V30 46 H 0.006157 0.533078 0.696734 0
M  V30 47 H 0.146962 -2.718538 0.468205 0
M  V30 END ATOM
M  V30 BEGIN BOND
M  V30 1 1 1 2
M  V30 2 2 2 3
M  V30 3 1 3 4
M  V30 4 2 4 5
M  V30 5 1 5 6
M  V30 6 1 6 7
M  V30 7 1 7 8
M  V30 8 1 8 9
M  V30 9 2 9 10
M  V30 10 1 10 11
M  V30 11 2 11 12
M  V30 12 1 12 13
M  V30 13 2 13 14
M  V30 14 1 14 15
M  V30 15 2 15 16
M  V30 16 1 16 17
M  V30 17 2 17 18
M  V30 18 1 18 19
M  V30 19 2 19 20
M  V30 20 1 20 21
M  V30 21 1 21 22
M  V30 22 2 21 23
M  V30 23 1 16 24
M  V30 24 2 24 25
M  V30 25 2 6 26
M  V30 26 1 26 2
M  V30 27 1 25 9
M  V30 28 1 25 13
M  V30 29 1 23 17
M  V30 30 1 1 27
M  V30 31 1 1 28
M  V30 32 1 1 29
M  V30 33 1 3 30
M  V30 34 1 4 31
M  V30 35 1 5 32
M  V30 36 1 7 33
M  V30 37 1 7 34
M  V30 38 1 8 35
M  V30 39 1 11 36
M  V30 40 1 14 37
M  V30 41 1 15 38
M  V30 42 1 18 39
M  V30 43 1 19 40
M  V30 44 1 20 41
M  V30 45 1 22 42
M  V30 46 1 22 43
M  V30 47 1 22 44
M  V30 48 1 23 45
M  V30 49 1 24 46
M  V30 50 1 26 47
M  V30 END BOND
M  V30 END CTAB
M  END
>  <Dataset>  (170) 
ChEMBL_Kinases

>  <Ligand_Instance>  (170) 
nan

>  <PDB_ID>  (170) 
nan

>  <Standardized_SMILES>  (170) 
Cc1cccc(CNc2ncnc3ccc(-c4cccc(C)c4)cc23)c1

>  <Name>  (170) 
nan

>  <Pocket>  (170) 
nan

>  <ATP_Site>  (170) 
nan

>  <Peripheral>  (170) 
nan

>  <Num_H_Atoms_ProtBoundConf>  (170) 
nan

>  <Num_Resolved_Atoms>  (170) 
nan

>  <Num_Not_Resolved_Atoms>  (170) 
nan

$$$$
CHEMBL1473543
     RDKit          3D

  0  0  0  0  0  0  0  0  0  0999 V3000
M  V30 BEGIN CTAB
M  V30 COUNTS 34 36 0 0 0
M  V30 BEGIN ATOM
M  V30 1 Cl -0.958072 -6.765154 2.735431 0
M  V30 2 C -0.118224 -5.647108 1.685898 0
M  V30 3 C 0.332212 -6.040379 0.449893 0
M  V30 4 C 0.978969 -5.158081 -0.349283 0
M  V30 5 C 1.246860 -3.820985 -0.027441 0
M  V30 6 C 2.004373 -3.153192 -1.036545 0
M  V30 7 C 2.074161 -1.891879 -1.372005 0
M  V30 8 C 1.276840 -0.904086 -0.682434 0
M  V30 9 N 1.611821 0.336096 -1.025540 0
M  V30 10 C 1.039384 1.466936 -0.609695 0
M  V30 11 Cl 1.607581 3.030008 -1.158484 0
M  V30 12 C -0.013485 1.450230 0.264680 0
M  V30 13 C -0.722674 2.601365 0.792741 0
M  V30 14 C -0.359947 3.254147 1.958302 0
M  V30 15 C -1.125767 4.353724 2.362696 0
M  V30 16 C -2.200406 4.728960 1.579820 0
M  V30 17 Cl -3.079842 6.121842 2.194760 0
M  V30 18 C -2.566881 4.088363 0.424106 0
M  V30 19 C -1.813867 3.005406 0.024430 0
M  V30 20 C -0.393865 0.190825 0.646187 0
M  V30 21 Cl -1.704294 -0.141754 1.750326 0
M  V30 22 N 0.267863 -0.831507 0.150820 0
M  V30 23 C 0.766551 -3.539048 1.206048 0
M  V30 24 C 0.104361 -4.350308 2.084254 0
M  V30 25 H 0.134643 -7.063961 0.178897 0
M  V30 26 H 1.280634 -5.615674 -1.307573 0
M  V30 27 H 2.683051 -3.742261 -1.674769 0
M  V30 28 H 2.756011 -1.615659 -2.196920 0
M  V30 29 H 0.504953 2.892575 2.519504 0
M  V30 30 H -0.823020 4.847453 3.276423 0
M  V30 31 H -3.423713 4.434355 -0.145970 0
M  V30 32 H -2.111113 2.503458 -0.892567 0
M  V30 33 H 0.975741 -2.567350 1.605366 0
M  V30 34 H -0.232446 -4.000844 3.046884 0
M  V30 END ATOM
M  V30 BEGIN BOND
M  V30 1 1 1 2
M  V30 2 2 2 3
M  V30 3 1 3 4
M  V30 4 2 4 5
M  V30 5 1 5 6
M  V30 6 2 6 7
M  V30 7 1 7 8
M  V30 8 2 8 9
M  V30 9 1 9 10
M  V30 10 1 10 11
M  V30 11 2 10 12
M  V30 12 1 12 13
M  V30 13 2 13 14
M  V30 14 1 14 15
M  V30 15 2 15 16
M  V30 16 1 16 17
M  V30 17 1 16 18
M  V30 18 2 18 19
M  V30 19 1 12 20
M  V30 20 1 20 21
M  V30 21 2 20 22
M  V30 22 1 5 23
M  V30 23 2 23 24
M  V30 24 1 24 2
M  V30 25 1 22 8
M  V30 26 1 19 13
M  V30 27 1 3 25
M  V30 28 1 4 26
M  V30 29 1 6 27
M  V30 30 1 7 28
M  V30 31 1 14 29
M  V30 32 1 15 30
M  V30 33 1 18 31
M  V30 34 1 19 32
M  V30 35 1 23 33
M  V30 36 1 24 34
M  V30 END BOND
M  V30 END CTAB
M  END
>  <Dataset>  (171) 
ChEMBL_Kinases

>  <Ligand_Instance>  (171) 
nan

>  <PDB_ID>  (171) 
nan

>  <Standardized_SMILES>  (171) 
Clc1ccc(/C=C\c2nc(Cl)c(-c3ccc(Cl)cc3)c(Cl)n2)cc1

>  <Name>  (171) 
nan

>  <Pocket>  (171) 
nan

>  <ATP_Site>  (171) 
nan

>  <Peripheral>  (171) 
nan

>  <Num_H_Atoms_ProtBoundConf>  (171) 
nan

>  <Num_Resolved_Atoms>  (171) 
nan

>  <Num_Not_Resolved_Atoms>  (171) 
nan

$$$$
CHEMBL1473430
     RDKit          3D

  0  0  0  0  0  0  0  0  0  0999 V3000
M  V30 BEGIN CTAB
M  V30 COUNTS 39 41 0 0 0
M  V30 BEGIN ATOM
M  V30 1 C -0.660607 -4.602518 2.054731 0
M  V30 2 C 0.163473 -4.371214 0.825989 0
M  V30 3 C 0.582386 -5.331739 -0.054422 0
M  V30 4 C 1.336626 -5.031510 -1.163044 0
M  V30 5 C 1.703522 -3.717426 -1.426413 0
M  V30 6 C 1.305542 -2.715846 -0.567964 0
M  V30 7 C 1.598513 -1.240340 -0.685239 0
M  V30 8 N 0.582599 -0.566975 -1.466692 0
M  V30 9 C 0.692564 0.875433 -1.374647 0
M  V30 10 C 1.122609 1.894595 -2.195772 0
M  V30 11 C 1.059591 3.166493 -1.673122 0
M  V30 12 N 0.608680 3.397020 -0.442274 0
M  V30 13 C 0.183469 2.416828 0.382252 0
M  V30 14 C -0.308724 2.601091 1.757810 0
M  V30 15 C -0.399295 3.823298 2.379631 0
M  V30 16 C -0.861271 3.931861 3.688649 0
M  V30 17 C -1.235084 2.780550 4.371039 0
M  V30 18 C -1.137702 1.569227 3.731434 0
M  V30 19 C -1.508903 0.324656 4.377582 0
M  V30 20 N -1.800299 -0.682529 4.904214 0
M  V30 21 C -0.681922 1.423164 2.427638 0
M  V30 22 N 0.257211 1.190083 -0.158362 0
M  V30 23 C 0.533358 -3.056443 0.558645 0
M  V30 24 H -1.350519 -3.739514 2.233452 0
M  V30 25 H -0.031999 -4.778146 2.929553 0
M  V30 26 H -1.330759 -5.489407 1.895123 0
M  V30 27 H 0.269814 -6.320543 0.208811 0
M  V30 28 H 1.655924 -5.796448 -1.839533 0
M  V30 29 H 2.286877 -3.390185 -2.265213 0
M  V30 30 H 1.674770 -0.837193 0.349095 0
M  V30 31 H 2.609244 -1.161826 -1.124003 0
M  V30 32 H -0.116371 -1.125053 -2.020167 0
M  V30 33 H 1.440990 1.481419 -3.135042 0
M  V30 34 H 1.406120 3.921375 -2.360071 0
M  V30 35 H -0.105607 4.719867 1.833054 0
M  V30 36 H -0.941108 4.886518 4.206068 0
M  V30 37 H -1.608227 2.753186 5.394265 0
M  V30 38 H -0.611899 0.438986 1.938457 0
M  V30 39 H 0.203379 -2.281602 1.250599 0
M  V30 END ATOM
M  V30 BEGIN BOND
M  V30 1 1 1 2
M  V30 2 2 2 3
M  V30 3 1 3 4
M  V30 4 2 4 5
M  V30 5 1 5 6
M  V30 6 1 6 7
M  V30 7 1 7 8
M  V30 8 1 8 9
M  V30 9 2 9 10
M  V30 10 1 10 11
M  V30 11 2 11 12
M  V30 12 1 12 13
M  V30 13 1 13 14
M  V30 14 2 14 15
M  V30 15 1 15 16
M  V30 16 2 16 17
M  V30 17 1 17 18
M  V30 18 1 18 19
M  V30 19 3 19 20
M  V30 20 2 18 21
M  V30 21 2 13 22
M  V30 22 2 6 23
M  V30 23 1 23 2
M  V30 24 1 22 9
M  V30 25 1 21 14
M  V30 26 1 1 24
M  V30 27 1 1 25
M  V30 28 1 1 26
M  V30 29 1 3 27
M  V30 30 1 4 28
M  V30 31 1 5 29
M  V30 32 1 7 30
M  V30 33 1 7 31
M  V30 34 1 8 32
M  V30 35 1 10 33
M  V30 36 1 11 34
M  V30 37 1 15 35
M  V30 38 1 16 36
M  V30 39 1 17 37
M  V30 40 1 21 38
M  V30 41 1 23 39
M  V30 END BOND
M  V30 END CTAB
M  END
>  <Dataset>  (172) 
ChEMBL_Kinases

>  <Ligand_Instance>  (172) 
nan

>  <PDB_ID>  (172) 
nan

>  <Standardized_SMILES>  (172) 
Cc1cccc(CNc2ccnc(-c3cccc(C#N)c3)n2)c1

>  <Name>  (172) 
nan

>  <Pocket>  (172) 
nan

>  <ATP_Site>  (172) 
nan

>  <Peripheral>  (172) 
nan

>  <Num_H_Atoms_ProtBoundConf>  (172) 
nan

>  <Num_Resolved_Atoms>  (172) 
nan

>  <Num_Not_Resolved_Atoms>  (172) 
nan

$$$$
CHEMBL1473303
     RDKit          3D

  0  0  0  0  0  0  0  0  0  0999 V3000
M  V30 BEGIN CTAB
M  V30 COUNTS 39 41 0 0 0
M  V30 BEGIN ATOM
M  V30 1 C -0.338697 -4.627358 1.804296 0
M  V30 2 N -0.502381 -3.498054 0.906918 0
M  V30 3 C -1.487103 -3.793174 -0.120155 0
M  V30 4 C 0.773761 -3.110529 0.328385 0
M  V30 5 C 0.496601 -1.820966 -0.557555 0
M  V30 6 C -0.039447 -0.846761 0.424910 0
M  V30 7 C 0.209115 0.432505 0.636210 0
M  V30 8 C 1.134184 1.161849 -0.170386 0
M  V30 9 C 1.316959 0.578249 -1.403450 0
M  V30 10 C 2.103632 1.200559 -2.388949 0
M  V30 11 C 2.694046 2.434704 -2.082779 0
M  V30 12 C 2.508071 3.024259 -0.849309 0
M  V30 13 C 1.733846 2.357471 0.050282 0
M  V30 14 S 1.434014 3.126741 1.612822 0
M  V30 15 C 0.159428 2.172008 2.422989 0
M  V30 16 C -0.282775 2.752177 3.586544 0
M  V30 17 C -1.231389 2.071778 4.322410 0
M  V30 18 Cl -1.838719 2.761347 5.819356 0
M  V30 19 C -1.695004 0.852513 3.870921 0
M  V30 20 C -1.193497 0.353460 2.694774 0
M  V30 21 C -0.253764 0.964261 1.906636 0
M  V30 22 H -1.357309 -5.074373 1.943685 0
M  V30 23 H 0.321240 -5.347877 1.312863 0
M  V30 24 H 0.093918 -4.343657 2.775012 0
M  V30 25 H -2.125055 -2.897760 -0.227955 0
M  V30 26 H -0.954211 -4.019641 -1.044520 0
M  V30 27 H -2.072411 -4.673810 0.254413 0
M  V30 28 H 1.449977 -2.870964 1.147756 0
M  V30 29 H 1.225279 -3.895464 -0.288657 0
M  V30 30 H 1.589399 -1.673626 -0.812915 0
M  V30 31 H -0.149739 -2.182297 -1.320117 0
M  V30 32 H -0.767826 -1.384954 1.015832 0
M  V30 33 H 0.972310 -0.248213 -1.977643 0
M  V30 34 H 2.390047 0.939821 -3.411791 0
M  V30 35 H 3.329727 3.011280 -2.765225 0
M  V30 36 H 2.954784 3.976003 -0.597209 0
M  V30 37 H 0.049731 3.701269 3.978819 0
M  V30 38 H -2.432938 0.377420 4.494264 0
M  V30 39 H -1.630839 -0.580999 2.454632 0
M  V30 END ATOM
M  V30 BEGIN BOND
M  V30 1 1 1 2
M  V30 2 1 2 3
M  V30 3 1 2 4
M  V30 4 1 4 5
M  V30 5 1 5 6
M  V30 6 2 6 7
M  V30 7 1 7 8
M  V30 8 2 8 9
M  V30 9 1 9 10
M  V30 10 2 10 11
M  V30 11 1 11 12
M  V30 12 2 12 13
M  V30 13 1 13 14
M  V30 14 1 14 15
M  V30 15 2 15 16
M  V30 16 1 16 17
M  V30 17 1 17 18
M  V30 18 2 17 19
M  V30 19 1 19 20
M  V30 20 2 20 21
M  V30 21 1 21 7
M  V30 22 1 13 8
M  V30 23 1 21 15
M  V30 24 1 1 22
M  V30 25 1 1 23
M  V30 26 1 1 24
M  V30 27 1 3 25
M  V30 28 1 3 26
M  V30 29 1 3 27
M  V30 30 1 4 28
M  V30 31 1 4 29
M  V30 32 1 5 30
M  V30 33 1 5 31
M  V30 34 1 6 32
M  V30 35 1 9 33
M  V30 36 1 10 34
M  V30 37 1 11 35
M  V30 38 1 12 36
M  V30 39 1 16 37
M  V30 40 1 19 38
M  V30 41 1 20 39
M  V30 END BOND
M  V30 END CTAB
M  END
>  <Dataset>  (173) 
ChEMBL_Kinases

>  <Ligand_Instance>  (173) 
nan

>  <PDB_ID>  (173) 
nan

>  <Standardized_SMILES>  (173) 
CN(C)CC/C=C1\c2ccccc2Sc2cc(Cl)ccc21

>  <Name>  (173) 
nan

>  <Pocket>  (173) 
nan

>  <ATP_Site>  (173) 
nan

>  <Peripheral>  (173) 
nan

>  <Num_H_Atoms_ProtBoundConf>  (173) 
nan

>  <Num_Resolved_Atoms>  (173) 
nan

>  <Num_Not_Resolved_Atoms>  (173) 
nan

$$$$
CHEMBL1473123
     RDKit          3D

  0  0  0  0  0  0  0  0  0  0999 V3000
M  V30 BEGIN CTAB
M  V30 COUNTS 49 52 0 0 0
M  V30 BEGIN ATOM
M  V30 1 C 3.109395 -4.145628 1.250172 0
M  V30 2 N 2.440851 -3.519144 0.128830 0
M  V30 3 C 2.091446 -4.433989 -0.902735 0
M  V30 4 C 3.106940 -2.317603 -0.308487 0
M  V30 5 C 3.209347 -1.293203 0.729433 0
M  V30 6 C 4.402607 -1.035165 1.404253 0
M  V30 7 C 4.625914 -0.108824 2.393214 0
M  V30 8 C 3.531424 0.646558 2.748837 0
M  V30 9 C 2.300855 0.447862 2.119210 0
M  V30 10 C 2.137876 -0.514927 1.115609 0
M  V30 11 C 0.804421 -0.663320 0.501900 0
M  V30 12 N -0.148291 0.150363 0.983818 0
M  V30 13 C -1.395469 0.100640 0.495170 0
M  V30 14 N -2.426724 0.959199 0.994529 0
M  V30 15 C -2.051121 1.880006 2.051628 0
M  V30 16 C -3.191395 2.679012 2.439053 0
M  V30 17 C -3.657068 3.860806 1.993347 0
M  V30 18 C -4.765672 4.453578 2.505078 0
M  V30 19 C -5.399703 3.706775 3.566439 0
M  V30 20 S -4.363512 2.216436 3.751185 0
M  V30 21 C -1.663767 -0.802779 -0.506541 0
M  V30 22 C -2.904717 -0.940808 -1.083435 0
M  V30 23 C -3.206125 -1.834818 -2.088935 0
M  V30 24 C -2.185273 -2.663719 -2.561662 0
M  V30 25 C -0.918493 -2.531103 -1.981322 0
M  V30 26 C -0.673997 -1.630114 -0.989134 0
M  V30 27 N 0.560976 -1.548199 -0.472119 0
M  V30 28 H 4.067769 -4.555391 0.894605 0
M  V30 29 H 3.168713 -3.502241 2.130127 0
M  V30 30 H 2.471249 -5.009983 1.533085 0
M  V30 31 H 2.526887 -4.122011 -1.858455 0
M  V30 32 H 2.585604 -5.412513 -0.642549 0
M  V30 33 H 1.011013 -4.672698 -0.951200 0
M  V30 34 H 2.707455 -2.015391 -1.271280 0
M  V30 35 H 4.168285 -2.646274 -0.531765 0
M  V30 36 H 5.256106 -1.650894 1.100673 0
M  V30 37 H 5.610455 -0.017465 2.830523 0
M  V30 38 H 3.643272 1.398284 3.527120 0
M  V30 39 H 1.487866 1.090968 2.463820 0
M  V30 40 H -3.397649 0.976323 0.669974 0
M  V30 41 H -1.647963 1.309550 2.925153 0
M  V30 42 H -1.228196 2.565007 1.750963 0
M  V30 43 H -3.100249 4.349443 1.179168 0
M  V30 44 H -5.188256 5.396908 2.192816 0
M  V30 45 H -6.353187 4.117062 4.077330 0
M  V30 46 H -3.722689 -0.339788 -0.766691 0
M  V30 47 H -4.208178 -1.908897 -2.517668 0
M  V30 48 H -2.440975 -3.363014 -3.354661 0
M  V30 49 H -0.195156 -3.212325 -2.412824 0
M  V30 END ATOM
M  V30 BEGIN BOND
M  V30 1 1 1 2
M  V30 2 1 2 3
M  V30 3 1 2 4
M  V30 4 1 4 5
M  V30 5 2 5 6
M  V30 6 1 6 7
M  V30 7 2 7 8
M  V30 8 1 8 9
M  V30 9 2 9 10
M  V30 10 1 10 11
M  V30 11 2 11 12
M  V30 12 1 12 13
M  V30 13 1 13 14
M  V30 14 1 14 15
M  V30 15 1 15 16
M  V30 16 2 16 17
M  V30 17 1 17 18
M  V30 18 2 18 19
M  V30 19 1 19 20
M  V30 20 2 13 21
M  V30 21 1 21 22
M  V30 22 2 22 23
M  V30 23 1 23 24
M  V30 24 2 24 25
M  V30 25 1 25 26
M  V30 26 2 26 27
M  V30 27 1 10 5
M  V30 28 1 27 11
M  V30 29 1 20 16
M  V30 30 1 26 21
M  V30 31 1 1 28
M  V30 32 1 1 29
M  V30 33 1 1 30
M  V30 34 1 3 31
M  V30 35 1 3 32
M  V30 36 1 3 33
M  V30 37 1 4 34
M  V30 38 1 4 35
M  V30 39 1 6 36
M  V30 40 1 7 37
M  V30 41 1 8 38
M  V30 42 1 9 39
M  V30 43 1 14 40
M  V30 44 1 15 41
M  V30 45 1 15 42
M  V30 46 1 17 43
M  V30 47 1 18 44
M  V30 48 1 19 45
M  V30 49 1 22 46
M  V30 50 1 23 47
M  V30 51 1 24 48
M  V30 52 1 25 49
M  V30 END BOND
M  V30 END CTAB
M  END
>  <Dataset>  (174) 
ChEMBL_Kinases

>  <Ligand_Instance>  (174) 
nan

>  <PDB_ID>  (174) 
nan

>  <Standardized_SMILES>  (174) 
CN(C)Cc1ccccc1-c1nc(NCc2cccs2)c2ccccc2n1

>  <Name>  (174) 
nan

>  <Pocket>  (174) 
nan

>  <ATP_Site>  (174) 
nan

>  <Peripheral>  (174) 
nan

>  <Num_H_Atoms_ProtBoundConf>  (174) 
nan

>  <Num_Resolved_Atoms>  (174) 
nan

>  <Num_Not_Resolved_Atoms>  (174) 
nan

$$$$
CHEMBL1473099
     RDKit          3D

  0  0  0  0  0  0  0  0  0  0999 V3000
M  V30 BEGIN CTAB
M  V30 COUNTS 37 39 0 0 0
M  V30 BEGIN ATOM
M  V30 1 C 0.730840 -3.190044 0.531464 0
M  V30 2 C 1.593566 -2.628743 1.595496 0
M  V30 3 C 1.803858 -3.292948 2.790203 0
M  V30 4 C 2.607788 -2.764423 3.775328 0
M  V30 5 C 3.221044 -1.544859 3.573512 0
M  V30 6 C 3.056236 -0.829196 2.409372 0
M  V30 7 C 2.232679 -1.419479 1.457242 0
M  V30 8 C 2.036095 -0.675364 0.196544 0
M  V30 9 C 2.900112 -0.897153 -0.851589 0
M  V30 10 N 2.688546 -0.192146 -2.001293 0
M  V30 11 C 1.672335 0.684012 -2.098387 0
M  V30 12 N 0.841049 0.885710 -1.064699 0
M  V30 13 C 0.977109 0.234968 0.101212 0
M  V30 14 N 0.096316 0.454115 1.190085 0
M  V30 15 C -1.038927 1.352951 1.252097 0
M  V30 16 C -2.094568 1.047701 0.258488 0
M  V30 17 C -2.256044 1.569189 -1.007685 0
M  V30 18 C -3.291660 1.177762 -1.826721 0
M  V30 19 C -4.227643 0.244995 -1.434637 0
M  V30 20 N -4.072653 -0.267905 -0.194419 0
M  V30 21 C -3.067530 0.104496 0.614824 0
M  V30 22 H 0.767071 -4.306219 0.507483 0
M  V30 23 H -0.314325 -2.894678 0.800080 0
M  V30 24 H 1.030263 -2.852294 -0.464825 0
M  V30 25 H 1.309335 -4.253138 2.925802 0
M  V30 26 H 2.722331 -3.354031 4.692098 0
M  V30 27 H 3.843893 -1.172028 4.379521 0
M  V30 28 H 3.526157 0.111353 2.247682 0
M  V30 29 H 3.694690 -1.618703 -0.696823 0
M  V30 30 H 1.523417 1.232176 -3.019866 0
M  V30 31 H 0.303179 -0.117011 2.065339 0
M  V30 32 H -1.520220 1.280498 2.248582 0
M  V30 33 H -0.705286 2.416241 1.180756 0
M  V30 34 H -1.521056 2.303260 -1.302619 0
M  V30 35 H -3.369641 1.622027 -2.814867 0
M  V30 36 H -5.005466 -0.001431 -2.142826 0
M  V30 37 H -3.095243 -0.406083 1.571017 0
M  V30 END ATOM
M  V30 BEGIN BOND
M  V30 1 1 1 2
M  V30 2 2 2 3
M  V30 3 1 3 4
M  V30 4 2 4 5
M  V30 5 1 5 6
M  V30 6 2 6 7
M  V30 7 1 7 8
M  V30 8 2 8 9
M  V30 9 1 9 10
M  V30 10 2 10 11
M  V30 11 1 11 12
M  V30 12 2 12 13
M  V30 13 1 13 14
M  V30 14 1 14 15
M  V30 15 1 15 16
M  V30 16 2 16 17
M  V30 17 1 17 18
M  V30 18 2 18 19
M  V30 19 1 19 20
M  V30 20 2 20 21
M  V30 21 1 7 2
M  V30 22 1 13 8
M  V30 23 1 21 16
M  V30 24 1 1 22
M  V30 25 1 1 23
M  V30 26 1 1 24
M  V30 27 1 3 25
M  V30 28 1 4 26
M  V30 29 1 5 27
M  V30 30 1 6 28
M  V30 31 1 9 29
M  V30 32 1 11 30
M  V30 33 1 14 31
M  V30 34 1 15 32
M  V30 35 1 15 33
M  V30 36 1 17 34
M  V30 37 1 18 35
M  V30 38 1 19 36
M  V30 39 1 21 37
M  V30 END BOND
M  V30 END CTAB
M  END
>  <Dataset>  (175) 
ChEMBL_Kinases

>  <Ligand_Instance>  (175) 
nan

>  <PDB_ID>  (175) 
nan

>  <Standardized_SMILES>  (175) 
Cc1ccccc1-c1cncnc1NCc1cccnc1

>  <Name>  (175) 
nan

>  <Pocket>  (175) 
nan

>  <ATP_Site>  (175) 
nan

>  <Peripheral>  (175) 
nan

>  <Num_H_Atoms_ProtBoundConf>  (175) 
nan

>  <Num_Resolved_Atoms>  (175) 
nan

>  <Num_Not_Resolved_Atoms>  (175) 
nan

$$$$
CHEMBL1473060
     RDKit          3D

  0  0  0  0  0  0  0  0  0  0999 V3000
M  V30 BEGIN CTAB
M  V30 COUNTS 63 65 0 0 0
M  V30 BEGIN ATOM
M  V30 1 C 2.571951 -3.521043 3.355946 0
M  V30 2 C 3.092083 -2.652834 2.468614 0
M  V30 3 C 2.205056 -1.422562 2.383169 0 CFG=1
M  V30 4 C 2.319533 -0.780975 3.725109 0
M  V30 5 C 2.917418 -0.536944 1.380081 0
M  V30 6 C 1.899079 -0.375950 0.263842 0
M  V30 7 O 2.401827 -0.706684 -0.824834 0
M  V30 8 C 0.588937 0.135234 0.823138 0 CFG=1
M  V30 9 O 0.898889 1.079711 1.800423 0
M  V30 10 C -0.318795 0.790085 -0.138806 0 CFG=1
M  V30 11 C -1.349460 1.539927 0.673145 0
M  V30 12 C 0.347012 1.835141 -0.989776 0 CFG=1
M  V30 13 O 1.337095 1.381677 -1.818349 0
M  V30 14 C -0.674378 2.601683 -1.830211 0
M  V30 15 C -1.735366 1.740774 -2.399993 0
M  V30 16 C -1.470407 0.253857 -2.346170 0
M  V30 17 C -0.615882 -0.068398 -3.560097 0
M  V30 18 C -2.842289 -0.367344 -2.655319 0
M  V30 19 C -0.888780 -0.236175 -1.058377 0 CFG=2
M  V30 20 C -1.681998 -1.301977 -0.352333 0 CFG=2
M  V30 21 O -2.943939 -0.931289 0.057053 0
M  V30 22 C -0.813159 -1.947037 0.652713 0 CFG=2
M  V30 23 O -1.647636 -2.729923 1.502682 0
M  V30 24 C -1.546111 -4.114203 1.555577 0
M  V30 25 C -2.356329 -5.015486 2.395743 0
M  V30 26 O -0.703539 -4.721588 0.845055 0
M  V30 27 C 0.019876 -1.057050 1.534235 0 CFG=2
M  V30 28 C -0.835763 -0.723901 2.735160 0
M  V30 29 O 1.017068 -1.900542 1.999360 0
M  V30 30 H 1.659469 -3.087273 3.758586 0
M  V30 31 H 2.794695 -4.495422 3.769819 0
M  V30 32 H 4.021920 -2.951348 1.973684 0
M  V30 33 H 1.435588 -0.291883 4.119912 0
M  V30 34 H 3.125930 0.010638 3.744436 0
M  V30 35 H 2.664198 -1.489791 4.533788 0
M  V30 36 H 3.887341 -0.875587 1.055664 0
M  V30 37 H 3.059509 0.500868 1.781077 0
M  V30 38 H 1.491054 1.769942 1.435514 0
M  V30 39 H -0.812939 2.103712 1.466601 0
M  V30 40 H -2.112385 0.943394 1.151360 0
M  V30 41 H -1.866371 2.350002 0.120523 0
M  V30 42 H 0.771640 2.601731 -0.293544 0
M  V30 43 H 1.852681 2.136058 -2.139774 0
M  V30 44 H -0.053520 3.057305 -2.663591 0
M  V30 45 H -1.054645 3.507174 -1.306119 0
M  V30 46 H -2.785239 1.972401 -2.048584 0
M  V30 47 H -1.842095 1.999285 -3.497298 0
M  V30 48 H -0.180575 0.826124 -4.041424 0
M  V30 49 H -1.138140 -0.633704 -4.346928 0
M  V30 50 H 0.242769 -0.704811 -3.233831 0
M  V30 51 H -3.630287 -0.024642 -1.983367 0
M  V30 52 H -2.791332 -1.436849 -2.862180 0
M  V30 53 H -3.102043 0.099058 -3.652762 0
M  V30 54 H 0.013799 -0.826805 -1.360648 0
M  V30 55 H -1.877181 -2.076728 -1.156501 0
M  V30 56 H -3.453098 -1.738172 0.249264 0
M  V30 57 H -0.158194 -2.702986 0.130469 0
M  V30 58 H -1.673230 -5.494114 3.135650 0
M  V30 59 H -3.072438 -4.417196 2.989798 0
M  V30 60 H -2.921671 -5.752509 1.805911 0
M  V30 61 H -0.609671 -1.422718 3.601481 0
M  V30 62 H -1.929769 -0.955862 2.556350 0
M  V30 63 H -0.803227 0.321957 3.050179 0
M  V30 END ATOM
M  V30 BEGIN BOND
M  V30 1 2 1 2
M  V30 2 1 2 3
M  V30 3 1 3 4 CFG=1
M  V30 4 1 3 5
M  V30 5 1 5 6
M  V30 6 2 6 7
M  V30 7 1 6 8
M  V30 8 1 8 9 CFG=1
M  V30 9 1 8 10
M  V30 10 1 10 11 CFG=1
M  V30 11 1 10 12
M  V30 12 1 12 13
M  V30 13 1 12 14
M  V30 14 1 14 15
M  V30 15 1 15 16
M  V30 16 1 16 17
M  V30 17 1 16 18
M  V30 18 1 16 19
M  V30 19 1 19 20
M  V30 20 1 20 21
M  V30 21 1 20 22
M  V30 22 1 22 23
M  V30 23 1 23 24
M  V30 24 1 24 25
M  V30 25 2 24 26
M  V30 26 1 22 27
M  V30 27 1 27 28 CFG=1
M  V30 28 1 27 29
M  V30 29 1 29 3
M  V30 30 1 27 8
M  V30 31 1 19 10
M  V30 32 1 1 30
M  V30 33 1 1 31
M  V30 34 1 2 32
M  V30 35 1 4 33
M  V30 36 1 4 34
M  V30 37 1 4 35
M  V30 38 1 5 36
M  V30 39 1 5 37
M  V30 40 1 9 38
M  V30 41 1 11 39
M  V30 42 1 11 40
M  V30 43 1 11 41
M  V30 44 1 12 42 CFG=1
M  V30 45 1 13 43
M  V30 46 1 14 44
M  V30 47 1 14 45
M  V30 48 1 15 46
M  V30 49 1 15 47
M  V30 50 1 17 48
M  V30 51 1 17 49
M  V30 52 1 17 50
M  V30 53 1 18 51
M  V30 54 1 18 52
M  V30 55 1 18 53
M  V30 56 1 19 54 CFG=3
M  V30 57 1 20 55 CFG=3
M  V30 58 1 21 56
M  V30 59 1 22 57 CFG=3
M  V30 60 1 25 58
M  V30 61 1 25 59
M  V30 62 1 25 60
M  V30 63 1 28 61
M  V30 64 1 28 62
M  V30 65 1 28 63
M  V30 END BOND
M  V30 END CTAB
M  END
>  <Dataset>  (176) 
ChEMBL_Kinases

>  <Ligand_Instance>  (176) 
nan

>  <PDB_ID>  (176) 
nan

>  <Standardized_SMILES>  (176) 
C=C[C@@]1(C)CC(=O)[C@@]2(O)[C@@]3(C)[C@@H](O)CCC(C)(C)[C@@H]3[C@H](O)[C@H](OC(C)=O)[C@@]2(C)O1

>  <Name>  (176) 
nan

>  <Pocket>  (176) 
nan

>  <ATP_Site>  (176) 
nan

>  <Peripheral>  (176) 
nan

>  <Num_H_Atoms_ProtBoundConf>  (176) 
nan

>  <Num_Resolved_Atoms>  (176) 
nan

>  <Num_Not_Resolved_Atoms>  (176) 
nan

$$$$
CHEMBL1471387
     RDKit          3D

  0  0  0  0  0  0  0  0  0  0999 V3000
M  V30 BEGIN CTAB
M  V30 COUNTS 64 68 0 0 0
M  V30 BEGIN ATOM
M  V30 1 C 3.246901 -1.755948 5.259841 0
M  V30 2 O 2.725354 -0.569885 4.756518 0
M  V30 3 C 2.972434 -0.080443 3.499216 0
M  V30 4 C 3.764246 -0.645726 2.522611 0
M  V30 5 C 3.938748 -0.060006 1.288158 0
M  V30 6 C 3.342739 1.120071 0.934036 0
M  V30 7 C 3.470161 1.971148 -0.231898 0
M  V30 8 C 2.968186 1.520131 -1.512676 0
M  V30 9 N 1.684865 1.062260 -1.845001 0
M  V30 10 C 1.557459 1.135647 -3.323504 0
M  V30 11 C 0.179053 1.048701 -3.830571 0
M  V30 12 C -0.719099 0.073206 -3.172884 0
M  V30 13 N -0.567321 0.028347 -1.736882 0
M  V30 14 C 0.562213 0.510735 -1.208969 0
M  V30 15 N 0.461927 0.332898 0.103054 0
M  V30 16 C -0.686092 -0.244719 0.450623 0
M  V30 17 C -1.333940 -0.431688 -0.742064 0
M  V30 18 C -2.579575 -1.014088 -0.858791 0
M  V30 19 O -3.126654 -1.158294 -1.970949 0
M  V30 20 N -3.247515 -1.448241 0.250695 0
M  V30 21 C -4.563821 -2.007181 0.066564 0
M  V30 22 C -4.552780 -3.433279 -0.306797 0
M  V30 23 C -4.808301 -3.758870 -1.648028 0
M  V30 24 C -4.842565 -5.006350 -2.236089 0
M  V30 25 C -4.590528 -6.073465 -1.372711 0
M  V30 26 C -4.333041 -5.841736 -0.045010 0
M  V30 27 C -4.321732 -4.554992 0.441024 0
M  V30 28 F -4.075331 -4.356617 1.748009 0
M  V30 29 C -2.562969 -1.237803 1.385900 0
M  V30 30 O -3.121439 -1.612484 2.461667 0
M  V30 31 N -1.356696 -0.675949 1.522950 0
M  V30 32 C -0.728541 -0.505053 2.810580 0
M  V30 33 C 2.543833 1.662562 1.958786 0
M  V30 34 C 2.344906 1.106544 3.213282 0
M  V30 35 O 1.531825 1.751867 4.142649 0
M  V30 36 C 0.930249 2.971676 3.787993 0
M  V30 37 H 4.157173 -1.563396 5.878691 0
M  V30 38 H 3.519211 -2.495632 4.478855 0
M  V30 39 H 2.516680 -2.205168 6.008010 0
M  V30 40 H 4.254165 -1.577625 2.762047 0
M  V30 41 H 4.549458 -0.483241 0.500728 0
M  V30 42 H 3.195594 3.047391 0.010098 0
M  V30 43 H 4.629916 2.083868 -0.396375 0
M  V30 44 H 3.731643 0.708005 -1.873215 0
M  V30 45 H 3.295743 2.354774 -2.258759 0
M  V30 46 H 2.215362 0.397628 -3.822048 0
M  V30 47 H 1.959961 2.144333 -3.628684 0
M  V30 48 H -0.260819 2.093410 -3.850028 0
M  V30 49 H 0.232094 0.750035 -4.919907 0
M  V30 50 H -1.770173 0.341376 -3.390333 0
M  V30 51 H -0.595163 -0.962905 -3.599936 0
M  V30 52 H -5.024325 -1.419316 -0.767608 0
M  V30 53 H -5.170164 -1.893952 1.001148 0
M  V30 54 H -5.031124 -3.001233 -2.420304 0
M  V30 55 H -5.039880 -5.227060 -3.270758 0
M  V30 56 H -4.607670 -7.085376 -1.795025 0
M  V30 57 H -4.143704 -6.677816 0.610593 0
M  V30 58 H -0.671961 0.594004 3.060595 0
M  V30 59 H -1.434172 -0.920136 3.581181 0
M  V30 60 H 0.275845 -0.962518 2.894372 0
M  V30 61 H 2.016429 2.614279 1.786048 0
M  V30 62 H 0.285957 3.378678 4.599184 0
M  V30 63 H 0.314494 2.814621 2.889501 0
M  V30 64 H 1.702736 3.744616 3.504316 0
M  V30 END ATOM
M  V30 BEGIN BOND
M  V30 1 1 1 2
M  V30 2 1 2 3
M  V30 3 2 3 4
M  V30 4 1 4 5
M  V30 5 2 5 6
M  V30 6 1 6 7
M  V30 7 1 7 8
M  V30 8 1 8 9
M  V30 9 1 9 10
M  V30 10 1 10 11
M  V30 11 1 11 12
M  V30 12 1 12 13
M  V30 13 1 13 14
M  V30 14 2 14 15
M  V30 15 1 15 16
M  V30 16 2 16 17
M  V30 17 1 17 18
M  V30 18 2 18 19
M  V30 19 1 18 20
M  V30 20 1 20 21
M  V30 21 1 21 22
M  V30 22 2 22 23
M  V30 23 1 23 24
M  V30 24 2 24 25
M  V30 25 1 25 26
M  V30 26 2 26 27
M  V30 27 1 27 28
M  V30 28 1 20 29
M  V30 29 2 29 30
M  V30 30 1 29 31
M  V30 31 1 31 32
M  V30 32 1 6 33
M  V30 33 2 33 34
M  V30 34 1 34 35
M  V30 35 1 35 36
M  V30 36 1 34 3
M  V30 37 1 14 9
M  V30 38 1 31 16
M  V30 39 1 17 13
M  V30 40 1 27 22
M  V30 41 1 1 37
M  V30 42 1 1 38
M  V30 43 1 1 39
M  V30 44 1 4 40
M  V30 45 1 5 41
M  V30 46 1 7 42
M  V30 47 1 7 43
M  V30 48 1 8 44
M  V30 49 1 8 45
M  V30 50 1 10 46
M  V30 51 1 10 47
M  V30 52 1 11 48
M  V30 53 1 11 49
M  V30 54 1 12 50
M  V30 55 1 12 51
M  V30 56 1 21 52
M  V30 57 1 21 53
M  V30 58 1 23 54
M  V30 59 1 24 55
M  V30 60 1 25 56
M  V30 61 1 26 57
M  V30 62 1 32 58
M  V30 63 1 32 59
M  V30 64 1 32 60
M  V30 65 1 33 61
M  V30 66 1 36 62
M  V30 67 1 36 63
M  V30 68 1 36 64
M  V30 END BOND
M  V30 END CTAB
M  END
>  <Dataset>  (177) 
ChEMBL_Kinases

>  <Ligand_Instance>  (177) 
nan

>  <PDB_ID>  (177) 
nan

>  <Standardized_SMILES>  (177) 
COc1ccc(CCN2CCCn3c2nc2c3c(=O)n(Cc3ccccc3F)c(=O)n2C)cc1OC

>  <Name>  (177) 
nan

>  <Pocket>  (177) 
nan

>  <ATP_Site>  (177) 
nan

>  <Peripheral>  (177) 
nan

>  <Num_H_Atoms_ProtBoundConf>  (177) 
nan

>  <Num_Resolved_Atoms>  (177) 
nan

>  <Num_Not_Resolved_Atoms>  (177) 
nan

$$$$
CHEMBL1471549
     RDKit          3D

  0  0  0  0  0  0  0  0  0  0999 V3000
M  V30 BEGIN CTAB
M  V30 COUNTS 45 47 0 0 0
M  V30 BEGIN ATOM
M  V30 1 C 0.462867 -4.344096 2.957723 0
M  V30 2 O -0.143125 -4.041025 1.739867 0
M  V30 3 C 0.492615 -3.174191 0.847993 0
M  V30 4 C 1.721860 -2.659646 1.255583 0
M  V30 5 C 2.353567 -1.798196 0.371350 0
M  V30 6 C 1.858198 -1.418044 -0.869508 0
M  V30 7 N 2.655017 -0.553928 -1.631735 0
M  V30 8 N 3.978578 -0.458153 -1.709221 0
M  V30 9 N 4.326846 0.478834 -2.569193 0
M  V30 10 N 3.182079 0.982509 -3.043063 0
M  V30 11 C 2.162098 0.345811 -2.462470 0
M  V30 12 S 0.591487 0.960575 -3.005069 0
M  V30 13 C -0.023087 2.353994 -2.067503 0
M  V30 14 C -0.415635 2.085863 -0.690475 0
M  V30 15 O -1.651054 1.904855 -0.402051 0
M  V30 16 N 0.402646 1.984437 0.464253 0
M  V30 17 C -0.106154 1.722333 1.760750 0
M  V30 18 C -0.250380 0.347779 1.994066 0
M  V30 19 C -0.712512 -0.167272 3.185262 0
M  V30 20 C -1.059723 0.671055 4.220294 0
M  V30 21 C -0.903954 2.037942 3.953042 0
M  V30 22 C -1.264908 2.954936 5.055291 0
M  V30 23 N -0.452081 2.498657 2.783763 0
M  V30 24 C 0.646109 -1.961381 -1.203287 0
M  V30 25 C -0.028554 -2.815620 -0.380395 0
M  V30 26 O -1.239995 -3.405696 -0.633559 0
M  V30 27 C -1.974405 -3.217666 -1.800154 0
M  V30 28 H 1.482550 -4.779354 2.787155 0
M  V30 29 H 0.561121 -3.484299 3.630325 0
M  V30 30 H -0.144485 -5.124948 3.464797 0
M  V30 31 H 2.154537 -2.917543 2.204900 0
M  V30 32 H 3.324229 -1.402938 0.712357 0
M  V30 33 H 0.710122 3.185107 -2.169116 0
M  V30 34 H -0.932158 2.744119 -2.614227 0
M  V30 35 H 1.445056 2.118494 0.280215 0
M  V30 36 H -0.017765 -0.393908 1.256455 0
M  V30 37 H -0.819850 -1.232036 3.357816 0
M  V30 38 H -1.419765 0.248898 5.147465 0
M  V30 39 H -0.959485 3.974122 4.770764 0
M  V30 40 H -2.319154 2.859652 5.387616 0
M  V30 41 H -0.570399 2.685719 5.906837 0
M  V30 42 H 0.238973 -1.680533 -2.160220 0
M  V30 43 H -2.380497 -4.194219 -2.155126 0
M  V30 44 H -1.346696 -2.808101 -2.599124 0
M  V30 45 H -2.785899 -2.485900 -1.610298 0
M  V30 END ATOM
M  V30 BEGIN BOND
M  V30 1 1 1 2
M  V30 2 1 2 3
M  V30 3 2 3 4
M  V30 4 1 4 5
M  V30 5 2 5 6
M  V30 6 1 6 7
M  V30 7 1 7 8
M  V30 8 2 8 9
M  V30 9 1 9 10
M  V30 10 2 10 11
M  V30 11 1 11 12
M  V30 12 1 12 13
M  V30 13 1 13 14
M  V30 14 2 14 15
M  V30 15 1 14 16
M  V30 16 1 16 17
M  V30 17 2 17 18
M  V30 18 1 18 19
M  V30 19 2 19 20
M  V30 20 1 20 21
M  V30 21 1 21 22
M  V30 22 2 21 23
M  V30 23 1 6 24
M  V30 24 2 24 25
M  V30 25 1 25 26
M  V30 26 1 26 27
M  V30 27 1 25 3
M  V30 28 1 11 7
M  V30 29 1 23 17
M  V30 30 1 1 28
M  V30 31 1 1 29
M  V30 32 1 1 30
M  V30 33 1 4 31
M  V30 34 1 5 32
M  V30 35 1 13 33
M  V30 36 1 13 34
M  V30 37 1 16 35
M  V30 38 1 18 36
M  V30 39 1 19 37
M  V30 40 1 20 38
M  V30 41 1 22 39
M  V30 42 1 22 40
M  V30 43 1 22 41
M  V30 44 1 24 42
M  V30 45 1 27 43
M  V30 46 1 27 44
M  V30 47 1 27 45
M  V30 END BOND
M  V30 END CTAB
M  END
>  <Dataset>  (178) 
ChEMBL_Kinases

>  <Ligand_Instance>  (178) 
nan

>  <PDB_ID>  (178) 
nan

>  <Standardized_SMILES>  (178) 
COc1ccc(-n2nnnc2SCC(=O)Nc2cccc(C)n2)cc1OC

>  <Name>  (178) 
nan

>  <Pocket>  (178) 
nan

>  <ATP_Site>  (178) 
nan

>  <Peripheral>  (178) 
nan

>  <Num_H_Atoms_ProtBoundConf>  (178) 
nan

>  <Num_Resolved_Atoms>  (178) 
nan

>  <Num_Not_Resolved_Atoms>  (178) 
nan

$$$$
CHEMBL1471589
     RDKit          3D

  0  0  0  0  0  0  0  0  0  0999 V3000
M  V30 BEGIN CTAB
M  V30 COUNTS 53 55 0 0 0
M  V30 BEGIN ATOM
M  V30 1 C -1.501697 0.245710 4.500937 0
M  V30 2 C -0.813481 0.091565 3.133707 0
M  V30 3 N -0.692043 1.404896 2.602124 0
M  V30 4 C 0.289970 2.301355 2.671195 0
M  V30 5 C 1.633219 2.162259 3.261984 0
M  V30 6 N 2.693203 1.938471 2.325399 0
M  V30 7 C 3.179401 1.102783 1.299801 0
M  V30 8 C 4.379935 1.282177 0.615033 0
M  V30 9 C 4.710841 0.384401 -0.362982 0
M  V30 10 C 3.902507 -0.674592 -0.682939 0
M  V30 11 C 4.421893 -1.539991 -1.765225 0
M  V30 12 C 2.711089 -0.875710 -0.022344 0
M  V30 13 C 2.384948 0.032308 0.960271 0
M  V30 14 N -0.141563 3.410616 2.048250 0
M  V30 15 N -1.388500 3.167854 1.605976 0
M  V30 16 C -1.748427 1.892548 1.953387 0
M  V30 17 S -3.386749 1.639423 1.344799 0
M  V30 18 C -3.503467 1.000535 -0.305768 0
M  V30 19 C -3.184782 -0.397350 -0.523465 0
M  V30 20 O -2.973845 -0.747914 -1.730469 0
M  V30 21 N -3.096603 -1.381367 0.474379 0
M  V30 22 C -2.814448 -2.789063 0.630725 0
M  V30 23 C -2.462186 -3.479757 -0.616162 0
M  V30 24 C -1.112916 -3.527892 -0.965110 0
M  V30 25 C -0.658386 -4.148838 -2.113220 0
M  V30 26 C -1.629111 -4.725354 -2.903357 0
M  V30 27 C -2.993402 -4.715309 -2.616386 0
M  V30 28 C -3.393197 -4.075272 -1.446545 0
M  V30 29 H -2.352533 0.937774 4.431148 0
M  V30 30 H -0.782940 0.554866 5.268291 0
M  V30 31 H -1.901534 -0.747710 4.757022 0
M  V30 32 H -1.342721 -0.565030 2.457169 0
M  V30 33 H 0.191356 -0.340357 3.361895 0
M  V30 34 H 1.589430 1.223278 3.909520 0
M  V30 35 H 1.822010 2.994258 3.951935 0
M  V30 36 H 3.396767 2.733221 2.464634 0
M  V30 37 H 4.996139 2.125317 0.889882 0
M  V30 38 H 5.642864 0.595523 -0.836381 0
M  V30 39 H 5.019740 -2.393536 -1.379747 0
M  V30 40 H 5.054028 -0.980138 -2.484002 0
M  V30 41 H 3.593762 -2.009321 -2.358507 0
M  V30 42 H 2.142875 -1.735175 -0.343485 0
M  V30 43 H 1.445056 -0.231801 1.387676 0
M  V30 44 H -2.791753 1.593756 -0.965234 0
M  V30 45 H -4.506722 1.190908 -0.757292 0
M  V30 46 H -3.320215 -1.013106 1.407311 0
M  V30 47 H -3.707808 -3.299076 1.081453 0
M  V30 48 H -1.981013 -2.964107 1.365093 0
M  V30 49 H -0.377087 -3.059062 -0.309902 0
M  V30 50 H 0.390021 -4.178651 -2.372611 0
M  V30 51 H -1.269692 -5.217016 -3.813031 0
M  V30 52 H -3.720962 -5.172079 -3.249034 0
M  V30 53 H -4.455205 -4.035208 -1.170193 0
M  V30 END ATOM
M  V30 BEGIN BOND
M  V30 1 1 1 2
M  V30 2 1 2 3
M  V30 3 1 3 4
M  V30 4 1 4 5
M  V30 5 1 5 6
M  V30 6 1 6 7
M  V30 7 2 7 8
M  V30 8 1 8 9
M  V30 9 2 9 10
M  V30 10 1 10 11
M  V30 11 1 10 12
M  V30 12 2 12 13
M  V30 13 2 4 14
M  V30 14 1 14 15
M  V30 15 2 15 16
M  V30 16 1 16 17
M  V30 17 1 17 18
M  V30 18 1 18 19
M  V30 19 2 19 20
M  V30 20 1 19 21
M  V30 21 1 21 22
M  V30 22 1 22 23
M  V30 23 2 23 24
M  V30 24 1 24 25
M  V30 25 2 25 26
M  V30 26 1 26 27
M  V30 27 2 27 28
M  V30 28 1 16 3
M  V30 29 1 28 23
M  V30 30 1 13 7
M  V30 31 1 1 29
M  V30 32 1 1 30
M  V30 33 1 1 31
M  V30 34 1 2 32
M  V30 35 1 2 33
M  V30 36 1 5 34
M  V30 37 1 5 35
M  V30 38 1 6 36
M  V30 39 1 8 37
M  V30 40 1 9 38
M  V30 41 1 11 39
M  V30 42 1 11 40
M  V30 43 1 11 41
M  V30 44 1 12 42
M  V30 45 1 13 43
M  V30 46 1 18 44
M  V30 47 1 18 45
M  V30 48 1 21 46
M  V30 49 1 22 47
M  V30 50 1 22 48
M  V30 51 1 24 49
M  V30 52 1 25 50
M  V30 53 1 26 51
M  V30 54 1 27 52
M  V30 55 1 28 53
M  V30 END BOND
M  V30 END CTAB
M  END
>  <Dataset>  (179) 
ChEMBL_Kinases

>  <Ligand_Instance>  (179) 
nan

>  <PDB_ID>  (179) 
nan

>  <Standardized_SMILES>  (179) 
CCn1c(CNc2ccc(C)cc2)nnc1SCC(=O)NCc1ccccc1

>  <Name>  (179) 
nan

>  <Pocket>  (179) 
nan

>  <ATP_Site>  (179) 
nan

>  <Peripheral>  (179) 
nan

>  <Num_H_Atoms_ProtBoundConf>  (179) 
nan

>  <Num_Resolved_Atoms>  (179) 
nan

>  <Num_Not_Resolved_Atoms>  (179) 
nan

$$$$
CHEMBL1471714
     RDKit          3D

  0  0  0  0  0  0  0  0  0  0999 V3000
M  V30 BEGIN CTAB
M  V30 COUNTS 37 39 0 0 0
M  V30 BEGIN ATOM
M  V30 1 O -1.480837 -0.035436 -0.212913 0
M  V30 2 C -2.126459 -1.124759 -0.033941 0
M  V30 3 C -1.993876 -2.039265 -1.188959 0
M  V30 4 C -1.142421 -1.496216 -2.281598 0
M  V30 5 C 0.236755 -1.230068 -1.777669 0
M  V30 6 N 0.983264 -1.246900 -0.910328 0
M  V30 7 C 2.247742 -0.892173 -0.855576 0
M  V30 8 C 3.124834 -0.924101 0.208203 0
M  V30 9 C 4.420780 -0.497620 0.032237 0
M  V30 10 C 4.958635 -0.021471 -1.144805 0
M  V30 11 C 4.097984 0.020251 -2.227668 0
M  V30 12 C 2.783837 -0.414069 -2.042016 0
M  V30 13 S 1.359582 -0.533219 -3.138843 0
M  V30 14 N -2.889135 -1.458953 1.113500 0
M  V30 15 C -2.972852 -0.519339 2.198289 0
M  V30 16 C -1.691004 -0.159627 2.811269 0
M  V30 17 C -1.052846 1.061753 2.574257 0
M  V30 18 C 0.153051 1.417770 3.142059 0
M  V30 19 C 0.788432 0.540171 3.995639 0
M  V30 20 C 0.183136 -0.690109 4.258043 0
M  V30 21 C -1.025604 -1.023497 3.676519 0
M  V30 22 F -1.559671 -2.235808 3.973983 0
M  V30 23 H -1.465172 -2.951863 -0.792734 0
M  V30 24 H -2.975388 -2.362357 -1.572251 0
M  V30 25 H -1.047076 -2.305340 -3.045524 0
M  V30 26 H -1.572505 -0.631740 -2.809872 0
M  V30 27 H 2.895533 -1.260785 1.203413 0
M  V30 28 H 5.146048 -0.510580 0.863753 0
M  V30 29 H 5.962890 0.312783 -1.294827 0
M  V30 30 H 4.356101 0.361930 -3.211489 0
M  V30 31 H -3.377144 -2.396056 1.137338 0
M  V30 32 H -3.383010 0.434968 1.755824 0
M  V30 33 H -3.691585 -0.814964 2.971502 0
M  V30 34 H -1.597445 1.724515 1.890604 0
M  V30 35 H 0.498541 2.398073 2.846731 0
M  V30 36 H 1.727864 0.892955 4.398354 0
M  V30 37 H 0.716666 -1.345277 4.932470 0
M  V30 END ATOM
M  V30 BEGIN BOND
M  V30 1 2 1 2
M  V30 2 1 2 3
M  V30 3 1 3 4
M  V30 4 1 4 5
M  V30 5 2 5 6
M  V30 6 1 6 7
M  V30 7 2 7 8
M  V30 8 1 8 9
M  V30 9 2 9 10
M  V30 10 1 10 11
M  V30 11 2 11 12
M  V30 12 1 12 13
M  V30 13 1 2 14
M  V30 14 1 14 15
M  V30 15 1 15 16
M  V30 16 2 16 17
M  V30 17 1 17 18
M  V30 18 2 18 19
M  V30 19 1 19 20
M  V30 20 2 20 21
M  V30 21 1 21 22
M  V30 22 1 13 5
M  V30 23 1 21 16
M  V30 24 1 12 7
M  V30 25 1 3 23
M  V30 26 1 3 24
M  V30 27 1 4 25
M  V30 28 1 4 26
M  V30 29 1 8 27
M  V30 30 1 9 28
M  V30 31 1 10 29
M  V30 32 1 11 30
M  V30 33 1 14 31
M  V30 34 1 15 32
M  V30 35 1 15 33
M  V30 36 1 17 34
M  V30 37 1 18 35
M  V30 38 1 19 36
M  V30 39 1 20 37
M  V30 END BOND
M  V30 END CTAB
M  END
>  <Dataset>  (180) 
ChEMBL_Kinases

>  <Ligand_Instance>  (180) 
nan

>  <PDB_ID>  (180) 
nan

>  <Standardized_SMILES>  (180) 
O=C(CCc1nc2ccccc2s1)NCc1ccccc1F

>  <Name>  (180) 
nan

>  <Pocket>  (180) 
nan

>  <ATP_Site>  (180) 
nan

>  <Peripheral>  (180) 
nan

>  <Num_H_Atoms_ProtBoundConf>  (180) 
nan

>  <Num_Resolved_Atoms>  (180) 
nan

>  <Num_Not_Resolved_Atoms>  (180) 
nan

$$$$
CHEMBL1471864
     RDKit          3D

  0  0  0  0  0  0  0  0  0  0999 V3000
M  V30 BEGIN CTAB
M  V30 COUNTS 55 57 0 0 0
M  V30 BEGIN ATOM
M  V30 1 C -0.756462 -5.821206 3.462777 0
M  V30 2 O -0.463852 -5.262458 2.216599 0
M  V30 3 C 0.486024 -4.276226 2.025315 0
M  V30 4 C 1.198115 -3.798862 3.101971 0
M  V30 5 C 2.132241 -2.821069 2.876717 0
M  V30 6 C 2.416056 -2.269485 1.623325 0
M  V30 7 C 3.456612 -1.239144 1.606540 0
M  V30 8 C 2.974403 0.163138 1.823161 0
M  V30 9 N 2.041168 0.507658 0.772201 0
M  V30 10 C 2.318795 0.541532 -0.614952 0
M  V30 11 O 3.468378 0.253831 -1.036119 0
M  V30 12 C 1.264320 0.916538 -1.600505 0
M  V30 13 C 0.723557 2.287595 -1.371175 0
M  V30 14 C -0.647723 2.359419 -0.794990 0
M  V30 15 N -1.603022 1.499547 -1.413189 0
M  V30 16 S -2.693988 0.766224 -0.314190 0
M  V30 17 O -2.038541 -0.077060 0.725996 0
M  V30 18 O -3.647798 -0.103351 -1.068303 0
M  V30 19 C -3.645165 1.966388 0.529709 0
M  V30 20 C -3.750648 2.241539 1.869045 0
M  V30 21 N -4.607257 3.253246 2.022835 0
M  V30 22 C -5.027829 3.598879 0.773357 0
M  V30 23 N -4.448869 2.820969 -0.155953 0
M  V30 24 C -1.050933 0.490653 -2.268146 0
M  V30 25 C 0.156541 -0.094853 -1.571248 0
M  V30 26 C 1.683819 -2.771736 0.570046 0
M  V30 27 C 0.741705 -3.753834 0.777208 0
M  V30 28 O -0.008660 -4.279110 -0.257901 0
M  V30 29 C 0.090775 -3.895207 -1.596005 0
M  V30 30 H -0.864328 -5.023487 4.217520 0
M  V30 31 H -1.736995 -6.343185 3.435115 0
M  V30 32 H 0.009210 -6.572669 3.777686 0
M  V30 33 H 1.000408 -4.204567 4.075368 0
M  V30 34 H 2.654579 -2.492588 3.766966 0
M  V30 35 H 3.952839 -1.316279 0.603666 0
M  V30 36 H 4.242007 -1.499996 2.363028 0
M  V30 37 H 2.499865 0.283827 2.801388 0
M  V30 38 H 3.868121 0.819906 1.753772 0
M  V30 39 H 1.042297 0.764961 1.034694 0
M  V30 40 H 1.680401 0.894832 -2.631547 0
M  V30 41 H 1.398755 2.818643 -0.648219 0
M  V30 42 H 0.768979 2.933593 -2.291915 0
M  V30 43 H -1.011748 3.411572 -0.990093 0
M  V30 44 H -0.670010 2.285130 0.319130 0
M  V30 45 H -3.193057 1.676332 2.587424 0
M  V30 46 H -4.840895 3.631033 2.957901 0
M  V30 47 H -5.738338 4.414757 0.696812 0
M  V30 48 H -1.776355 -0.347131 -2.368670 0
M  V30 49 H -0.683581 0.882258 -3.233209 0
M  V30 50 H -0.066908 -0.308973 -0.506402 0
M  V30 51 H 0.470996 -1.058257 -2.021901 0
M  V30 52 H 1.898125 -2.352268 -0.386545 0
M  V30 53 H -0.119385 -4.795138 -2.220074 0
M  V30 54 H 1.087450 -3.500978 -1.852342 0
M  V30 55 H -0.689113 -3.145817 -1.846432 0
M  V30 END ATOM
M  V30 BEGIN BOND
M  V30 1 1 1 2
M  V30 2 1 2 3
M  V30 3 2 3 4
M  V30 4 1 4 5
M  V30 5 2 5 6
M  V30 6 1 6 7
M  V30 7 1 7 8
M  V30 8 1 8 9
M  V30 9 1 9 10
M  V30 10 2 10 11
M  V30 11 1 10 12
M  V30 12 1 12 13
M  V30 13 1 13 14
M  V30 14 1 14 15
M  V30 15 1 15 16
M  V30 16 2 16 17
M  V30 17 2 16 18
M  V30 18 1 16 19
M  V30 19 2 19 20
M  V30 20 1 20 21
M  V30 21 1 21 22
M  V30 22 2 22 23
M  V30 23 1 15 24
M  V30 24 1 24 25
M  V30 25 1 6 26
M  V30 26 2 26 27
M  V30 27 1 27 28
M  V30 28 1 28 29
M  V30 29 1 27 3
M  V30 30 1 25 12
M  V30 31 1 23 19
M  V30 32 1 1 30
M  V30 33 1 1 31
M  V30 34 1 1 32
M  V30 35 1 4 33
M  V30 36 1 5 34
M  V30 37 1 7 35
M  V30 38 1 7 36
M  V30 39 1 8 37
M  V30 40 1 8 38
M  V30 41 1 9 39
M  V30 42 1 12 40
M  V30 43 1 13 41
M  V30 44 1 13 42
M  V30 45 1 14 43
M  V30 46 1 14 44
M  V30 47 1 20 45
M  V30 48 1 21 46
M  V30 49 1 22 47
M  V30 50 1 24 48
M  V30 51 1 24 49
M  V30 52 1 25 50
M  V30 53 1 25 51
M  V30 54 1 26 52
M  V30 55 1 29 53
M  V30 56 1 29 54
M  V30 57 1 29 55
M  V30 END BOND
M  V30 END CTAB
M  END
>  <Dataset>  (181) 
ChEMBL_Kinases

>  <Ligand_Instance>  (181) 
nan

>  <PDB_ID>  (181) 
nan

>  <Standardized_SMILES>  (181) 
COc1ccc(CCNC(=O)C2CCN(S(=O)(=O)c3c[nH]cn3)CC2)cc1OC

>  <Name>  (181) 
nan

>  <Pocket>  (181) 
nan

>  <ATP_Site>  (181) 
nan

>  <Peripheral>  (181) 
nan

>  <Num_H_Atoms_ProtBoundConf>  (181) 
nan

>  <Num_Resolved_Atoms>  (181) 
nan

>  <Num_Not_Resolved_Atoms>  (181) 
nan

$$$$
CHEMBL1471942
     RDKit          3D

  0  0  0  0  0  0  0  0  0  0999 V3000
M  V30 BEGIN CTAB
M  V30 COUNTS 43 46 0 0 0
M  V30 BEGIN ATOM
M  V30 1 C 0.046228 -4.820931 4.323912 0
M  V30 2 O 1.198037 -4.717938 3.481798 0
M  V30 3 C 1.187340 -3.865941 2.381276 0
M  V30 4 C 2.350458 -3.842590 1.636340 0
M  V30 5 C 2.372916 -3.006967 0.536923 0
M  V30 6 C 1.326200 -2.195055 0.125269 0
M  V30 7 C 1.455814 -1.323882 -1.086676 0
M  V30 8 C 1.852617 0.075489 -0.800818 0
M  V30 9 C 0.786227 1.099280 -0.737379 0
M  V30 10 C 0.898719 1.872385 0.504988 0
M  V30 11 C 0.757820 3.260768 0.548453 0
M  V30 12 C 0.848681 4.052333 1.674258 0
M  V30 13 C 1.105141 3.401574 2.878766 0
M  V30 14 Cl 1.214369 4.433279 4.286057 0
M  V30 15 C 1.254126 2.022605 2.894111 0
M  V30 16 C 1.147530 1.306379 1.718714 0
M  V30 17 N -0.550464 0.618547 -0.990900 0
M  V30 18 N -1.677204 1.218972 -0.736214 0
M  V30 19 C -2.698176 0.439522 -1.122490 0
M  V30 20 N -4.055145 0.866160 -0.954086 0
M  V30 21 N -2.181152 -0.693682 -1.639164 0
M  V30 22 C -0.849021 -0.574303 -1.553646 0
M  V30 23 N 0.260911 -1.414964 -1.920194 0
M  V30 24 C 0.188592 -2.258672 0.906845 0
M  V30 25 C 0.112746 -3.079087 2.019273 0
M  V30 26 H -0.217191 -3.799081 4.723621 0
M  V30 27 H -0.848994 -5.153355 3.775018 0
M  V30 28 H 0.305440 -5.418677 5.211354 0
M  V30 29 H 3.234253 -4.429722 1.855886 0
M  V30 30 H 3.295424 -2.982791 -0.061018 0
M  V30 31 H 2.255136 -1.793196 -1.697853 0
M  V30 32 H 2.423754 0.047113 0.175561 0
M  V30 33 H 2.655132 0.392209 -1.532467 0
M  V30 34 H 0.963704 1.854711 -1.561745 0
M  V30 35 H 0.555692 3.775963 -0.398588 0
M  V30 36 H 0.719480 5.126100 1.578418 0
M  V30 37 H 1.448844 1.635382 3.881462 0
M  V30 38 H 1.276493 0.259820 1.839174 0
M  V30 39 H -4.620572 1.172198 -1.774819 0
M  V30 40 H -4.527479 0.885692 -0.001336 0
M  V30 41 H 0.133525 -2.041697 -2.769634 0
M  V30 42 H -0.648315 -1.662910 0.647272 0
M  V30 43 H -0.782672 -3.120420 2.623067 0
M  V30 END ATOM
M  V30 BEGIN BOND
M  V30 1 1 1 2
M  V30 2 1 2 3
M  V30 3 2 3 4
M  V30 4 1 4 5
M  V30 5 2 5 6
M  V30 6 1 6 7
M  V30 7 1 7 8
M  V30 8 1 8 9
M  V30 9 1 9 10
M  V30 10 2 10 11
M  V30 11 1 11 12
M  V30 12 2 12 13
M  V30 13 1 13 14
M  V30 14 1 13 15
M  V30 15 2 15 16
M  V30 16 1 9 17
M  V30 17 1 17 18
M  V30 18 2 18 19
M  V30 19 1 19 20
M  V30 20 1 19 21
M  V30 21 2 21 22
M  V30 22 1 22 23
M  V30 23 1 6 24
M  V30 24 2 24 25
M  V30 25 1 25 3
M  V30 26 1 23 7
M  V30 27 1 16 10
M  V30 28 1 22 17
M  V30 29 1 1 26
M  V30 30 1 1 27
M  V30 31 1 1 28
M  V30 32 1 4 29
M  V30 33 1 5 30
M  V30 34 1 7 31
M  V30 35 1 8 32
M  V30 36 1 8 33
M  V30 37 1 9 34
M  V30 38 1 11 35
M  V30 39 1 12 36
M  V30 40 1 15 37
M  V30 41 1 16 38
M  V30 42 1 20 39
M  V30 43 1 20 40
M  V30 44 1 23 41
M  V30 45 1 24 42
M  V30 46 1 25 43
M  V30 END BOND
M  V30 END CTAB
M  END
>  <Dataset>  (182) 
ChEMBL_Kinases

>  <Ligand_Instance>  (182) 
nan

>  <PDB_ID>  (182) 
nan

>  <Standardized_SMILES>  (182) 
COc1ccc(C2CC(c3ccc(Cl)cc3)n3nc(N)nc3N2)cc1

>  <Name>  (182) 
nan

>  <Pocket>  (182) 
nan

>  <ATP_Site>  (182) 
nan

>  <Peripheral>  (182) 
nan

>  <Num_H_Atoms_ProtBoundConf>  (182) 
nan

>  <Num_Resolved_Atoms>  (182) 
nan

>  <Num_Not_Resolved_Atoms>  (182) 
nan

$$$$
CHEMBL1471990
     RDKit          3D

  0  0  0  0  0  0  0  0  0  0999 V3000
M  V30 BEGIN CTAB
M  V30 COUNTS 32 34 0 0 0
M  V30 BEGIN ATOM
M  V30 1 O -0.010800 0.724073 2.370643 0
M  V30 2 C -0.853552 -0.160358 2.024752 0
M  V30 3 N -0.276043 -1.435797 1.790765 0
M  V30 4 N 1.061129 -1.677424 1.927507 0
M  V30 5 C 2.291047 -1.695812 1.276296 0
M  V30 6 N 3.388553 -2.042044 2.012749 0
M  V30 7 C 4.606651 -2.081018 1.449720 0
M  V30 8 N 4.750965 -1.776805 0.148476 0
M  V30 9 C 3.728700 -1.428314 -0.641761 0
M  V30 10 C 3.933326 -1.127091 -1.970070 0
M  V30 11 C 2.841686 -0.769683 -2.758775 0
M  V30 12 C 1.593272 -0.734180 -2.164541 0
M  V30 13 C 1.412381 -1.040057 -0.831655 0
M  V30 14 C 2.486772 -1.392646 -0.051659 0
M  V30 15 C -2.264484 0.221364 1.911805 0
M  V30 16 C -2.551571 1.531621 2.197335 0
M  V30 17 C -3.888478 1.934206 2.100699 0
M  V30 18 C -4.824444 0.977579 1.723106 0
M  V30 19 C -4.533084 -0.347701 1.434461 0
M  V30 20 Cl -5.810372 -1.436920 0.973301 0
M  V30 21 C -3.201712 -0.718585 1.538198 0
M  V30 22 H -0.978345 -2.182445 1.499236 0
M  V30 23 H 0.964461 -1.926816 2.935462 0
M  V30 24 H 5.426228 -2.367433 2.111194 0
M  V30 25 H 4.958771 -1.190306 -2.321377 0
M  V30 26 H 3.070544 -0.545778 -3.791456 0
M  V30 27 H 0.795578 -0.447999 -2.841160 0
M  V30 28 H 0.441707 -1.002259 -0.414851 0
M  V30 29 H -1.831078 2.268388 2.488201 0
M  V30 30 H -4.209112 2.950436 2.307740 0
M  V30 31 H -5.860853 1.323897 1.656924 0
M  V30 32 H -2.959956 -1.748390 1.316110 0
M  V30 END ATOM
M  V30 BEGIN BOND
M  V30 1 2 1 2
M  V30 2 1 2 3
M  V30 3 1 3 4
M  V30 4 1 4 5
M  V30 5 2 5 6
M  V30 6 1 6 7
M  V30 7 2 7 8
M  V30 8 1 8 9
M  V30 9 2 9 10
M  V30 10 1 10 11
M  V30 11 2 11 12
M  V30 12 1 12 13
M  V30 13 2 13 14
M  V30 14 1 2 15
M  V30 15 2 15 16
M  V30 16 1 16 17
M  V30 17 2 17 18
M  V30 18 1 18 19
M  V30 19 1 19 20
M  V30 20 2 19 21
M  V30 21 1 14 5
M  V30 22 1 21 15
M  V30 23 1 14 9
M  V30 24 1 3 22
M  V30 25 1 4 23
M  V30 26 1 7 24
M  V30 27 1 10 25
M  V30 28 1 11 26
M  V30 29 1 12 27
M  V30 30 1 13 28
M  V30 31 1 16 29
M  V30 32 1 17 30
M  V30 33 1 18 31
M  V30 34 1 21 32
M  V30 END BOND
M  V30 END CTAB
M  END
>  <Dataset>  (183) 
ChEMBL_Kinases

>  <Ligand_Instance>  (183) 
nan

>  <PDB_ID>  (183) 
nan

>  <Standardized_SMILES>  (183) 
O=C(NNc1ncnc2ccccc12)c1cccc(Cl)c1

>  <Name>  (183) 
nan

>  <Pocket>  (183) 
nan

>  <ATP_Site>  (183) 
nan

>  <Peripheral>  (183) 
nan

>  <Num_H_Atoms_ProtBoundConf>  (183) 
nan

>  <Num_Resolved_Atoms>  (183) 
nan

>  <Num_Not_Resolved_Atoms>  (183) 
nan

$$$$
CHEMBL1472104
     RDKit          3D

  0  0  0  0  0  0  0  0  0  0999 V3000
M  V30 BEGIN CTAB
M  V30 COUNTS 50 54 0 0 0
M  V30 BEGIN ATOM
M  V30 1 C 1.294186 -5.018553 -0.422887 0
M  V30 2 C 2.466803 -4.123334 -0.272781 0
M  V30 3 C 3.424919 -4.232572 -1.446451 0
M  V30 4 C 4.791287 -3.752667 -1.031968 0
M  V30 5 C 4.734287 -3.010828 0.305089 0
M  V30 6 C 3.533040 -2.173995 0.245097 0
M  V30 7 S 3.289847 -0.454149 0.499014 0
M  V30 8 C 1.544549 -0.429139 0.199977 0
M  V30 9 N 0.688908 0.574696 0.220211 0
M  V30 10 C -0.610896 0.375031 -0.044902 0
M  V30 11 N -1.443681 1.520782 0.002398 0
M  V30 12 C -0.870784 2.813069 0.328475 0
M  V30 13 C -1.701947 3.507697 1.348501 0
M  V30 14 N -2.729722 2.751420 1.968552 0
M  V30 15 C -2.178317 1.990661 3.063541 0
M  V30 16 C -1.721962 2.822562 4.230093 0
M  V30 17 O -2.814937 3.540839 4.721120 0
M  V30 18 C -3.491589 1.883421 1.138965 0
M  V30 19 C -2.868705 1.638319 -0.235947 0
M  V30 20 N -0.930751 -0.890085 -0.318792 0
M  V30 21 N -2.156683 -1.327180 -0.614699 0
M  V30 22 C -2.135968 -2.633444 -0.836990 0
M  V30 23 N -0.866698 -3.002072 -0.672796 0
M  V30 24 C -0.120966 -1.941588 -0.355152 0
M  V30 25 C 1.214087 -1.755371 -0.085799 0
M  V30 26 C 2.207748 -2.696641 -0.074884 0
M  V30 27 H 0.806196 -4.998188 -1.415494 0
M  V30 28 H 1.661657 -6.105836 -0.356140 0
M  V30 29 H 0.609593 -4.965881 0.445171 0
M  V30 30 H 3.068962 -4.551939 0.598879 0
M  V30 31 H 3.477727 -5.305448 -1.727356 0
M  V30 32 H 3.038392 -3.687698 -2.330601 0
M  V30 33 H 5.526555 -4.560789 -1.050185 0
M  V30 34 H 5.113975 -2.997572 -1.778345 0
M  V30 35 H 4.817318 -3.694870 1.142902 0
M  V30 36 H 5.597168 -2.341723 0.321833 0
M  V30 37 H -0.810307 3.420121 -0.604833 0
M  V30 38 H 0.142992 2.649564 0.747630 0
M  V30 39 H -2.217570 4.377675 0.837737 0
M  V30 40 H -1.091307 3.998934 2.135896 0
M  V30 41 H -1.316851 1.401708 2.635266 0
M  V30 42 H -2.897527 1.208616 3.390580 0
M  V30 43 H -0.833350 3.422199 4.053604 0
M  V30 44 H -1.490412 2.074997 5.048522 0
M  V30 45 H -3.454057 2.952759 5.168191 0
M  V30 46 H -3.592199 0.896368 1.621451 0
M  V30 47 H -4.511118 2.307196 1.041962 0
M  V30 48 H -3.063364 2.511113 -0.895849 0
M  V30 49 H -3.324021 0.716737 -0.620444 0
M  V30 50 H -2.902982 -3.346362 -1.098096 0
M  V30 END ATOM
M  V30 BEGIN BOND
M  V30 1 1 1 2
M  V30 2 1 2 3
M  V30 3 1 3 4
M  V30 4 1 4 5
M  V30 5 1 5 6
M  V30 6 1 6 7
M  V30 7 1 7 8
M  V30 8 1 8 9
M  V30 9 2 9 10
M  V30 10 1 10 11
M  V30 11 1 11 12
M  V30 12 1 12 13
M  V30 13 1 13 14
M  V30 14 1 14 15
M  V30 15 1 15 16
M  V30 16 1 16 17
M  V30 17 1 14 18
M  V30 18 1 18 19
M  V30 19 1 10 20
M  V30 20 1 20 21
M  V30 21 2 21 22
M  V30 22 1 22 23
M  V30 23 2 23 24
M  V30 24 1 24 25
M  V30 25 1 25 26
M  V30 26 1 26 2
M  V30 27 2 26 6
M  V30 28 2 25 8
M  V30 29 1 19 11
M  V30 30 1 24 20
M  V30 31 1 1 27
M  V30 32 1 1 28
M  V30 33 1 1 29
M  V30 34 1 2 30
M  V30 35 1 3 31
M  V30 36 1 3 32
M  V30 37 1 4 33
M  V30 38 1 4 34
M  V30 39 1 5 35
M  V30 40 1 5 36
M  V30 41 1 12 37
M  V30 42 1 12 38
M  V30 43 1 13 39
M  V30 44 1 13 40
M  V30 45 1 15 41
M  V30 46 1 15 42
M  V30 47 1 16 43
M  V30 48 1 16 44
M  V30 49 1 17 45
M  V30 50 1 18 46
M  V30 51 1 18 47
M  V30 52 1 19 48
M  V30 53 1 19 49
M  V30 54 1 22 50
M  V30 END BOND
M  V30 END CTAB
M  END
>  <Dataset>  (184) 
ChEMBL_Kinases

>  <Ligand_Instance>  (184) 
nan

>  <PDB_ID>  (184) 
nan

>  <Standardized_SMILES>  (184) 
CC1CCCc2sc3nc(N4CCN(CCO)CC4)n4ncnc4c3c21

>  <Name>  (184) 
nan

>  <Pocket>  (184) 
nan

>  <ATP_Site>  (184) 
nan

>  <Peripheral>  (184) 
nan

>  <Num_H_Atoms_ProtBoundConf>  (184) 
nan

>  <Num_Resolved_Atoms>  (184) 
nan

>  <Num_Not_Resolved_Atoms>  (184) 
nan

$$$$
CHEMBL1472989
     RDKit          3D

  0  0  0  0  0  0  0  0  0  0999 V3000
M  V30 BEGIN CTAB
M  V30 COUNTS 54 54 0 0 0
M  V30 BEGIN ATOM
M  V30 1 C 1.767977 -2.312362 -3.641783 0
M  V30 2 C 2.624650 -3.326772 -2.936906 0
M  V30 3 C 1.802534 -4.546263 -2.595748 0
M  V30 4 N 3.236913 -2.753038 -1.744693 0
M  V30 5 C 4.055613 -1.633606 -2.151017 0
M  V30 6 C 4.724170 -0.998171 -0.936164 0
M  V30 7 O 5.524901 -1.993161 -0.328446 0
M  V30 8 C 3.708647 -0.504190 0.035760 0
M  V30 9 O 2.898158 0.500276 -0.576223 0
M  V30 10 C 1.877697 1.097030 0.173459 0
M  V30 11 C 1.672813 0.701357 1.497079 0
M  V30 12 C 0.637595 1.336163 2.190744 0
M  V30 13 C -0.173235 2.315022 1.637967 0
M  V30 14 C -1.242324 2.930366 2.445857 0
M  V30 15 O -2.459172 2.307498 2.386963 0
M  V30 16 C -2.446923 0.992453 2.815199 0
M  V30 17 C -3.828908 0.424611 2.702734 0
M  V30 18 O -3.922747 -0.908559 3.114093 0
M  V30 19 C -5.245890 -1.301476 2.957395 0
M  V30 20 C -5.911674 -1.730892 4.231742 0
M  V30 21 C -5.420886 -2.380428 1.914078 0
M  V30 22 C 0.082959 2.659249 0.325421 0
M  V30 23 C 1.102063 2.066670 -0.431059 0
M  V30 24 H 0.852054 -2.795293 -4.026061 0
M  V30 25 H 1.439593 -1.524016 -2.923332 0
M  V30 26 H 2.318934 -1.880970 -4.515005 0
M  V30 27 H 3.452626 -3.614963 -3.617254 0
M  V30 28 H 2.370206 -5.460259 -2.874830 0
M  V30 29 H 1.619977 -4.608235 -1.485368 0
M  V30 30 H 0.835671 -4.562605 -3.133031 0
M  V30 31 H 2.520099 -2.487791 -1.038858 0
M  V30 32 H 3.357012 -0.843437 -2.542851 0
M  V30 33 H 4.790095 -1.929619 -2.900937 0
M  V30 34 H 5.377725 -0.162008 -1.226825 0
M  V30 35 H 6.463386 -1.874354 -0.644841 0
M  V30 36 H 4.268434 0.000404 0.876922 0
M  V30 37 H 3.120461 -1.295214 0.498693 0
M  V30 38 H 2.264422 -0.043952 1.971119 0
M  V30 39 H 0.491623 1.021231 3.208883 0
M  V30 40 H -1.399424 3.974267 2.079754 0
M  V30 41 H -0.877342 3.017559 3.492751 0
M  V30 42 H -2.181974 0.966515 3.897054 0
M  V30 43 H -1.668542 0.370903 2.321841 0
M  V30 44 H -4.467043 1.004995 3.428981 0
M  V30 45 H -4.258522 0.473556 1.684770 0
M  V30 46 H -5.786837 -0.398642 2.548953 0
M  V30 47 H -6.096657 -2.825211 4.283506 0
M  V30 48 H -6.917292 -1.244206 4.306702 0
M  V30 49 H -5.319811 -1.483199 5.137523 0
M  V30 50 H -4.500022 -2.532133 1.313254 0
M  V30 51 H -6.321958 -2.210815 1.279554 0
M  V30 52 H -5.589948 -3.337239 2.449798 0
M  V30 53 H -0.579278 3.436125 -0.074568 0
M  V30 54 H 1.248360 2.383379 -1.454050 0
M  V30 END ATOM
M  V30 BEGIN BOND
M  V30 1 1 1 2
M  V30 2 1 2 3
M  V30 3 1 2 4
M  V30 4 1 4 5
M  V30 5 1 5 6
M  V30 6 1 6 7
M  V30 7 1 6 8
M  V30 8 1 8 9
M  V30 9 1 9 10
M  V30 10 2 10 11
M  V30 11 1 11 12
M  V30 12 2 12 13
M  V30 13 1 13 14
M  V30 14 1 14 15
M  V30 15 1 15 16
M  V30 16 1 16 17
M  V30 17 1 17 18
M  V30 18 1 18 19
M  V30 19 1 19 20
M  V30 20 1 19 21
M  V30 21 1 13 22
M  V30 22 2 22 23
M  V30 23 1 23 10
M  V30 24 1 1 24
M  V30 25 1 1 25
M  V30 26 1 1 26
M  V30 27 1 2 27
M  V30 28 1 3 28
M  V30 29 1 3 29
M  V30 30 1 3 30
M  V30 31 1 4 31
M  V30 32 1 5 32
M  V30 33 1 5 33
M  V30 34 1 6 34
M  V30 35 1 7 35
M  V30 36 1 8 36
M  V30 37 1 8 37
M  V30 38 1 11 38
M  V30 39 1 12 39
M  V30 40 1 14 40
M  V30 41 1 14 41
M  V30 42 1 16 42
M  V30 43 1 16 43
M  V30 44 1 17 44
M  V30 45 1 17 45
M  V30 46 1 19 46
M  V30 47 1 20 47
M  V30 48 1 20 48
M  V30 49 1 20 49
M  V30 50 1 21 50
M  V30 51 1 21 51
M  V30 52 1 21 52
M  V30 53 1 22 53
M  V30 54 1 23 54
M  V30 END BOND
M  V30 END CTAB
M  END
>  <Dataset>  (185) 
ChEMBL_Kinases

>  <Ligand_Instance>  (185) 
nan

>  <PDB_ID>  (185) 
nan

>  <Standardized_SMILES>  (185) 
CC(C)NCC(O)COc1ccc(COCCOC(C)C)cc1

>  <Name>  (185) 
BISOPROLOL FUMARATE

>  <Pocket>  (185) 
nan

>  <ATP_Site>  (185) 
nan

>  <Peripheral>  (185) 
nan

>  <Num_H_Atoms_ProtBoundConf>  (185) 
nan

>  <Num_Resolved_Atoms>  (185) 
nan

>  <Num_Not_Resolved_Atoms>  (185) 
nan

$$$$
CHEMBL1472358
     RDKit          3D

  0  0  0  0  0  0  0  0  0  0999 V3000
M  V30 BEGIN CTAB
M  V30 COUNTS 57 61 0 0 0
M  V30 BEGIN ATOM
M  V30 1 C 1.694128 -4.954800 2.284895 0
M  V30 2 C 0.999293 -3.960251 1.450446 0
M  V30 3 C 0.969894 -2.616735 1.761288 0
M  V30 4 C 0.306311 -1.720686 0.950869 0
M  V30 5 N 0.286630 -0.343624 1.295977 0
M  V30 6 C -0.335742 0.729665 0.547767 0
M  V30 7 C 0.348404 2.067324 0.873934 0
M  V30 8 N -0.128816 2.435178 2.161793 0
M  V30 9 C 0.151189 3.732311 2.630263 0
M  V30 10 C 1.614313 4.071083 2.734474 0
M  V30 11 C 1.798364 5.185591 1.717991 0
M  V30 12 C 0.478055 5.933640 1.866181 0
M  V30 13 C -0.521871 4.801315 1.815921 0
M  V30 14 C -0.014608 1.348963 3.065360 0
M  V30 15 C 0.867841 0.287489 2.452246 0
M  V30 16 N -0.339008 -2.087928 -0.166871 0
M  V30 17 N -1.037942 -1.567146 -1.131880 0
M  V30 18 C -1.455564 -2.473130 -2.032422 0
M  V30 19 C -2.273910 -2.090227 -3.222680 0
M  V30 20 C -0.977494 -3.693111 -1.602113 0
M  V30 21 C -1.223664 -4.936777 -2.322718 0
M  V30 22 C -2.353674 -5.658246 -1.998423 0
M  V30 23 C -2.676611 -6.855428 -2.627228 0
M  V30 24 C -1.807934 -7.300862 -3.604488 0
M  V30 25 C -0.651333 -6.603044 -3.965891 0
M  V30 26 C -0.380080 -5.414745 -3.304768 0
M  V30 27 C -0.291350 -3.406072 -0.442239 0
M  V30 28 N 0.351812 -4.332774 0.327845 0
M  V30 29 H 2.414280 -4.505052 2.990570 0
M  V30 30 H 2.287226 -5.683186 1.667050 0
M  V30 31 H 0.955727 -5.524578 2.912798 0
M  V30 32 H 1.500128 -2.359583 2.665633 0
M  V30 33 H -0.265298 0.579917 -0.548637 0
M  V30 34 H -1.384202 0.860192 0.888102 0
M  V30 35 H 1.440279 1.994529 0.787384 0
M  V30 36 H 0.006189 2.769511 0.062367 0
M  V30 37 H -0.263286 3.818047 3.665581 0
M  V30 38 H 1.878571 4.513830 3.724279 0
M  V30 39 H 2.271489 3.213155 2.582033 0
M  V30 40 H 1.822529 4.721880 0.725207 0
M  V30 41 H 2.656205 5.830505 1.961629 0
M  V30 42 H 0.315492 6.672316 1.054973 0
M  V30 43 H 0.406048 6.390848 2.873531 0
M  V30 44 H -1.476564 5.132222 2.300664 0
M  V30 45 H -0.772730 4.506411 0.782323 0
M  V30 46 H -0.971530 0.894667 3.341376 0
M  V30 47 H 0.538771 1.701248 3.978165 0
M  V30 48 H 1.884358 0.639089 2.233686 0
M  V30 49 H 0.943795 -0.511101 3.249612 0
M  V30 50 H -1.698375 -1.486086 -3.953094 0
M  V30 51 H -2.644755 -2.979365 -3.759173 0
M  V30 52 H -3.132774 -1.431153 -2.902430 0
M  V30 53 H -3.091674 -5.376831 -1.238878 0
M  V30 54 H -3.548068 -7.456319 -2.409761 0
M  V30 55 H -1.932455 -8.225381 -4.184032 0
M  V30 56 H 0.030439 -6.947544 -4.729065 0
M  V30 57 H 0.495567 -4.842912 -3.546333 0
M  V30 END ATOM
M  V30 BEGIN BOND
M  V30 1 1 1 2
M  V30 2 1 2 3
M  V30 3 2 3 4
M  V30 4 1 4 5
M  V30 5 1 5 6
M  V30 6 1 6 7
M  V30 7 1 7 8
M  V30 8 1 8 9
M  V30 9 1 9 10
M  V30 10 1 10 11
M  V30 11 1 11 12
M  V30 12 1 12 13
M  V30 13 1 8 14
M  V30 14 1 14 15
M  V30 15 1 4 16
M  V30 16 1 16 17
M  V30 17 2 17 18
M  V30 18 1 18 19
M  V30 19 1 18 20
M  V30 20 1 20 21
M  V30 21 2 21 22
M  V30 22 1 22 23
M  V30 23 2 23 24
M  V30 24 1 24 25
M  V30 25 2 25 26
M  V30 26 2 20 27
M  V30 27 1 27 28
M  V30 28 2 28 2
M  V30 29 1 15 5
M  V30 30 1 27 16
M  V30 31 1 13 9
M  V30 32 1 26 21
M  V30 33 1 1 29
M  V30 34 1 1 30
M  V30 35 1 1 31
M  V30 36 1 3 32
M  V30 37 1 6 33
M  V30 38 1 6 34
M  V30 39 1 7 35
M  V30 40 1 7 36
M  V30 41 1 9 37
M  V30 42 1 10 38
M  V30 43 1 10 39
M  V30 44 1 11 40
M  V30 45 1 11 41
M  V30 46 1 12 42
M  V30 47 1 12 43
M  V30 48 1 13 44
M  V30 49 1 13 45
M  V30 50 1 14 46
M  V30 51 1 14 47
M  V30 52 1 15 48
M  V30 53 1 15 49
M  V30 54 1 19 50
M  V30 55 1 19 51
M  V30 56 1 19 52
M  V30 57 1 22 53
M  V30 58 1 23 54
M  V30 59 1 24 55
M  V30 60 1 25 56
M  V30 61 1 26 57
M  V30 END BOND
M  V30 END CTAB
M  END
>  <Dataset>  (186) 
ChEMBL_Kinases

>  <Ligand_Instance>  (186) 
nan

>  <PDB_ID>  (186) 
nan

>  <Standardized_SMILES>  (186) 
Cc1cc(N2CCN(C3CCCC3)CC2)n2nc(C)c(-c3ccccc3)c2n1

>  <Name>  (186) 
nan

>  <Pocket>  (186) 
nan

>  <ATP_Site>  (186) 
nan

>  <Peripheral>  (186) 
nan

>  <Num_H_Atoms_ProtBoundConf>  (186) 
nan

>  <Num_Resolved_Atoms>  (186) 
nan

>  <Num_Not_Resolved_Atoms>  (186) 
nan

$$$$
CHEMBL1472407
     RDKit          3D

  0  0  0  0  0  0  0  0  0  0999 V3000
M  V30 BEGIN CTAB
M  V30 COUNTS 34 36 0 0 0
M  V30 BEGIN ATOM
M  V30 1 C -2.250095 -2.406191 3.502251 0
M  V30 2 C -1.203382 -2.787679 2.500628 0
M  V30 3 N -0.834065 -4.047035 2.210292 0
M  V30 4 C 0.136313 -3.941671 1.256592 0
M  V30 5 C 0.880475 -4.886345 0.582628 0
M  V30 6 C 1.830051 -4.570590 -0.362897 0
M  V30 7 C 2.032510 -3.229740 -0.635608 0
M  V30 8 C 1.287508 -2.275768 0.038988 0
M  V30 9 C 1.452246 -0.846505 -0.199608 0
M  V30 10 O 1.703626 -0.517969 -1.390739 0
M  V30 11 N 1.347710 0.141729 0.798946 0
M  V30 12 C 1.495307 1.559808 0.645672 0
M  V30 13 C 0.332134 2.201052 0.026981 0
M  V30 14 C 0.191287 2.389562 -1.343284 0
M  V30 15 C -0.945682 3.008350 -1.877873 0
M  V30 16 C -1.956558 3.446716 -1.048457 0
M  V30 17 C -1.887502 3.292856 0.340561 0
M  V30 18 C -0.731307 2.673683 0.764980 0
M  V30 19 C 0.332425 -2.582443 0.989081 0
M  V30 20 O -0.496500 -1.961966 1.764079 0
M  V30 21 H -1.966984 -2.633750 4.538784 0
M  V30 22 H -3.230255 -2.875599 3.300505 0
M  V30 23 H -2.402058 -1.298071 3.477223 0
M  V30 24 H 0.716040 -5.933582 0.802099 0
M  V30 25 H 2.383097 -5.356098 -0.859586 0
M  V30 26 H 2.756311 -2.931384 -1.358749 0
M  V30 27 H 1.133818 -0.279041 1.753066 0
M  V30 28 H 2.441756 1.820780 0.084502 0
M  V30 29 H 1.643243 2.007055 1.649544 0
M  V30 30 H 0.972585 2.053008 -2.007798 0
M  V30 31 H -1.035071 3.146581 -2.958420 0
M  V30 32 H -2.858551 3.934857 -1.432248 0
M  V30 33 H -2.633533 3.607552 1.054241 0
M  V30 34 H -0.638505 2.534355 1.851868 0
M  V30 END ATOM
M  V30 BEGIN BOND
M  V30 1 1 1 2
M  V30 2 2 2 3
M  V30 3 1 3 4
M  V30 4 2 4 5
M  V30 5 1 5 6
M  V30 6 2 6 7
M  V30 7 1 7 8
M  V30 8 1 8 9
M  V30 9 2 9 10
M  V30 10 1 9 11
M  V30 11 1 11 12
M  V30 12 1 12 13
M  V30 13 2 13 14
M  V30 14 1 14 15
M  V30 15 2 15 16
M  V30 16 1 16 17
M  V30 17 2 17 18
M  V30 18 2 8 19
M  V30 19 1 19 20
M  V30 20 1 20 2
M  V30 21 1 19 4
M  V30 22 1 18 13
M  V30 23 1 1 21
M  V30 24 1 1 22
M  V30 25 1 1 23
M  V30 26 1 5 24
M  V30 27 1 6 25
M  V30 28 1 7 26
M  V30 29 1 11 27
M  V30 30 1 12 28
M  V30 31 1 12 29
M  V30 32 1 14 30
M  V30 33 1 15 31
M  V30 34 1 16 32
M  V30 35 1 17 33
M  V30 36 1 18 34
M  V30 END BOND
M  V30 END CTAB
M  END
>  <Dataset>  (187) 
ChEMBL_Kinases

>  <Ligand_Instance>  (187) 
nan

>  <PDB_ID>  (187) 
nan

>  <Standardized_SMILES>  (187) 
Cc1nc2cccc(C(=O)NCc3ccccc3)c2o1

>  <Name>  (187) 
nan

>  <Pocket>  (187) 
nan

>  <ATP_Site>  (187) 
nan

>  <Peripheral>  (187) 
nan

>  <Num_H_Atoms_ProtBoundConf>  (187) 
nan

>  <Num_Resolved_Atoms>  (187) 
nan

>  <Num_Not_Resolved_Atoms>  (187) 
nan

$$$$
CHEMBL1472443
     RDKit          3D

  0  0  0  0  0  0  0  0  0  0999 V3000
M  V30 BEGIN CTAB
M  V30 COUNTS 42 44 0 0 0
M  V30 BEGIN ATOM
M  V30 1 C -2.017594 -4.298908 1.881451 0
M  V30 2 C -0.853942 -3.343961 2.169933 0
M  V30 3 C -0.209588 -3.819700 3.448962 0
M  V30 4 C 0.061733 -3.442835 0.990718 0
M  V30 5 C 1.009376 -2.243503 0.883691 0
M  V30 6 C 0.129150 -1.127630 0.432696 0
M  V30 7 N 0.402771 -0.266999 -0.558705 0
M  V30 8 C -0.437838 0.721070 -0.917438 0
M  V30 9 S 0.124429 1.749460 -2.260743 0
M  V30 10 C 1.074727 3.118974 -1.505949 0
M  V30 11 C 2.292012 2.522045 -0.885436 0
M  V30 12 C 3.509786 2.333812 -1.489909 0
M  V30 13 C 4.561700 1.772636 -0.821573 0
M  V30 14 C 4.431687 1.374062 0.493387 0
M  V30 15 C 3.236222 1.535937 1.155418 0
M  V30 16 C 2.196550 2.109591 0.437959 0
M  V30 17 C -1.624935 0.835648 -0.223442 0
M  V30 18 C -2.482213 1.909360 -0.650497 0
M  V30 19 N -3.189935 2.766551 -0.993201 0
M  V30 20 C -1.936565 -0.034115 0.802270 0
M  V30 21 C -1.051028 -1.059341 1.165503 0
M  V30 22 C -1.426186 -1.970619 2.274992 0
M  V30 23 H -2.415383 -4.621978 2.865478 0
M  V30 24 H -1.698361 -5.177877 1.320411 0
M  V30 25 H -2.866088 -3.758388 1.382791 0
M  V30 26 H -0.783898 -4.638313 3.928387 0
M  V30 27 H 0.821404 -4.210816 3.301216 0
M  V30 28 H -0.178945 -3.004869 4.207984 0
M  V30 29 H 0.605306 -4.399287 0.931543 0
M  V30 30 H -0.572314 -3.399870 0.070046 0
M  V30 31 H 1.762996 -2.518706 0.137583 0
M  V30 32 H 1.451760 -1.973454 1.853310 0
M  V30 33 H 0.471001 3.584034 -0.719550 0
M  V30 34 H 1.342626 3.872003 -2.281280 0
M  V30 35 H 3.586065 2.651520 -2.513752 0
M  V30 36 H 5.504833 1.646704 -1.350643 0
M  V30 37 H 5.277839 0.929625 1.009178 0
M  V30 38 H 3.086465 1.236950 2.191296 0
M  V30 39 H 1.242830 2.238815 0.965696 0
M  V30 40 H -2.900391 0.118326 1.309938 0
M  V30 41 H -1.120008 -1.526728 3.266696 0
M  V30 42 H -2.553163 -1.981768 2.325300 0
M  V30 END ATOM
M  V30 BEGIN BOND
M  V30 1 1 1 2
M  V30 2 1 2 3
M  V30 3 1 2 4
M  V30 4 1 4 5
M  V30 5 1 5 6
M  V30 6 2 6 7
M  V30 7 1 7 8
M  V30 8 1 8 9
M  V30 9 1 9 10
M  V30 10 1 10 11
M  V30 11 2 11 12
M  V30 12 1 12 13
M  V30 13 2 13 14
M  V30 14 1 14 15
M  V30 15 2 15 16
M  V30 16 2 8 17
M  V30 17 1 17 18
M  V30 18 3 18 19
M  V30 19 1 17 20
M  V30 20 2 20 21
M  V30 21 1 21 22
M  V30 22 1 22 2
M  V30 23 1 21 6
M  V30 24 1 16 11
M  V30 25 1 1 23
M  V30 26 1 1 24
M  V30 27 1 1 25
M  V30 28 1 3 26
M  V30 29 1 3 27
M  V30 30 1 3 28
M  V30 31 1 4 29
M  V30 32 1 4 30
M  V30 33 1 5 31
M  V30 34 1 5 32
M  V30 35 1 10 33
M  V30 36 1 10 34
M  V30 37 1 12 35
M  V30 38 1 13 36
M  V30 39 1 14 37
M  V30 40 1 15 38
M  V30 41 1 16 39
M  V30 42 1 20 40
M  V30 43 1 22 41
M  V30 44 1 22 42
M  V30 END BOND
M  V30 END CTAB
M  END
>  <Dataset>  (188) 
ChEMBL_Kinases

>  <Ligand_Instance>  (188) 
nan

>  <PDB_ID>  (188) 
nan

>  <Standardized_SMILES>  (188) 
CC1(C)CCc2nc(SCc3ccccc3)c(C#N)cc2C1

>  <Name>  (188) 
nan

>  <Pocket>  (188) 
nan

>  <ATP_Site>  (188) 
nan

>  <Peripheral>  (188) 
nan

>  <Num_H_Atoms_ProtBoundConf>  (188) 
nan

>  <Num_Resolved_Atoms>  (188) 
nan

>  <Num_Not_Resolved_Atoms>  (188) 
nan

$$$$
CHEMBL1472468
     RDKit          3D

  0  0  0  0  0  0  0  0  0  0999 V3000
M  V30 BEGIN CTAB
M  V30 COUNTS 31 33 0 0 0
M  V30 BEGIN ATOM
M  V30 1 O -0.742060 -1.483973 0.703359 0
M  V30 2 C -0.376906 -1.233422 1.874810 0
M  V30 3 C 0.645377 -0.955902 2.898225 0
M  V30 4 C 2.027560 -0.919212 2.329103 0
M  V30 5 N 2.231203 0.089162 1.321940 0
M  V30 6 C 2.489916 1.299667 1.891221 0
M  V30 7 O 2.577369 1.794785 2.992917 0
M  V30 8 S 2.774746 2.431937 0.395943 0
M  V30 9 C 2.494339 1.060332 -0.801802 0
M  V30 10 C 2.546796 1.095307 -2.158303 0
M  V30 11 C 2.324326 -0.056116 -2.869226 0
M  V30 12 C 2.063735 -1.153949 -2.083289 0
M  V30 13 C 2.010069 -1.189995 -0.715249 0
M  V30 14 C 2.231986 -0.037087 -0.002880 0
M  V30 15 N -1.653604 -1.215653 2.534676 0
M  V30 16 C -2.869518 -1.461775 1.763470 0
M  V30 17 N -3.171305 -1.713139 0.559802 0
M  V30 18 C -4.429250 -1.881049 0.223175 0
M  V30 19 C -5.503201 -1.797182 1.144541 0
M  V30 20 S -4.498490 -1.436445 2.619020 0
M  V30 21 H 0.425147 0.067114 3.332005 0
M  V30 22 H 0.559199 -1.691430 3.734280 0
M  V30 23 H 2.210148 -1.954064 1.874752 0
M  V30 24 H 2.793793 -0.878635 3.147292 0
M  V30 25 H 2.764551 2.045038 -2.604885 0
M  V30 26 H 2.362284 -0.042605 -3.928288 0
M  V30 27 H 1.877896 -2.108291 -2.609762 0
M  V30 28 H 1.790826 -2.140311 -0.222211 0
M  V30 29 H -1.818153 -1.034374 3.572125 0
M  V30 30 H -4.522679 -2.091513 -0.855122 0
M  V30 31 H -6.461462 -1.931534 0.853826 0
M  V30 END ATOM
M  V30 BEGIN BOND
M  V30 1 2 1 2
M  V30 2 1 2 3
M  V30 3 1 3 4
M  V30 4 1 4 5
M  V30 5 1 5 6
M  V30 6 2 6 7
M  V30 7 1 6 8
M  V30 8 1 8 9
M  V30 9 2 9 10
M  V30 10 1 10 11
M  V30 11 2 11 12
M  V30 12 1 12 13
M  V30 13 2 13 14
M  V30 14 1 2 15
M  V30 15 1 15 16
M  V30 16 2 16 17
M  V30 17 1 17 18
M  V30 18 2 18 19
M  V30 19 1 19 20
M  V30 20 1 14 5
M  V30 21 1 20 16
M  V30 22 1 14 9
M  V30 23 1 3 21
M  V30 24 1 3 22
M  V30 25 1 4 23
M  V30 26 1 4 24
M  V30 27 1 10 25
M  V30 28 1 11 26
M  V30 29 1 12 27
M  V30 30 1 13 28
M  V30 31 1 15 29
M  V30 32 1 18 30
M  V30 33 1 19 31
M  V30 END BOND
M  V30 END CTAB
M  END
>  <Dataset>  (189) 
ChEMBL_Kinases

>  <Ligand_Instance>  (189) 
nan

>  <PDB_ID>  (189) 
nan

>  <Standardized_SMILES>  (189) 
O=C(CCn1c(=O)sc2ccccc21)Nc1nccs1

>  <Name>  (189) 
nan

>  <Pocket>  (189) 
nan

>  <ATP_Site>  (189) 
nan

>  <Peripheral>  (189) 
nan

>  <Num_H_Atoms_ProtBoundConf>  (189) 
nan

>  <Num_Resolved_Atoms>  (189) 
nan

>  <Num_Not_Resolved_Atoms>  (189) 
nan

$$$$
CHEMBL1472561
     RDKit          3D

  0  0  0  0  0  0  0  0  0  0999 V3000
M  V30 BEGIN CTAB
M  V30 COUNTS 28 27 0 0 0
M  V30 BEGIN ATOM
M  V30 1 C -0.510240 1.773476 4.187973 0
M  V30 2 N 0.635988 1.448005 3.380733 0
M  V30 3 C 0.633833 0.320563 2.513918 0
M  V30 4 O -0.429709 -0.319435 2.537814 0
M  V30 5 O 1.685644 0.013928 1.767042 0
M  V30 6 C 2.090116 -0.893945 0.862504 0
M  V30 7 C 1.512811 -1.111670 -0.454236 0
M  V30 8 N 0.162497 -1.496204 -0.640436 0 CHG=1 VAL=4
M  V30 9 C -0.725084 -0.349134 -0.644252 0
M  V30 10 C -0.348971 -2.486383 0.231825 0
M  V30 11 C -0.019989 -2.075473 -2.005506 0
M  V30 12 H -0.611276 1.135601 5.102321 0
M  V30 13 H -1.450005 1.623196 3.616222 0
M  V30 14 H -0.488244 2.846650 4.502668 0
M  V30 15 H 1.468649 2.077908 3.461202 0
M  V30 16 H 3.188085 -0.616371 0.691129 0
M  V30 17 H 2.278939 -1.896939 1.409307 0
M  V30 18 H 2.102994 -1.942854 -0.970255 0
M  V30 19 H 1.802812 -0.245491 -1.136391 0
M  V30 20 H -1.185766 -0.132838 -1.621383 0
M  V30 21 H -0.207441 0.568924 -0.239138 0
M  V30 22 H -1.592963 -0.509217 0.060937 0
M  V30 23 H 0.203260 -2.620047 1.176386 0
M  V30 24 H -1.400964 -2.264333 0.557266 0
M  V30 25 H -0.408212 -3.498391 -0.219388 0
M  V30 26 H -0.993719 -1.823523 -2.425302 0
M  V30 27 H 0.062064 -3.176542 -1.962857 0
M  V30 28 H 0.750497 -1.602447 -2.637494 0
M  V30 END ATOM
M  V30 BEGIN BOND
M  V30 1 1 1 2
M  V30 2 1 2 3
M  V30 3 2 3 4
M  V30 4 1 3 5
M  V30 5 1 5 6
M  V30 6 1 6 7
M  V30 7 1 7 8
M  V30 8 1 8 9
M  V30 9 1 8 10
M  V30 10 1 8 11
M  V30 11 1 1 12
M  V30 12 1 1 13
M  V30 13 1 1 14
M  V30 14 1 2 15
M  V30 15 1 6 16
M  V30 16 1 6 17
M  V30 17 1 7 18
M  V30 18 1 7 19
M  V30 19 1 9 20
M  V30 20 1 9 21
M  V30 21 1 9 22
M  V30 22 1 10 23
M  V30 23 1 10 24
M  V30 24 1 10 25
M  V30 25 1 11 26
M  V30 26 1 11 27
M  V30 27 1 11 28
M  V30 END BOND
M  V30 END CTAB
M  END
>  <Dataset>  (190) 
ChEMBL_Kinases

>  <Ligand_Instance>  (190) 
nan

>  <PDB_ID>  (190) 
nan

>  <Standardized_SMILES>  (190) 
CNC(=O)OCC[N+](C)(C)C

>  <Name>  (190) 
nan

>  <Pocket>  (190) 
nan

>  <ATP_Site>  (190) 
nan

>  <Peripheral>  (190) 
nan

>  <Num_H_Atoms_ProtBoundConf>  (190) 
nan

>  <Num_Resolved_Atoms>  (190) 
nan

>  <Num_Not_Resolved_Atoms>  (190) 
nan

$$$$
CHEMBL1472703
     RDKit          3D

  0  0  0  0  0  0  0  0  0  0999 V3000
M  V30 BEGIN CTAB
M  V30 COUNTS 38 38 0 0 0
M  V30 BEGIN ATOM
M  V30 1 C -3.083974 -0.587494 0.456476 0
M  V30 2 C -1.832601 -1.385612 0.859729 0
M  V30 3 C -0.678108 -1.073535 -0.016587 0 CFG=2
M  V30 4 N 0.513624 -1.796665 0.328528 0
M  V30 5 C 0.407267 -3.222983 0.267223 0
M  V30 6 C 1.782198 -3.774414 0.670456 0
M  V30 7 C 0.149253 -3.600858 -1.184713 0
M  V30 8 C -0.347235 0.341439 -0.267318 0 CFG=2
M  V30 9 O 0.543414 0.327832 -1.381294 0
M  V30 10 C 0.292071 1.103623 0.806211 0
M  V30 11 C 0.715204 2.331375 0.266748 0
M  V30 12 C 1.374213 3.281833 1.059051 0
M  V30 13 C 1.621635 3.029016 2.391161 0
M  V30 14 O 2.265624 3.904535 3.256517 0
M  V30 15 C 1.209871 1.829753 2.922774 0
M  V30 16 O 1.386383 1.437863 4.231887 0
M  V30 17 C 0.564874 0.909356 2.129999 0
M  V30 18 H -3.891582 -0.879870 1.180572 0
M  V30 19 H -3.450045 -0.914136 -0.538116 0
M  V30 20 H -2.929481 0.485997 0.555742 0
M  V30 21 H -2.167057 -2.450808 0.652775 0
M  V30 22 H -1.698242 -1.202737 1.918369 0
M  V30 23 H -1.005804 -1.468413 -1.055828 0
M  V30 24 H 1.360084 -1.460877 -0.144412 0
M  V30 25 H -0.385956 -3.639066 0.896359 0
M  V30 26 H 1.824195 -3.667301 1.766693 0
M  V30 27 H 2.524827 -3.083949 0.221018 0
M  V30 28 H 1.911688 -4.817246 0.320013 0
M  V30 29 H 0.471027 -4.644960 -1.377947 0
M  V30 30 H 0.774496 -2.934865 -1.824687 0
M  V30 31 H -0.898574 -3.473616 -1.458953 0
M  V30 32 H -1.211009 0.946504 -0.660829 0
M  V30 33 H 1.462584 0.522136 -1.055197 0
M  V30 34 H 0.618400 2.726397 -0.757204 0
M  V30 35 H 1.729813 4.244096 0.723968 0
M  V30 36 H 3.240862 4.111568 2.991283 0
M  V30 37 H 2.083017 0.758193 4.465726 0
M  V30 38 H 0.227762 -0.033245 2.465989 0
M  V30 END ATOM
M  V30 BEGIN BOND
M  V30 1 1 1 2
M  V30 2 1 2 3
M  V30 3 1 3 4
M  V30 4 1 4 5
M  V30 5 1 5 6
M  V30 6 1 5 7
M  V30 7 1 3 8
M  V30 8 1 8 9
M  V30 9 1 8 10
M  V30 10 2 10 11
M  V30 11 1 11 12
M  V30 12 2 12 13
M  V30 13 1 13 14
M  V30 14 1 13 15
M  V30 15 1 15 16
M  V30 16 2 15 17
M  V30 17 1 17 10
M  V30 18 1 1 18
M  V30 19 1 1 19
M  V30 20 1 1 20
M  V30 21 1 2 21
M  V30 22 1 2 22
M  V30 23 1 3 23 CFG=3
M  V30 24 1 4 24
M  V30 25 1 5 25
M  V30 26 1 6 26
M  V30 27 1 6 27
M  V30 28 1 6 28
M  V30 29 1 7 29
M  V30 30 1 7 30
M  V30 31 1 7 31
M  V30 32 1 8 32 CFG=3
M  V30 33 1 9 33
M  V30 34 1 11 34
M  V30 35 1 12 35
M  V30 36 1 14 36
M  V30 37 1 16 37
M  V30 38 1 17 38
M  V30 END BOND
M  V30 END CTAB
M  END
>  <Dataset>  (191) 
ChEMBL_Kinases

>  <Ligand_Instance>  (191) 
nan

>  <PDB_ID>  (191) 
nan

>  <Standardized_SMILES>  (191) 
CC[C@H](NC(C)C)[C@H](O)c1ccc(O)c(O)c1

>  <Name>  (191) 
nan

>  <Pocket>  (191) 
nan

>  <ATP_Site>  (191) 
nan

>  <Peripheral>  (191) 
nan

>  <Num_H_Atoms_ProtBoundConf>  (191) 
nan

>  <Num_Resolved_Atoms>  (191) 
nan

>  <Num_Not_Resolved_Atoms>  (191) 
nan

$$$$
CHEMBL1472765
     RDKit          3D

  0  0  0  0  0  0  0  0  0  0999 V3000
M  V30 BEGIN CTAB
M  V30 COUNTS 32 35 0 0 0
M  V30 BEGIN ATOM
M  V30 1 C -1.883104 -2.931900 -1.135723 0
M  V30 2 N -0.956732 -3.137693 -0.198274 0
M  V30 3 C -0.297822 -2.181125 0.441838 0
M  V30 4 N 0.688460 -2.412160 1.440585 0
M  V30 5 C 1.249757 -3.597729 2.039584 0
M  V30 6 C 2.003040 -4.584442 1.232132 0
M  V30 7 C 0.585868 -4.895850 1.658500 0
M  V30 8 C -0.590900 -0.879953 0.115710 0
M  V30 9 C -0.024505 0.250024 0.658128 0
M  V30 10 C -0.345929 1.539825 0.302847 0
M  V30 11 C 0.311511 2.686181 0.935789 0
M  V30 12 C 1.606953 2.773169 1.421418 0
M  V30 13 C 1.825135 4.039335 1.941260 0
M  V30 14 O 0.702634 4.708003 1.780821 0
M  V30 15 C -0.210054 3.945087 1.193194 0
M  V30 16 C -1.303957 1.752520 -0.666729 0
M  V30 17 C -1.892415 0.639579 -1.231509 0
M  V30 18 C -1.542935 -0.636231 -0.848534 0
M  V30 19 N -2.181411 -1.640908 -1.466967 0
M  V30 20 H -2.397076 -3.757127 -1.632711 0
M  V30 21 H 1.174582 -1.633903 1.893459 0
M  V30 22 H 1.449160 -3.549395 3.136124 0
M  V30 23 H 2.238464 -4.383981 0.179959 0
M  V30 24 H 2.800848 -5.137293 1.765844 0
M  V30 25 H 0.486965 -5.698203 2.427067 0
M  V30 26 H -0.111934 -5.002742 0.837174 0
M  V30 27 H 0.722941 0.154061 1.413309 0
M  V30 28 H 2.340934 1.990306 1.405589 0
M  V30 29 H 2.707821 4.473705 2.403331 0
M  V30 30 H -1.230956 4.214585 0.928872 0
M  V30 31 H -1.587178 2.744025 -0.976832 0
M  V30 32 H -2.640279 0.805933 -1.987882 0
M  V30 END ATOM
M  V30 BEGIN BOND
M  V30 1 2 1 2
M  V30 2 1 2 3
M  V30 3 1 3 4
M  V30 4 1 4 5
M  V30 5 1 5 6
M  V30 6 1 6 7
M  V30 7 2 3 8
M  V30 8 1 8 9
M  V30 9 2 9 10
M  V30 10 1 10 11
M  V30 11 1 11 12
M  V30 12 2 12 13
M  V30 13 1 13 14
M  V30 14 1 14 15
M  V30 15 1 10 16
M  V30 16 2 16 17
M  V30 17 1 17 18
M  V30 18 2 18 19
M  V30 19 1 19 1
M  V30 20 1 7 5
M  V30 21 1 18 8
M  V30 22 2 15 11
M  V30 23 1 1 20
M  V30 24 1 4 21
M  V30 25 1 5 22
M  V30 26 1 6 23
M  V30 27 1 6 24
M  V30 28 1 7 25
M  V30 29 1 7 26
M  V30 30 1 9 27
M  V30 31 1 12 28
M  V30 32 1 13 29
M  V30 33 1 15 30
M  V30 34 1 16 31
M  V30 35 1 17 32
M  V30 END BOND
M  V30 END CTAB
M  END
>  <Dataset>  (192) 
ChEMBL_Kinases

>  <Ligand_Instance>  (192) 
nan

>  <PDB_ID>  (192) 
nan

>  <Standardized_SMILES>  (192) 
c1nc(NC2CC2)c2cc(-c3ccoc3)ccc2n1

>  <Name>  (192) 
nan

>  <Pocket>  (192) 
nan

>  <ATP_Site>  (192) 
nan

>  <Peripheral>  (192) 
nan

>  <Num_H_Atoms_ProtBoundConf>  (192) 
nan

>  <Num_Resolved_Atoms>  (192) 
nan

>  <Num_Not_Resolved_Atoms>  (192) 
nan

$$$$
CHEMBL1472926
     RDKit          3D

  0  0  0  0  0  0  0  0  0  0999 V3000
M  V30 BEGIN CTAB
M  V30 COUNTS 39 42 0 0 0
M  V30 BEGIN ATOM
M  V30 1 C -1.248412 -3.580710 2.926160 0
M  V30 2 O 0.088613 -4.059936 2.912868 0
M  V30 3 C 1.158150 -3.302968 2.511915 0
M  V30 4 C 2.464604 -3.796691 2.507680 0
M  V30 5 C 3.549227 -3.051168 2.108901 0
M  V30 6 C 3.365818 -1.736801 1.683473 0
M  V30 7 C 2.092491 -1.207353 1.671049 0
M  V30 8 C 1.763590 0.152318 1.249545 0
M  V30 9 C 2.734335 1.102843 1.500697 0
M  V30 10 C 2.465358 2.406065 1.116791 0
M  V30 11 C 1.257985 2.678472 0.512032 0
M  V30 12 N 0.924974 3.917781 0.124970 0
M  V30 13 C -0.226821 4.247830 -0.454692 0
M  V30 14 N -1.140424 3.308724 -0.684787 0
M  V30 15 C -0.932029 2.017563 -0.344201 0
M  V30 16 N -1.934187 1.060099 -0.606357 0
M  V30 17 C -2.425057 -0.274468 -0.617863 0
M  V30 18 C -1.690266 -1.260319 -1.574234 0
M  V30 19 C -3.156073 -0.896570 -1.745001 0
M  V30 20 C 0.281281 1.753377 0.252026 0
M  V30 21 C 0.564451 0.457351 0.642071 0
M  V30 22 C 1.033992 -1.990131 2.079156 0
M  V30 23 H -1.973101 -4.433517 2.883462 0
M  V30 24 H -1.409982 -2.941703 3.809629 0
M  V30 25 H -1.469671 -2.983656 2.020453 0
M  V30 26 H 2.586624 -4.833918 2.846132 0
M  V30 27 H 4.556986 -3.448702 2.111796 0
M  V30 28 H 4.174189 -1.096020 1.357030 0
M  V30 29 H 3.676282 0.859551 1.977803 0
M  V30 30 H 3.196919 3.203226 1.289469 0
M  V30 31 H -0.489012 5.257767 -0.764998 0
M  V30 32 H -2.835469 1.475724 -0.988574 0
M  V30 33 H -2.573518 -0.699372 0.400343 0
M  V30 34 H -1.436036 -2.249472 -1.171763 0
M  V30 35 H -0.970778 -0.800783 -2.277546 0
M  V30 36 H -3.424401 -0.316748 -2.651977 0
M  V30 37 H -3.911176 -1.644536 -1.449232 0
M  V30 38 H -0.129288 -0.330232 0.500085 0
M  V30 39 H 0.026796 -1.603720 2.081809 0
M  V30 END ATOM
M  V30 BEGIN BOND
M  V30 1 1 1 2
M  V30 2 1 2 3
M  V30 3 2 3 4
M  V30 4 1 4 5
M  V30 5 2 5 6
M  V30 6 1 6 7
M  V30 7 1 7 8
M  V30 8 2 8 9
M  V30 9 1 9 10
M  V30 10 2 10 11
M  V30 11 1 11 12
M  V30 12 2 12 13
M  V30 13 1 13 14
M  V30 14 2 14 15
M  V30 15 1 15 16
M  V30 16 1 16 17
M  V30 17 1 17 18
M  V30 18 1 18 19
M  V30 19 1 15 20
M  V30 20 2 20 21
M  V30 21 2 7 22
M  V30 22 1 22 3
M  V30 23 1 21 8
M  V30 24 1 20 11
M  V30 25 1 19 17
M  V30 26 1 1 23
M  V30 27 1 1 24
M  V30 28 1 1 25
M  V30 29 1 4 26
M  V30 30 1 5 27
M  V30 31 1 6 28
M  V30 32 1 9 29
M  V30 33 1 10 30
M  V30 34 1 13 31
M  V30 35 1 16 32
M  V30 36 1 17 33
M  V30 37 1 18 34
M  V30 38 1 18 35
M  V30 39 1 19 36
M  V30 40 1 19 37
M  V30 41 1 21 38
M  V30 42 1 22 39
M  V30 END BOND
M  V30 END CTAB
M  END
>  <Dataset>  (193) 
ChEMBL_Kinases

>  <Ligand_Instance>  (193) 
nan

>  <PDB_ID>  (193) 
nan

>  <Standardized_SMILES>  (193) 
COc1cccc(-c2ccc3ncnc(NC4CC4)c3c2)c1

>  <Name>  (193) 
nan

>  <Pocket>  (193) 
nan

>  <ATP_Site>  (193) 
nan

>  <Peripheral>  (193) 
nan

>  <Num_H_Atoms_ProtBoundConf>  (193) 
nan

>  <Num_Resolved_Atoms>  (193) 
nan

>  <Num_Not_Resolved_Atoms>  (193) 
nan

$$$$
CHEMBL1472304
     RDKit          3D

  0  0  0  0  0  0  0  0  0  0999 V3000
M  V30 BEGIN CTAB
M  V30 COUNTS 46 49 0 0 0
M  V30 BEGIN ATOM
M  V30 1 C 1.732911 0.989270 -2.547982 0
M  V30 2 N 1.766719 0.610587 -1.125147 0
M  V30 3 C 2.274133 -0.718707 -0.858818 0
M  V30 4 C 3.735190 -0.793670 -0.919634 0
M  V30 5 C 4.737346 -0.580438 -0.024130 0
M  V30 6 C 6.065340 -0.737699 -0.335070 0
M  V30 7 C 6.493967 -1.133436 -1.606100 0
M  V30 8 N 5.521979 -1.355405 -2.526536 0
M  V30 9 C 4.229798 -1.186514 -2.170658 0
M  V30 10 C 1.368691 1.537720 -0.135523 0
M  V30 11 O 0.981479 2.726043 -0.237794 0
M  V30 12 C 1.407943 1.004330 1.246429 0
M  V30 13 C 0.220036 1.188129 1.898108 0
M  V30 14 C 0.098807 0.718244 3.187185 0
M  V30 15 C -0.697185 0.514194 4.419526 0
M  V30 16 O -1.262914 -0.760483 4.519079 0
M  V30 17 C -2.174206 -1.404801 3.750697 0
M  V30 18 C -2.689181 -2.690983 3.866527 0
M  V30 19 C -3.627626 -3.162742 2.953420 0
M  V30 20 C -4.080394 -2.394288 1.914200 0
M  V30 21 N -4.994952 -2.890612 1.023119 0
M  V30 22 C -5.403789 -2.084722 -0.005274 0
M  V30 23 C -4.923289 -0.827126 -0.140610 0
M  V30 24 C -3.999055 -0.262080 0.723486 0
M  V30 25 C -3.612107 -1.099797 1.736135 0
M  V30 26 C -2.670638 -0.659639 2.674890 0
M  V30 27 O 1.328711 0.219686 3.290263 0
M  V30 28 N 2.044770 0.363201 2.258713 0
M  V30 29 H 0.713630 1.440026 -2.732772 0
M  V30 30 H 1.823091 0.115617 -3.221432 0
M  V30 31 H 2.480032 1.777488 -2.780902 0
M  V30 32 H 1.791408 -1.474432 -1.519554 0
M  V30 33 H 1.925121 -0.974737 0.172250 0
M  V30 34 H 4.379974 -0.276619 0.957897 0
M  V30 35 H 6.809006 -0.554735 0.413509 0
M  V30 36 H 7.526455 -1.256441 -1.848230 0
M  V30 37 H 3.629757 -1.425218 -3.064459 0
M  V30 38 H -0.739416 1.677327 1.620881 0
M  V30 39 H -0.105199 0.688388 5.333767 0
M  V30 40 H -1.549455 1.287320 4.383848 0
M  V30 41 H -2.272699 -3.205841 4.702232 0
M  V30 42 H -3.978403 -4.175480 3.119702 0
M  V30 43 H -6.134283 -2.607565 -0.645137 0
M  V30 44 H -5.304790 -0.274123 -0.972473 0
M  V30 45 H -3.617097 0.729282 0.619713 0
M  V30 46 H -2.361321 0.335012 2.520560 0
M  V30 END ATOM
M  V30 BEGIN BOND
M  V30 1 1 1 2
M  V30 2 1 2 3
M  V30 3 1 3 4
M  V30 4 2 4 5
M  V30 5 1 5 6
M  V30 6 2 6 7
M  V30 7 1 7 8
M  V30 8 2 8 9
M  V30 9 1 2 10
M  V30 10 2 10 11
M  V30 11 1 10 12
M  V30 12 1 12 13
M  V30 13 2 13 14
M  V30 14 1 14 15
M  V30 15 1 15 16
M  V30 16 1 16 17
M  V30 17 2 17 18
M  V30 18 1 18 19
M  V30 19 2 19 20
M  V30 20 1 20 21
M  V30 21 2 21 22
M  V30 22 1 22 23
M  V30 23 2 23 24
M  V30 24 1 24 25
M  V30 25 2 25 26
M  V30 26 1 14 27
M  V30 27 1 27 28
M  V30 28 1 9 4
M  V30 29 2 28 12
M  V30 30 1 26 17
M  V30 31 1 25 20
M  V30 32 1 1 29
M  V30 33 1 1 30
M  V30 34 1 1 31
M  V30 35 1 3 32
M  V30 36 1 3 33
M  V30 37 1 5 34
M  V30 38 1 6 35
M  V30 39 1 7 36
M  V30 40 1 9 37
M  V30 41 1 13 38
M  V30 42 1 15 39
M  V30 43 1 15 40
M  V30 44 1 18 41
M  V30 45 1 19 42
M  V30 46 1 22 43
M  V30 47 1 23 44
M  V30 48 1 24 45
M  V30 49 1 26 46
M  V30 END BOND
M  V30 END CTAB
M  END
>  <Dataset>  (194) 
ChEMBL_Kinases

>  <Ligand_Instance>  (194) 
nan

>  <PDB_ID>  (194) 
nan

>  <Standardized_SMILES>  (194) 
CN(Cc1cccnc1)C(=O)c1cc(COc2ccc3ncccc3c2)on1

>  <Name>  (194) 
nan

>  <Pocket>  (194) 
nan

>  <ATP_Site>  (194) 
nan

>  <Peripheral>  (194) 
nan

>  <Num_H_Atoms_ProtBoundConf>  (194) 
nan

>  <Num_Resolved_Atoms>  (194) 
nan

>  <Num_Not_Resolved_Atoms>  (194) 
nan

$$$$
CHEMBL1488646
     RDKit          3D

  0  0  0  0  0  0  0  0  0  0999 V3000
M  V30 BEGIN CTAB
M  V30 COUNTS 51 54 0 0 0
M  V30 BEGIN ATOM
M  V30 1 C -3.194074 3.346616 3.604202 0
M  V30 2 O -2.192167 2.541607 3.078127 0
M  V30 3 C -1.452343 1.602718 3.768046 0
M  V30 4 C -1.750249 1.467009 5.100560 0
M  V30 5 C -1.043189 0.544810 5.839066 0
M  V30 6 C -0.085951 -0.184197 5.210180 0
M  V30 7 C 0.172135 -0.006862 3.868352 0
M  V30 8 C -0.499535 0.899192 3.072574 0
M  V30 9 C -0.137685 0.990474 1.675934 0
M  V30 10 C -0.675922 1.815064 0.721522 0
M  V30 11 C -0.303942 1.870834 -0.602831 0
M  V30 12 C -0.932706 2.784605 -1.562146 0
M  V30 13 F -0.918277 2.189725 -2.824855 0
M  V30 14 F -0.301276 4.012865 -1.653182 0
M  V30 15 F -2.272472 3.014294 -1.259510 0
M  V30 16 N 0.696804 1.011243 -0.964031 0
M  V30 17 C 1.235658 0.189092 -0.019274 0
M  V30 18 N 2.266982 -0.686259 -0.439032 0
M  V30 19 C 2.986888 -1.621485 0.399653 0
M  V30 20 C 2.709787 -3.030028 -0.063797 0
M  V30 21 N 1.843652 -2.983252 -1.236480 0
M  V30 22 C 0.559547 -3.536090 -1.404683 0
M  V30 23 C -0.202394 -3.414774 -2.535246 0
M  V30 24 C -1.446099 -3.978510 -2.636027 0
M  V30 25 C -2.019347 -4.708633 -1.605356 0
M  V30 26 C -1.261981 -4.838305 -0.460841 0
M  V30 27 C -0.007134 -4.260153 -0.380587 0
M  V30 28 C 2.567087 -2.236097 -2.243068 0
M  V30 29 C 2.798916 -0.824592 -1.764221 0
M  V30 30 N 0.837961 0.178441 1.241555 0
M  V30 31 H -2.827399 3.801631 4.571622 0
M  V30 32 H -4.103853 2.790515 3.880666 0
M  V30 33 H -3.459718 4.202758 2.939371 0
M  V30 34 H -2.517773 2.060193 5.574602 0
M  V30 35 H -1.271582 0.432446 6.887109 0
M  V30 36 H 0.463961 -0.905652 5.798114 0
M  V30 37 H 0.966633 -0.653047 3.475115 0
M  V30 38 H -1.456212 2.487514 0.995478 0
M  V30 39 H 4.080656 -1.453227 0.354485 0
M  V30 40 H 2.687481 -1.480262 1.475991 0
M  V30 41 H 2.270047 -3.622005 0.763502 0
M  V30 42 H 3.668757 -3.534468 -0.315114 0
M  V30 43 H 0.164376 -2.868523 -3.374187 0
M  V30 44 H -2.013914 -3.858560 -3.546286 0
M  V30 45 H -2.993877 -5.144067 -1.698615 0
M  V30 46 H -1.732984 -5.412004 0.325591 0
M  V30 47 H 0.447166 -4.456997 0.578833 0
M  V30 48 H 3.570337 -2.719044 -2.417630 0
M  V30 49 H 2.079992 -2.260556 -3.240302 0
M  V30 50 H 3.885212 -0.606469 -1.758387 0
M  V30 51 H 2.361726 -0.076237 -2.469901 0
M  V30 END ATOM
M  V30 BEGIN BOND
M  V30 1 1 1 2
M  V30 2 1 2 3
M  V30 3 2 3 4
M  V30 4 1 4 5
M  V30 5 2 5 6
M  V30 6 1 6 7
M  V30 7 2 7 8
M  V30 8 1 8 9
M  V30 9 2 9 10
M  V30 10 1 10 11
M  V30 11 1 11 12
M  V30 12 1 12 13
M  V30 13 1 12 14
M  V30 14 1 12 15
M  V30 15 2 11 16
M  V30 16 1 16 17
M  V30 17 1 17 18
M  V30 18 1 18 19
M  V30 19 1 19 20
M  V30 20 1 20 21
M  V30 21 1 21 22
M  V30 22 2 22 23
M  V30 23 1 23 24
M  V30 24 2 24 25
M  V30 25 1 25 26
M  V30 26 2 26 27
M  V30 27 1 21 28
M  V30 28 1 28 29
M  V30 29 2 17 30
M  V30 30 1 8 3
M  V30 31 1 30 9
M  V30 32 1 29 18
M  V30 33 1 27 22
M  V30 34 1 1 31
M  V30 35 1 1 32
M  V30 36 1 1 33
M  V30 37 1 4 34
M  V30 38 1 5 35
M  V30 39 1 6 36
M  V30 40 1 7 37
M  V30 41 1 10 38
M  V30 42 1 19 39
M  V30 43 1 19 40
M  V30 44 1 20 41
M  V30 45 1 20 42
M  V30 46 1 23 43
M  V30 47 1 24 44
M  V30 48 1 25 45
M  V30 49 1 26 46
M  V30 50 1 27 47
M  V30 51 1 28 48
M  V30 52 1 28 49
M  V30 53 1 29 50
M  V30 54 1 29 51
M  V30 END BOND
M  V30 END CTAB
M  END
>  <Dataset>  (195) 
ChEMBL_Kinases

>  <Ligand_Instance>  (195) 
nan

>  <PDB_ID>  (195) 
nan

>  <Standardized_SMILES>  (195) 
COc1ccccc1-c1cc(C(F)(F)F)nc(N2CCN(c3ccccc3)CC2)n1

>  <Name>  (195) 
nan

>  <Pocket>  (195) 
nan

>  <ATP_Site>  (195) 
nan

>  <Peripheral>  (195) 
nan

>  <Num_H_Atoms_ProtBoundConf>  (195) 
nan

>  <Num_Resolved_Atoms>  (195) 
nan

>  <Num_Not_Resolved_Atoms>  (195) 
nan

$$$$
CHEMBL1488535
     RDKit          3D

  0  0  0  0  0  0  0  0  0  0999 V3000
M  V30 BEGIN CTAB
M  V30 COUNTS 48 51 0 0 0
M  V30 BEGIN ATOM
M  V30 1 N 2.205430 -4.041370 0.828849 0
M  V30 2 C 1.349729 -2.939650 0.622736 0
M  V30 3 O 2.017333 -1.898608 0.603591 0
M  V30 4 C -0.096838 -2.885143 0.445506 0
M  V30 5 C -0.697495 -1.716692 0.262508 0
M  V30 6 N -0.204400 -0.383705 0.193986 0
M  V30 7 C 0.134102 -0.023447 -1.163409 0
M  V30 8 O -0.093825 -0.992036 -1.963052 0
M  V30 9 C 0.670436 1.313104 -1.506748 0
M  V30 10 N 0.805910 2.178168 -0.352626 0
M  V30 11 N 1.890071 2.257914 0.398553 0
M  V30 12 C 1.993609 3.059366 1.454418 0
M  V30 13 C 3.287969 2.951609 2.099904 0
M  V30 14 O 4.211157 2.199655 1.723114 0
M  V30 15 O 4.050911 3.426099 3.147568 0
M  V30 16 C 0.994093 3.889075 1.881659 0
M  V30 17 C 1.182979 4.686432 2.983819 0
M  V30 18 C 0.096523 5.479307 3.313122 0
M  V30 19 C -1.086205 5.459586 2.577116 0
M  V30 20 C -1.226114 4.639671 1.476428 0
M  V30 21 C -0.162190 3.831276 1.114319 0
M  V30 22 C -0.210909 2.974640 0.023009 0
M  V30 23 O -1.307174 2.982473 -0.626875 0
M  V30 24 S -2.410000 -2.122549 0.097709 0
M  V30 25 C -2.214685 -3.885102 0.289270 0
M  V30 26 C -0.818141 -4.041821 0.470269 0
M  V30 27 C -0.525663 -5.486527 0.644144 0
M  V30 28 C -1.063879 -6.203384 -0.580329 0
M  V30 29 C -2.575865 -6.162911 -0.622968 0
M  V30 30 C -3.112795 -5.085022 0.296374 0
M  V30 31 H 2.609942 -4.425480 1.707318 0
M  V30 32 H 2.294658 -4.337446 -0.185752 0
M  V30 33 H -0.070368 0.312577 0.963777 0
M  V30 34 H 1.626148 1.261687 -2.093044 0
M  V30 35 H -0.054741 1.802132 -2.189959 0
M  V30 36 H 4.031219 3.022381 4.097171 0
M  V30 37 H 2.113848 4.659895 3.510757 0
M  V30 38 H 0.180764 6.134132 4.175562 0
M  V30 39 H -1.913470 6.111436 2.887461 0
M  V30 40 H -2.129852 4.619767 0.908099 0
M  V30 41 H -1.083361 -5.898084 1.535931 0
M  V30 42 H 0.541213 -5.719501 0.692346 0
M  V30 43 H -0.691961 -7.245917 -0.554432 0
M  V30 44 H -0.646855 -5.691226 -1.464456 0
M  V30 45 H -3.007810 -7.121155 -0.289249 0
M  V30 46 H -2.922344 -5.904617 -1.647883 0
M  V30 47 H -4.097646 -4.769755 -0.041354 0
M  V30 48 H -3.119432 -5.438440 1.350471 0
M  V30 END ATOM
M  V30 BEGIN BOND
M  V30 1 1 1 2
M  V30 2 2 2 3
M  V30 3 1 2 4
M  V30 4 2 4 5
M  V30 5 1 5 6
M  V30 6 1 6 7
M  V30 7 2 7 8
M  V30 8 1 7 9
M  V30 9 1 9 10
M  V30 10 1 10 11
M  V30 11 2 11 12
M  V30 12 1 12 13
M  V30 13 2 13 14
M  V30 14 1 13 15
M  V30 15 1 12 16
M  V30 16 2 16 17
M  V30 17 1 17 18
M  V30 18 2 18 19
M  V30 19 1 19 20
M  V30 20 2 20 21
M  V30 21 1 21 22
M  V30 22 2 22 23
M  V30 23 1 5 24
M  V30 24 1 24 25
M  V30 25 2 25 26
M  V30 26 1 26 27
M  V30 27 1 27 28
M  V30 28 1 28 29
M  V30 29 1 29 30
M  V30 30 1 26 4
M  V30 31 1 22 10
M  V30 32 1 30 25
M  V30 33 1 21 16
M  V30 34 1 1 31
M  V30 35 1 1 32
M  V30 36 1 6 33
M  V30 37 1 9 34
M  V30 38 1 9 35
M  V30 39 1 15 36
M  V30 40 1 17 37
M  V30 41 1 18 38
M  V30 42 1 19 39
M  V30 43 1 20 40
M  V30 44 1 27 41
M  V30 45 1 27 42
M  V30 46 1 28 43
M  V30 47 1 28 44
M  V30 48 1 29 45
M  V30 49 1 29 46
M  V30 50 1 30 47
M  V30 51 1 30 48
M  V30 END BOND
M  V30 END CTAB
M  END
>  <Dataset>  (196) 
ChEMBL_Kinases

>  <Ligand_Instance>  (196) 
nan

>  <PDB_ID>  (196) 
nan

>  <Standardized_SMILES>  (196) 
NC(=O)c1c(NC(=O)Cn2nc(C(=O)O)c3ccccc3c2=O)sc2c1CCCC2

>  <Name>  (196) 
nan

>  <Pocket>  (196) 
nan

>  <ATP_Site>  (196) 
nan

>  <Peripheral>  (196) 
nan

>  <Num_H_Atoms_ProtBoundConf>  (196) 
nan

>  <Num_Resolved_Atoms>  (196) 
nan

>  <Num_Not_Resolved_Atoms>  (196) 
nan

$$$$
CHEMBL1488447
     RDKit          3D

  0  0  0  0  0  0  0  0  0  0999 V3000
M  V30 BEGIN CTAB
M  V30 COUNTS 35 36 0 0 0
M  V30 BEGIN ATOM
M  V30 1 C -1.841949 -0.335541 2.479742 0
M  V30 2 C -1.177785 -1.183446 1.397072 0
M  V30 3 C -0.641803 -2.412913 2.105218 0
M  V30 4 C 0.611258 -2.960598 1.513031 0
M  V30 5 C 1.680462 -1.932308 1.638223 0
M  V30 6 C 2.974155 -2.083157 2.075507 0
M  V30 7 C 3.809408 -0.990433 2.110259 0
M  V30 8 F 5.084567 -1.187961 2.544742 0
M  V30 9 C 3.403058 0.270969 1.720177 0
M  V30 10 C 2.112917 0.469177 1.274740 0
M  V30 11 C 1.287696 -0.661478 1.251630 0
M  V30 12 N -0.055044 -0.461173 0.787483 0
M  V30 13 C -0.317442 0.441093 -0.280004 0
M  V30 14 O 0.539465 1.102995 -0.921573 0
M  V30 15 C -1.700315 0.681395 -0.739846 0
M  V30 16 C -1.811188 1.704703 -1.851199 0
M  V30 17 C -1.074139 1.325740 -3.052506 0
M  V30 18 O -1.379397 0.205418 -3.561895 0
M  V30 19 O -0.103749 1.579825 -4.040263 0
M  V30 20 H -2.052565 -0.954343 3.399231 0
M  V30 21 H -1.192877 0.490851 2.794808 0
M  V30 22 H -2.853357 0.000712 2.144952 0
M  V30 23 H -1.901008 -1.487146 0.623924 0
M  V30 24 H -0.457384 -2.186452 3.185515 0
M  V30 25 H -1.418581 -3.210748 2.103797 0
M  V30 26 H 0.463546 -3.233390 0.449839 0
M  V30 27 H 0.918489 -3.826168 2.119750 0
M  V30 28 H 3.220705 -3.093522 2.366417 0
M  V30 29 H 4.065422 1.118077 1.751909 0
M  V30 30 H 1.754996 1.440161 0.960104 0
M  V30 31 H -2.180172 -0.268309 -1.005595 0
M  V30 32 H -2.284610 1.110144 0.115512 0
M  V30 33 H -2.911203 1.761207 -2.080615 0
M  V30 34 H -1.515166 2.713960 -1.510879 0
M  V30 35 H 0.837754 1.181205 -3.839915 0
M  V30 END ATOM
M  V30 BEGIN BOND
M  V30 1 1 1 2
M  V30 2 1 2 3
M  V30 3 1 3 4
M  V30 4 1 4 5
M  V30 5 2 5 6
M  V30 6 1 6 7
M  V30 7 1 7 8
M  V30 8 2 7 9
M  V30 9 1 9 10
M  V30 10 2 10 11
M  V30 11 1 11 12
M  V30 12 1 12 13
M  V30 13 2 13 14
M  V30 14 1 13 15
M  V30 15 1 15 16
M  V30 16 1 16 17
M  V30 17 2 17 18
M  V30 18 1 17 19
M  V30 19 1 12 2
M  V30 20 1 11 5
M  V30 21 1 1 20
M  V30 22 1 1 21
M  V30 23 1 1 22
M  V30 24 1 2 23
M  V30 25 1 3 24
M  V30 26 1 3 25
M  V30 27 1 4 26
M  V30 28 1 4 27
M  V30 29 1 6 28
M  V30 30 1 9 29
M  V30 31 1 10 30
M  V30 32 1 15 31
M  V30 33 1 15 32
M  V30 34 1 16 33
M  V30 35 1 16 34
M  V30 36 1 19 35
M  V30 END BOND
M  V30 END CTAB
M  END
>  <Dataset>  (197) 
ChEMBL_Kinases

>  <Ligand_Instance>  (197) 
nan

>  <PDB_ID>  (197) 
nan

>  <Standardized_SMILES>  (197) 
CC1CCc2cc(F)ccc2N1C(=O)CCC(=O)O

>  <Name>  (197) 
nan

>  <Pocket>  (197) 
nan

>  <ATP_Site>  (197) 
nan

>  <Peripheral>  (197) 
nan

>  <Num_H_Atoms_ProtBoundConf>  (197) 
nan

>  <Num_Resolved_Atoms>  (197) 
nan

>  <Num_Not_Resolved_Atoms>  (197) 
nan

$$$$
CHEMBL1488410
     RDKit          3D

  0  0  0  0  0  0  0  0  0  0999 V3000
M  V30 BEGIN CTAB
M  V30 COUNTS 36 37 0 0 0
M  V30 BEGIN ATOM
M  V30 1 C 0.806025 -3.545933 3.636370 0
M  V30 2 C 2.262241 -3.298765 3.411987 0
M  V30 3 O 2.472643 -2.753867 2.123728 0
M  V30 4 C 1.892339 -1.564493 1.775030 0
M  V30 5 O 1.142373 -0.859480 2.530371 0
M  V30 6 C 1.981894 -0.841168 0.514481 0 CFG=1
M  V30 7 N 2.800744 -1.478628 -0.502164 0
M  V30 8 N 2.444819 -0.709013 -1.609625 0
M  V30 9 C 1.230297 -0.280568 -1.550236 0
M  V30 10 C 0.576747 0.552453 -2.570514 0
M  V30 11 O 1.295848 0.849564 -3.567676 0
M  V30 12 O -0.755558 0.909718 -2.308454 0
M  V30 13 C -1.494252 1.710076 -3.215081 0
M  V30 14 C 0.675604 -0.804237 -0.266770 0 CFG=2
M  V30 15 C -0.332725 0.050970 0.348367 0
M  V30 16 C -0.144427 1.384820 0.682006 0
M  V30 17 C -1.214682 2.044216 1.260432 0
M  V30 18 C -2.423341 1.463947 1.515769 0
M  V30 19 C -2.618149 0.136644 1.186409 0
M  V30 20 C -1.557157 -0.529645 0.609203 0
M  V30 21 H 0.227657 -3.022288 2.848921 0
M  V30 22 H 0.451897 -3.121265 4.610127 0
M  V30 23 H 0.585260 -4.640172 3.578355 0
M  V30 24 H 2.556536 -2.473127 4.124067 0
M  V30 25 H 2.921693 -4.145871 3.631405 0
M  V30 26 H 2.388023 0.190148 0.611820 0
M  V30 27 H 3.488749 -2.269574 -0.553160 0
M  V30 28 H -0.881358 1.928692 -4.098133 0
M  V30 29 H -2.393265 1.120123 -3.467217 0
M  V30 30 H -1.762050 2.682291 -2.730408 0
M  V30 31 H 0.370623 -1.845504 -0.471077 0
M  V30 32 H 0.800757 1.834372 0.481064 0
M  V30 33 H -1.005943 3.093530 1.501362 0
M  V30 34 H -3.229787 2.010326 1.966501 0
M  V30 35 H -3.575746 -0.332115 1.385993 0
M  V30 36 H -1.770662 -1.573047 0.371732 0
M  V30 END ATOM
M  V30 BEGIN BOND
M  V30 1 1 1 2
M  V30 2 1 2 3
M  V30 3 1 3 4
M  V30 4 2 4 5
M  V30 5 1 4 6
M  V30 6 1 6 7
M  V30 7 1 7 8
M  V30 8 2 8 9
M  V30 9 1 9 10
M  V30 10 2 10 11
M  V30 11 1 10 12
M  V30 12 1 12 13
M  V30 13 1 9 14
M  V30 14 1 14 15
M  V30 15 2 15 16
M  V30 16 1 16 17
M  V30 17 2 17 18
M  V30 18 1 18 19
M  V30 19 2 19 20
M  V30 20 1 14 6
M  V30 21 1 20 15
M  V30 22 1 1 21
M  V30 23 1 1 22
M  V30 24 1 1 23
M  V30 25 1 2 24
M  V30 26 1 2 25
M  V30 27 1 6 26 CFG=1
M  V30 28 1 7 27
M  V30 29 1 13 28
M  V30 30 1 13 29
M  V30 31 1 13 30
M  V30 32 1 14 31 CFG=3
M  V30 33 1 16 32
M  V30 34 1 17 33
M  V30 35 1 18 34
M  V30 36 1 19 35
M  V30 37 1 20 36
M  V30 END BOND
M  V30 END CTAB
M  END
>  <Dataset>  (198) 
ChEMBL_Kinases

>  <Ligand_Instance>  (198) 
nan

>  <PDB_ID>  (198) 
nan

>  <Standardized_SMILES>  (198) 
CCOC(=O)[C@H]1NN=C(C(=O)OC)[C@@H]1c1ccccc1

>  <Name>  (198) 
nan

>  <Pocket>  (198) 
nan

>  <ATP_Site>  (198) 
nan

>  <Peripheral>  (198) 
nan

>  <Num_H_Atoms_ProtBoundConf>  (198) 
nan

>  <Num_Resolved_Atoms>  (198) 
nan

>  <Num_Not_Resolved_Atoms>  (198) 
nan

$$$$
CHEMBL1488338
     RDKit          3D

  0  0  0  0  0  0  0  0  0  0999 V3000
M  V30 BEGIN CTAB
M  V30 COUNTS 37 38 0 0 0
M  V30 BEGIN ATOM
M  V30 1 C -1.568849 -2.578794 -0.034587 0
M  V30 2 C -0.232127 -2.745417 -0.656877 0
M  V30 3 C 0.277525 -4.025628 -0.629472 0
M  V30 4 C 1.514424 -4.276231 -1.184315 0
M  V30 5 O 2.136706 -5.496208 -1.225503 0
M  V30 6 C 1.652652 -6.709304 -0.723155 0
M  V30 7 F 2.539036 -7.313305 0.165774 0
M  V30 8 F 1.555394 -7.610546 -1.790822 0
M  V30 9 C 2.239140 -3.248450 -1.764918 0
M  V30 10 C 1.738962 -1.941543 -1.802798 0
M  V30 11 C 0.499186 -1.727079 -1.238677 0
M  V30 12 N -0.167511 -0.457711 -1.186353 0
M  V30 13 C 0.018296 0.419211 -0.094579 0
M  V30 14 O 0.785921 0.046410 0.823917 0
M  V30 15 N -0.574758 1.693701 0.082621 0
M  V30 16 C -0.296808 2.462130 1.227354 0
M  V30 17 C -1.176771 2.221729 2.287460 0
M  V30 18 C -1.024887 2.909856 3.486060 0
M  V30 19 C 0.016735 3.811371 3.549356 0
M  V30 20 N 0.154959 4.505029 4.784177 0 CHG=1 VAL=4
M  V30 21 O -0.586730 4.347585 5.774344 0
M  V30 22 O 1.115006 5.444012 5.073269 0 CHG=-1 VAL=1
M  V30 23 C 0.904353 4.088945 2.554978 0
M  V30 24 C 0.731483 3.393089 1.377395 0
M  V30 25 H -1.478514 -2.520038 1.079456 0
M  V30 26 H -2.080867 -1.658232 -0.356067 0
M  V30 27 H -2.272470 -3.411237 -0.275926 0
M  V30 28 H -0.255706 -4.852730 -0.186854 0
M  V30 29 H 0.669980 -6.669742 -0.247569 0
M  V30 30 H 3.229227 -3.356864 -2.229101 0
M  V30 31 H 2.233424 -1.091036 -2.231408 0
M  V30 32 H -0.808667 -0.130301 -1.939119 0
M  V30 33 H -1.225699 2.003282 -0.702167 0
M  V30 34 H -1.999758 1.509085 2.236692 0
M  V30 35 H -1.692861 2.746431 4.331510 0
M  V30 36 H 1.707735 4.788246 2.612298 0
M  V30 37 H 1.320488 3.473859 0.496577 0
M  V30 END ATOM
M  V30 BEGIN BOND
M  V30 1 1 1 2
M  V30 2 2 2 3
M  V30 3 1 3 4
M  V30 4 1 4 5
M  V30 5 1 5 6
M  V30 6 1 6 7
M  V30 7 1 6 8
M  V30 8 2 4 9
M  V30 9 1 9 10
M  V30 10 2 10 11
M  V30 11 1 11 12
M  V30 12 1 12 13
M  V30 13 2 13 14
M  V30 14 1 13 15
M  V30 15 1 15 16
M  V30 16 2 16 17
M  V30 17 1 17 18
M  V30 18 2 18 19
M  V30 19 1 19 20
M  V30 20 2 20 21
M  V30 21 1 20 22
M  V30 22 1 19 23
M  V30 23 2 23 24
M  V30 24 1 11 2
M  V30 25 1 24 16
M  V30 26 1 1 25
M  V30 27 1 1 26
M  V30 28 1 1 27
M  V30 29 1 3 28
M  V30 30 1 6 29
M  V30 31 1 9 30
M  V30 32 1 10 31
M  V30 33 1 12 32
M  V30 34 1 15 33
M  V30 35 1 17 34
M  V30 36 1 18 35
M  V30 37 1 23 36
M  V30 38 1 24 37
M  V30 END BOND
M  V30 END CTAB
M  END
>  <Dataset>  (199) 
ChEMBL_Kinases

>  <Ligand_Instance>  (199) 
nan

>  <PDB_ID>  (199) 
nan

>  <Standardized_SMILES>  (199) 
Cc1cc(OC(F)F)ccc1NC(=O)Nc1ccc([N+](=O)[O-])cc1

>  <Name>  (199) 
nan

>  <Pocket>  (199) 
nan

>  <ATP_Site>  (199) 
nan

>  <Peripheral>  (199) 
nan

>  <Num_H_Atoms_ProtBoundConf>  (199) 
nan

>  <Num_Resolved_Atoms>  (199) 
nan

>  <Num_Not_Resolved_Atoms>  (199) 
nan

$$$$
CHEMBL1488321
     RDKit          3D

  0  0  0  0  0  0  0  0  0  0999 V3000
M  V30 BEGIN CTAB
M  V30 COUNTS 69 73 0 0 0
M  V30 BEGIN ATOM
M  V30 1 C 5.456765 -0.842357 5.019273 0
M  V30 2 C 5.750671 -0.310472 3.647228 0
M  V30 3 C 7.020980 0.068274 3.267885 0
M  V30 4 C 7.308883 0.562171 2.002572 0
M  V30 5 C 6.277858 0.673664 1.099803 0
M  V30 6 C 4.980797 0.302821 1.441624 0
M  V30 7 O 3.869209 0.372289 0.615434 0
M  V30 8 C 3.912728 0.842003 -0.715673 0
M  V30 9 C 2.519344 0.790764 -1.351836 0
M  V30 10 O 2.670885 1.267431 -2.631766 0
M  V30 11 C 1.608860 1.600521 -0.483792 0
M  V30 12 N 0.268392 1.734713 -0.913420 0
M  V30 13 C 0.014825 2.507964 -2.077806 0
M  V30 14 C -1.382595 2.213537 -2.610698 0
M  V30 15 N -2.324498 1.872037 -1.568158 0
M  V30 16 C -2.605808 0.480295 -1.472397 0
M  V30 17 C -3.570166 0.198940 -0.384929 0
M  V30 18 N -3.946211 -1.152733 -0.179884 0
M  V30 19 C -3.327396 -2.110421 0.666047 0
M  V30 20 O -2.313119 -1.702256 1.314088 0
M  V30 21 C -3.725954 -3.494623 0.868234 0
M  V30 22 C -3.015675 -4.314098 1.735015 0
M  V30 23 C -3.504466 -5.605844 1.831780 0
M  V30 24 C -4.603988 -6.029307 1.122108 0
M  V30 25 C -5.312191 -5.215437 0.258919 0
M  V30 26 C -6.405724 -5.709636 -0.419303 0
M  V30 27 C -7.053873 -4.813754 -1.265448 0
M  V30 28 C -6.618720 -3.516545 -1.406747 0
M  V30 29 C -5.501260 -3.063598 -0.694206 0
M  V30 30 C -4.825487 -3.928288 0.162208 0
M  V30 31 C -5.091699 -1.677416 -0.888275 0
M  V30 32 O -5.718330 -0.904661 -1.671622 0
M  V30 33 C -1.950990 2.553181 -0.378289 0
M  V30 34 C -0.621860 2.100720 0.169221 0
M  V30 35 C 4.726176 -0.186583 2.712621 0
M  V30 36 C 3.359701 -0.607141 3.160876 0
M  V30 37 H 5.137030 -1.911788 4.910713 0
M  V30 38 H 4.632601 -0.224550 5.429333 0
M  V30 39 H 6.366856 -0.727918 5.628348 0
M  V30 40 H 7.792638 -0.036254 4.004375 0
M  V30 41 H 8.306374 0.853112 1.723205 0
M  V30 42 H 6.413120 1.048569 0.092832 0
M  V30 43 H 4.553576 0.170248 -1.349736 0
M  V30 44 H 4.276373 1.866177 -0.823239 0
M  V30 45 H 2.235438 -0.286374 -1.349552 0
M  V30 46 H 2.825375 0.528626 -3.266395 0
M  V30 47 H 1.574931 1.057859 0.508037 0
M  V30 48 H 2.107488 2.565654 -0.234401 0
M  V30 49 H 0.096899 3.585170 -1.773411 0
M  V30 50 H 0.685151 2.386097 -2.922366 0
M  V30 51 H -1.736577 3.186797 -3.046435 0
M  V30 52 H -1.353609 1.406757 -3.373098 0
M  V30 53 H -3.068855 0.172146 -2.432486 0
M  V30 54 H -1.626697 -0.028356 -1.380644 0
M  V30 55 H -3.248008 0.622464 0.602152 0
M  V30 56 H -4.500823 0.770616 -0.629187 0
M  V30 57 H -2.150419 -3.965294 2.287019 0
M  V30 58 H -3.020508 -6.322486 2.481885 0
M  V30 59 H -4.951199 -7.061994 1.234605 0
M  V30 60 H -6.757908 -6.720927 -0.319961 0
M  V30 61 H -7.932244 -5.121207 -1.843032 0
M  V30 62 H -7.121183 -2.826473 -2.061118 0
M  V30 63 H -2.736471 2.584935 0.401371 0
M  V30 64 H -1.822900 3.629328 -0.670993 0
M  V30 65 H -0.675591 1.274998 0.886204 0
M  V30 66 H -0.093660 2.939399 0.708560 0
M  V30 67 H 2.974708 0.177091 3.853848 0
M  V30 68 H 3.403565 -1.545637 3.747095 0
M  V30 69 H 2.697305 -0.808718 2.300104 0
M  V30 END ATOM
M  V30 BEGIN BOND
M  V30 1 1 1 2
M  V30 2 2 2 3
M  V30 3 1 3 4
M  V30 4 2 4 5
M  V30 5 1 5 6
M  V30 6 1 6 7
M  V30 7 1 7 8
M  V30 8 1 8 9
M  V30 9 1 9 10
M  V30 10 1 9 11
M  V30 11 1 11 12
M  V30 12 1 12 13
M  V30 13 1 13 14
M  V30 14 1 14 15
M  V30 15 1 15 16
M  V30 16 1 16 17
M  V30 17 1 17 18
M  V30 18 1 18 19
M  V30 19 2 19 20
M  V30 20 1 19 21
M  V30 21 2 21 22
M  V30 22 1 22 23
M  V30 23 2 23 24
M  V30 24 1 24 25
M  V30 25 2 25 26
M  V30 26 1 26 27
M  V30 27 2 27 28
M  V30 28 1 28 29
M  V30 29 2 29 30
M  V30 30 1 29 31
M  V30 31 2 31 32
M  V30 32 1 15 33
M  V30 33 1 33 34
M  V30 34 2 6 35
M  V30 35 1 35 36
M  V30 36 1 35 2
M  V30 37 1 34 12
M  V30 38 1 31 18
M  V30 39 1 30 21
M  V30 40 1 30 25
M  V30 41 1 1 37
M  V30 42 1 1 38
M  V30 43 1 1 39
M  V30 44 1 3 40
M  V30 45 1 4 41
M  V30 46 1 5 42
M  V30 47 1 8 43
M  V30 48 1 8 44
M  V30 49 1 9 45
M  V30 50 1 10 46
M  V30 51 1 11 47
M  V30 52 1 11 48
M  V30 53 1 13 49
M  V30 54 1 13 50
M  V30 55 1 14 51
M  V30 56 1 14 52
M  V30 57 1 16 53
M  V30 58 1 16 54
M  V30 59 1 17 55
M  V30 60 1 17 56
M  V30 61 1 22 57
M  V30 62 1 23 58
M  V30 63 1 24 59
M  V30 64 1 26 60
M  V30 65 1 27 61
M  V30 66 1 28 62
M  V30 67 1 33 63
M  V30 68 1 33 64
M  V30 69 1 34 65
M  V30 70 1 34 66
M  V30 71 1 36 67
M  V30 72 1 36 68
M  V30 73 1 36 69
M  V30 END BOND
M  V30 END CTAB
M  END
>  <Dataset>  (200) 
ChEMBL_Kinases

>  <Ligand_Instance>  (200) 
nan

>  <PDB_ID>  (200) 
nan

>  <Standardized_SMILES>  (200) 
Cc1cccc(OCC(O)CN2CCN(CCN3C(=O)c4cccc5cccc(c45)C3=O)CC2)c1C

>  <Name>  (200) 
nan

>  <Pocket>  (200) 
nan

>  <ATP_Site>  (200) 
nan

>  <Peripheral>  (200) 
nan

>  <Num_H_Atoms_ProtBoundConf>  (200) 
nan

>  <Num_Resolved_Atoms>  (200) 
nan

>  <Num_Not_Resolved_Atoms>  (200) 
nan

$$$$
CHEMBL1488305
     RDKit          3D

  0  0  0  0  0  0  0  0  0  0999 V3000
M  V30 BEGIN CTAB
M  V30 COUNTS 62 64 0 0 0
M  V30 BEGIN ATOM
M  V30 1 C -2.426928 0.793925 4.004464 0
M  V30 2 C -2.110518 2.257319 3.762679 0
M  V30 3 C -0.586259 2.343758 3.593095 0
M  V30 4 C -0.243250 1.491466 2.429225 0
M  V30 5 C 0.514207 0.400790 2.147374 0
M  V30 6 C 1.203701 -0.080059 3.364347 0
M  V30 7 C 0.860679 -1.466489 3.801049 0
M  V30 8 C 1.640965 -1.809428 5.088621 0
M  V30 9 C 0.589770 -0.126495 0.756632 0
M  V30 10 N -0.241176 0.724158 -0.066140 0
M  V30 11 P -0.102285 0.423840 -1.770003 0
M  V30 12 O 0.012996 1.821143 -2.407388 0
M  V30 13 C 1.354955 -0.444602 -2.220971 0
M  V30 14 C 2.529027 0.240017 -1.884463 0
M  V30 15 C 3.776905 -0.291626 -2.168144 0
M  V30 16 C 3.914214 -1.511925 -2.791072 0
M  V30 17 C 2.758031 -2.185715 -3.122195 0
M  V30 18 C 1.507657 -1.673824 -2.848472 0
M  V30 19 C -1.601434 -0.262944 -2.446248 0
M  V30 20 C -2.823079 -0.459691 -1.840521 0
M  V30 21 C -3.875700 -1.010894 -2.538418 0
M  V30 22 C -3.756698 -1.386904 -3.860836 0
M  V30 23 C -2.532954 -1.188518 -4.464006 0
M  V30 24 C -1.455947 -0.631379 -3.771721 0
M  V30 25 C 0.180313 -1.552976 0.647135 0
M  V30 26 C 0.952433 -2.677525 0.322355 0
M  V30 27 C 0.355279 -3.918114 0.288037 0
M  V30 28 C -0.976875 -4.135915 0.556422 0
M  V30 29 C -1.741013 -3.041327 0.875469 0
M  V30 30 C -1.172222 -1.788128 0.917933 0
M  V30 31 H -1.869688 0.149690 3.321905 0
M  V30 32 H -3.501827 0.590435 3.983550 0
M  V30 33 H -2.087653 0.593674 5.060561 0
M  V30 34 H -2.460515 2.865916 4.594339 0
M  V30 35 H -2.594456 2.525090 2.786473 0
M  V30 36 H -0.151400 2.036856 4.545646 0
M  V30 37 H -0.334424 3.418264 3.407109 0
M  V30 38 H -0.805335 1.961294 1.600622 0
M  V30 39 H 1.157849 0.570487 4.232111 0
M  V30 40 H 2.319210 -0.086270 3.097988 0
M  V30 41 H -0.199061 -1.600754 4.020463 0
M  V30 42 H 1.188904 -2.238678 3.079781 0
M  V30 43 H 1.942247 -2.866325 5.109674 0
M  V30 44 H 2.547915 -1.169064 5.109221 0
M  V30 45 H 1.030254 -1.510758 5.978552 0
M  V30 46 H 1.628537 -0.051362 0.396330 0
M  V30 47 H -1.252915 0.655211 0.197041 0
M  V30 48 H 2.604485 1.213429 -1.390239 0
M  V30 49 H 4.711896 0.200588 -1.927092 0
M  V30 50 H 4.880011 -1.934508 -3.016322 0
M  V30 51 H 2.800451 -3.148861 -3.613213 0
M  V30 52 H 0.562854 -2.134779 -3.071184 0
M  V30 53 H -2.833187 -0.137811 -0.810239 0
M  V30 54 H -4.812407 -1.131663 -1.978000 0
M  V30 55 H -4.613618 -1.812541 -4.355441 0
M  V30 56 H -2.527068 -1.514651 -5.512449 0
M  V30 57 H -0.598756 -0.570198 -4.450682 0
M  V30 58 H 1.969846 -2.422959 0.129380 0
M  V30 59 H 1.005091 -4.729155 0.032957 0
M  V30 60 H -1.360113 -5.145444 0.505428 0
M  V30 61 H -2.781183 -3.233474 1.082017 0
M  V30 62 H -1.871920 -1.015853 1.183184 0
M  V30 END ATOM
M  V30 BEGIN BOND
M  V30 1 1 1 2
M  V30 2 1 2 3
M  V30 3 1 3 4
M  V30 4 2 4 5
M  V30 5 1 5 6
M  V30 6 1 6 7
M  V30 7 1 7 8
M  V30 8 1 5 9
M  V30 9 1 9 10
M  V30 10 1 10 11
M  V30 11 2 11 12
M  V30 12 1 11 13
M  V30 13 2 13 14
M  V30 14 1 14 15
M  V30 15 2 15 16
M  V30 16 1 16 17
M  V30 17 2 17 18
M  V30 18 1 11 19
M  V30 19 2 19 20
M  V30 20 1 20 21
M  V30 21 2 21 22
M  V30 22 1 22 23
M  V30 23 2 23 24
M  V30 24 1 9 25
M  V30 25 2 25 26
M  V30 26 1 26 27
M  V30 27 2 27 28
M  V30 28 1 28 29
M  V30 29 2 29 30
M  V30 30 1 18 13
M  V30 31 1 24 19
M  V30 32 1 30 25
M  V30 33 1 1 31
M  V30 34 1 1 32
M  V30 35 1 1 33
M  V30 36 1 2 34
M  V30 37 1 2 35
M  V30 38 1 3 36
M  V30 39 1 3 37
M  V30 40 1 4 38
M  V30 41 1 6 39
M  V30 42 1 6 40
M  V30 43 1 7 41
M  V30 44 1 7 42
M  V30 45 1 8 43
M  V30 46 1 8 44
M  V30 47 1 8 45
M  V30 48 1 9 46
M  V30 49 1 10 47
M  V30 50 1 14 48
M  V30 51 1 15 49
M  V30 52 1 16 50
M  V30 53 1 17 51
M  V30 54 1 18 52
M  V30 55 1 20 53
M  V30 56 1 21 54
M  V30 57 1 22 55
M  V30 58 1 23 56
M  V30 59 1 24 57
M  V30 60 1 26 58
M  V30 61 1 27 59
M  V30 62 1 28 60
M  V30 63 1 29 61
M  V30 64 1 30 62
M  V30 END BOND
M  V30 END CTAB
M  END
>  <Dataset>  (201) 
ChEMBL_Kinases

>  <Ligand_Instance>  (201) 
nan

>  <PDB_ID>  (201) 
nan

>  <Standardized_SMILES>  (201) 
CCC/C=C(\CCC)C(NP(=O)(c1ccccc1)c1ccccc1)c1ccccc1

>  <Name>  (201) 
nan

>  <Pocket>  (201) 
nan

>  <ATP_Site>  (201) 
nan

>  <Peripheral>  (201) 
nan

>  <Num_H_Atoms_ProtBoundConf>  (201) 
nan

>  <Num_Resolved_Atoms>  (201) 
nan

>  <Num_Not_Resolved_Atoms>  (201) 
nan

$$$$
CHEMBL1488247
     RDKit          3D

  0  0  0  0  0  0  0  0  0  0999 V3000
M  V30 BEGIN CTAB
M  V30 COUNTS 48 51 0 0 0
M  V30 BEGIN ATOM
M  V30 1 O 0.901669 1.662745 2.111205 0
M  V30 2 P 0.724911 0.334693 1.357075 0
M  V30 3 C 1.791393 -0.863322 2.109534 0
M  V30 4 C 1.558415 -1.382611 3.388587 0
M  V30 5 C 2.365494 -2.313770 4.007994 0
M  V30 6 C 3.484947 -2.756796 3.297464 0
M  V30 7 C 3.789997 -2.298101 2.031997 0
M  V30 8 C 2.932334 -1.367748 1.483207 0
M  V30 9 C 1.300172 0.618962 -0.306105 0
M  V30 10 C 0.554278 0.301581 -1.420840 0
M  V30 11 C 0.963290 0.505393 -2.717455 0
M  V30 12 C 2.220894 1.073338 -2.942491 0
M  V30 13 C 2.978714 1.396237 -1.837278 0
M  V30 14 C 2.554836 1.185771 -0.541258 0
M  V30 15 C -1.006381 -0.038117 1.376217 0
M  V30 16 C -1.760475 1.223113 1.064738 0
M  V30 17 C -1.471589 2.539782 0.773911 0
M  V30 18 C -2.639330 3.245734 0.577462 0
M  V30 19 C -3.624222 2.298861 0.762540 0
M  V30 20 O -3.068923 1.168850 1.036700 0
M  V30 21 N -1.454176 -1.132489 0.584569 0
M  V30 22 C -0.825667 -2.383455 0.933765 0
M  V30 23 C -1.281546 -3.360272 -0.167651 0
M  V30 24 O -2.613556 -3.629064 0.028565 0
M  V30 25 C -3.222622 -2.829837 0.959723 0
M  V30 26 C -2.880776 -1.362522 0.863728 0
M  V30 27 H 0.683488 -1.038119 3.947085 0
M  V30 28 H 2.117870 -2.666778 4.999613 0
M  V30 29 H 4.142767 -3.493756 3.761582 0
M  V30 30 H 4.654557 -2.636360 1.476017 0
M  V30 31 H 3.141305 -0.980427 0.480683 0
M  V30 32 H -0.414112 -0.134761 -1.309048 0
M  V30 33 H 0.370272 0.252603 -3.575169 0
M  V30 34 H 2.538583 1.231822 -3.963979 0
M  V30 35 H 3.968091 1.843102 -2.017482 0
M  V30 36 H 3.176704 1.451587 0.310548 0
M  V30 37 H -1.330494 -0.276971 2.435371 0
M  V30 38 H -0.455322 2.865835 0.726804 0
M  V30 39 H -2.658336 4.299941 0.337164 0
M  V30 40 H -4.686454 2.533419 0.676494 0
M  V30 41 H -1.166137 -2.781226 1.933214 0
M  V30 42 H 0.261145 -2.369152 0.998158 0
M  V30 43 H -0.636471 -4.256146 -0.181220 0
M  V30 44 H -1.174361 -2.834391 -1.139253 0
M  V30 45 H -3.151101 -3.225292 2.015209 0
M  V30 46 H -4.331386 -2.904496 0.753384 0
M  V30 47 H -3.520340 -0.907995 0.104096 0
M  V30 48 H -3.058322 -0.976607 1.909549 0
M  V30 END ATOM
M  V30 BEGIN BOND
M  V30 1 2 1 2
M  V30 2 1 2 3
M  V30 3 2 3 4
M  V30 4 1 4 5
M  V30 5 2 5 6
M  V30 6 1 6 7
M  V30 7 2 7 8
M  V30 8 1 2 9
M  V30 9 2 9 10
M  V30 10 1 10 11
M  V30 11 2 11 12
M  V30 12 1 12 13
M  V30 13 2 13 14
M  V30 14 1 2 15
M  V30 15 1 15 16
M  V30 16 2 16 17
M  V30 17 1 17 18
M  V30 18 2 18 19
M  V30 19 1 19 20
M  V30 20 1 15 21
M  V30 21 1 21 22
M  V30 22 1 22 23
M  V30 23 1 23 24
M  V30 24 1 24 25
M  V30 25 1 25 26
M  V30 26 1 8 3
M  V30 27 1 14 9
M  V30 28 1 20 16
M  V30 29 1 26 21
M  V30 30 1 4 27
M  V30 31 1 5 28
M  V30 32 1 6 29
M  V30 33 1 7 30
M  V30 34 1 8 31
M  V30 35 1 10 32
M  V30 36 1 11 33
M  V30 37 1 12 34
M  V30 38 1 13 35
M  V30 39 1 14 36
M  V30 40 1 15 37
M  V30 41 1 17 38
M  V30 42 1 18 39
M  V30 43 1 19 40
M  V30 44 1 22 41
M  V30 45 1 22 42
M  V30 46 1 23 43
M  V30 47 1 23 44
M  V30 48 1 25 45
M  V30 49 1 25 46
M  V30 50 1 26 47
M  V30 51 1 26 48
M  V30 END BOND
M  V30 END CTAB
M  END
>  <Dataset>  (202) 
ChEMBL_Kinases

>  <Ligand_Instance>  (202) 
nan

>  <PDB_ID>  (202) 
nan

>  <Standardized_SMILES>  (202) 
O=P(c1ccccc1)(c1ccccc1)C(c1ccco1)N1CCOCC1

>  <Name>  (202) 
nan

>  <Pocket>  (202) 
nan

>  <ATP_Site>  (202) 
nan

>  <Peripheral>  (202) 
nan

>  <Num_H_Atoms_ProtBoundConf>  (202) 
nan

>  <Num_Resolved_Atoms>  (202) 
nan

>  <Num_Not_Resolved_Atoms>  (202) 
nan

$$$$
CHEMBL1488225
     RDKit          3D

  0  0  0  0  0  0  0  0  0  0999 V3000
M  V30 BEGIN CTAB
M  V30 COUNTS 52 56 0 0 0
M  V30 BEGIN ATOM
M  V30 1 C 4.174761 -2.725533 -2.717536 0
M  V30 2 O 4.242415 -2.175515 -1.412189 0
M  V30 3 C 3.395018 -1.122582 -1.081654 0
M  V30 4 C 2.490656 -0.597849 -1.986896 0
M  V30 5 C 1.662089 0.456658 -1.611267 0
M  V30 6 C 1.713185 1.006731 -0.342582 0
M  V30 7 C 2.615910 0.481817 0.558646 0
M  V30 8 C 3.433958 -0.563232 0.179533 0
M  V30 9 O 4.323318 -1.071748 1.085540 0
M  V30 10 C 4.475746 -0.603095 2.408056 0
M  V30 11 C 0.789839 2.142234 -0.007117 0
M  V30 12 C 0.391272 2.102442 1.435648 0
M  V30 13 O 0.682932 2.886320 2.397549 0
M  V30 14 C -0.480642 0.967516 1.790626 0
M  V30 15 C -0.475867 0.400336 3.062669 0
M  V30 16 O 0.392105 0.945514 4.008205 0
M  V30 17 C -1.291067 -0.661733 3.396703 0
M  V30 18 C -2.131636 -1.164044 2.424010 0
M  V30 19 C -2.146575 -0.611727 1.159725 0
M  V30 20 C -1.334674 0.448850 0.820813 0
M  V30 21 O -1.322938 1.028048 -0.436903 0
M  V30 22 C -0.477259 2.065097 -0.826478 0
M  V30 23 C -0.186081 1.896717 -2.299105 0
M  V30 24 O 0.782196 0.926622 -2.577233 0
M  V30 25 C -3.038368 -1.155716 0.152259 0
M  V30 26 C -3.791641 -2.172149 0.538704 0
M  V30 27 C -3.828161 -2.815766 1.877959 0
M  V30 28 C -5.208852 -2.784826 2.493256 0
M  V30 29 C -3.486707 -4.283845 1.630257 0
M  V30 30 O -2.935815 -2.232799 2.800278 0
M  V30 31 H 3.166199 -3.164903 -2.860529 0
M  V30 32 H 4.996468 -3.455754 -2.860456 0
M  V30 33 H 4.259209 -1.868141 -3.427892 0
M  V30 34 H 2.441227 -1.016784 -2.976458 0
M  V30 35 H 2.618303 0.946688 1.540286 0
M  V30 36 H 3.606575 -0.864702 3.043999 0
M  V30 37 H 5.439414 -0.863874 2.843414 0
M  V30 38 H 4.453578 0.522917 2.351107 0
M  V30 39 H 1.317840 3.071280 -0.225564 0
M  V30 40 H 1.352266 1.057695 3.715992 0
M  V30 41 H -1.212292 -1.025782 4.401297 0
M  V30 42 H -1.015850 3.025142 -0.684852 0
M  V30 43 H -1.133937 1.578477 -2.785004 0
M  V30 44 H 0.071360 2.894263 -2.748573 0
M  V30 45 H -3.077123 -0.755733 -0.832729 0
M  V30 46 H -4.475148 -2.614445 -0.177127 0
M  V30 47 H -5.981758 -3.193186 1.793679 0
M  V30 48 H -5.158073 -3.508257 3.354703 0
M  V30 49 H -5.457862 -1.811854 2.920420 0
M  V30 50 H -3.285518 -4.776052 2.600188 0
M  V30 51 H -2.608338 -4.362505 0.939314 0
M  V30 52 H -4.381314 -4.723775 1.136998 0
M  V30 END ATOM
M  V30 BEGIN BOND
M  V30 1 1 1 2
M  V30 2 1 2 3
M  V30 3 2 3 4
M  V30 4 1 4 5
M  V30 5 2 5 6
M  V30 6 1 6 7
M  V30 7 2 7 8
M  V30 8 1 8 9
M  V30 9 1 9 10
M  V30 10 1 6 11
M  V30 11 1 11 12
M  V30 12 2 12 13
M  V30 13 1 12 14
M  V30 14 2 14 15
M  V30 15 1 15 16
M  V30 16 1 15 17
M  V30 17 2 17 18
M  V30 18 1 18 19
M  V30 19 2 19 20
M  V30 20 1 20 21
M  V30 21 1 21 22
M  V30 22 1 22 23
M  V30 23 1 23 24
M  V30 24 1 19 25
M  V30 25 2 25 26
M  V30 26 1 26 27
M  V30 27 1 27 28
M  V30 28 1 27 29
M  V30 29 1 27 30
M  V30 30 1 8 3
M  V30 31 1 22 11
M  V30 32 1 24 5
M  V30 33 1 20 14
M  V30 34 1 30 18
M  V30 35 1 1 31
M  V30 36 1 1 32
M  V30 37 1 1 33
M  V30 38 1 4 34
M  V30 39 1 7 35
M  V30 40 1 10 36
M  V30 41 1 10 37
M  V30 42 1 10 38
M  V30 43 1 11 39
M  V30 44 1 16 40
M  V30 45 1 17 41
M  V30 46 1 22 42
M  V30 47 1 23 43
M  V30 48 1 23 44
M  V30 49 1 25 45
M  V30 50 1 26 46
M  V30 51 1 28 47
M  V30 52 1 28 48
M  V30 53 1 28 49
M  V30 54 1 29 50
M  V30 55 1 29 51
M  V30 56 1 29 52
M  V30 END BOND
M  V30 END CTAB
M  END
>  <Dataset>  (203) 
ChEMBL_Kinases

>  <Ligand_Instance>  (203) 
nan

>  <PDB_ID>  (203) 
nan

>  <Standardized_SMILES>  (203) 
COc1cc2c(cc1OC)C1C(=O)c3c(O)cc4c(c3OC1CO2)C=CC(C)(C)O4

>  <Name>  (203) 
nan

>  <Pocket>  (203) 
nan

>  <ATP_Site>  (203) 
nan

>  <Peripheral>  (203) 
nan

>  <Num_H_Atoms_ProtBoundConf>  (203) 
nan

>  <Num_Resolved_Atoms>  (203) 
nan

>  <Num_Not_Resolved_Atoms>  (203) 
nan

$$$$
CHEMBL1488081
     RDKit          3D

  0  0  0  0  0  0  0  0  0  0999 V3000
M  V30 BEGIN CTAB
M  V30 COUNTS 35 38 0 0 0
M  V30 BEGIN ATOM
M  V30 1 Cl -2.559134 -6.731373 4.120621 0
M  V30 2 C -1.669609 -5.401577 3.403800 0
M  V30 3 C -1.143628 -5.532122 2.130852 0
M  V30 4 C -0.453967 -4.445825 1.626277 0
M  V30 5 C -0.306104 -3.290896 2.371959 0
M  V30 6 N 0.430558 -2.240926 1.730780 0
M  V30 7 N 1.694595 -2.003447 2.100086 0
M  V30 8 C 2.175475 -0.968346 1.353026 0
M  V30 9 C 1.116678 -0.631000 0.539885 0
M  V30 10 C 1.047849 0.369505 -0.432287 0
M  V30 11 N 2.092396 1.256094 -0.777895 0
M  V30 12 C 2.098900 2.314895 -1.768366 0
M  V30 13 C 1.071663 3.351574 -1.470763 0
M  V30 14 C -0.240719 3.488158 -1.868703 0
M  V30 15 C -0.790108 4.631977 -1.322518 0
M  V30 16 C 0.247981 5.160346 -0.590486 0
M  V30 17 O 1.296529 4.393688 -0.703872 0
M  V30 18 N -0.106251 0.492201 -1.088433 0
M  V30 19 C -1.159281 -0.302186 -0.835662 0
M  V30 20 N -1.145230 -1.292034 0.100831 0
M  V30 21 C 0.013137 -1.424395 0.768054 0
M  V30 22 C -0.851149 -3.197426 3.652330 0
M  V30 23 C -1.547455 -4.266795 4.187134 0
M  V30 24 H -1.311764 -6.473278 1.627552 0
M  V30 25 H -0.045944 -4.559591 0.627230 0
M  V30 26 H 3.146640 -0.496029 1.364449 0
M  V30 27 H 2.971103 1.079798 -0.203396 0
M  V30 28 H 1.897154 1.888310 -2.793617 0
M  V30 29 H 3.083490 2.803301 -1.761310 0
M  V30 30 H -0.744723 2.792362 -2.515269 0
M  V30 31 H -1.802871 4.952991 -1.488055 0
M  V30 32 H 0.162145 6.086498 -0.014976 0
M  V30 33 H -2.112795 -0.204419 -1.374385 0
M  V30 34 H -0.694374 -2.272262 4.165716 0
M  V30 35 H -1.967028 -4.199224 5.168699 0
M  V30 END ATOM
M  V30 BEGIN BOND
M  V30 1 1 1 2
M  V30 2 2 2 3
M  V30 3 1 3 4
M  V30 4 2 4 5
M  V30 5 1 5 6
M  V30 6 1 6 7
M  V30 7 2 7 8
M  V30 8 1 8 9
M  V30 9 2 9 10
M  V30 10 1 10 11
M  V30 11 1 11 12
M  V30 12 1 12 13
M  V30 13 2 13 14
M  V30 14 1 14 15
M  V30 15 2 15 16
M  V30 16 1 16 17
M  V30 17 1 10 18
M  V30 18 2 18 19
M  V30 19 1 19 20
M  V30 20 2 20 21
M  V30 21 1 5 22
M  V30 22 2 22 23
M  V30 23 1 23 2
M  V30 24 1 21 6
M  V30 25 1 21 9
M  V30 26 1 17 13
M  V30 27 1 3 24
M  V30 28 1 4 25
M  V30 29 1 8 26
M  V30 30 1 11 27
M  V30 31 1 12 28
M  V30 32 1 12 29
M  V30 33 1 14 30
M  V30 34 1 15 31
M  V30 35 1 16 32
M  V30 36 1 19 33
M  V30 37 1 22 34
M  V30 38 1 23 35
M  V30 END BOND
M  V30 END CTAB
M  END
>  <Dataset>  (204) 
ChEMBL_Kinases

>  <Ligand_Instance>  (204) 
nan

>  <PDB_ID>  (204) 
nan

>  <Standardized_SMILES>  (204) 
Clc1ccc(-n2ncc3c(NCc4ccco4)ncnc32)cc1

>  <Name>  (204) 
nan

>  <Pocket>  (204) 
nan

>  <ATP_Site>  (204) 
nan

>  <Peripheral>  (204) 
nan

>  <Num_H_Atoms_ProtBoundConf>  (204) 
nan

>  <Num_Resolved_Atoms>  (204) 
nan

>  <Num_Not_Resolved_Atoms>  (204) 
nan

$$$$
CHEMBL1488030
     RDKit          3D

  0  0  0  0  0  0  0  0  0  0999 V3000
M  V30 BEGIN CTAB
M  V30 COUNTS 46 49 0 0 0
M  V30 BEGIN ATOM
M  V30 1 C 1.706469 -6.607575 -2.357202 0
M  V30 2 O 2.814029 -5.748394 -2.536394 0
M  V30 3 C 2.772367 -4.464467 -2.030007 0
M  V30 4 C 3.856022 -3.628648 -2.207127 0
M  V30 5 C 3.889678 -2.333908 -1.730919 0
M  V30 6 C 2.769982 -1.898657 -1.054783 0
M  V30 7 C 1.654104 -2.683139 -0.843642 0
M  V30 8 C 1.659264 -3.974715 -1.336264 0
M  V30 9 C 0.410599 -2.345339 -0.153526 0
M  V30 10 C 0.349057 -0.961752 0.427876 0
M  V30 11 C 1.548712 -0.168962 0.169879 0
M  V30 12 C 1.714143 1.132394 0.590934 0
M  V30 13 C 0.988984 2.172364 1.315048 0
M  V30 14 O 1.388606 3.343341 1.602298 0
M  V30 15 N -0.311299 2.026953 1.821947 0
M  V30 16 C -1.082228 2.991141 2.536577 0
M  V30 17 C -1.286973 2.441602 3.944252 0
M  V30 18 C -2.044589 1.137435 3.934169 0
M  V30 19 C -3.231103 1.135745 3.038945 0
M  V30 20 C -3.558306 2.555896 2.677452 0
M  V30 21 C -2.424730 3.292210 2.001087 0
M  V30 22 N 2.962186 1.476693 0.148784 0
M  V30 23 O 3.492037 0.470522 -0.479503 0
M  V30 24 C 2.692277 -0.549293 -0.501757 0
M  V30 25 H 1.515515 -6.749597 -1.274864 0
M  V30 26 H 0.764816 -6.223807 -2.784658 0
M  V30 27 H 1.879346 -7.594890 -2.809318 0
M  V30 28 H 4.750117 -3.969442 -2.744511 0
M  V30 29 H 4.716311 -1.657130 -1.851099 0
M  V30 30 H 0.838724 -4.699290 -1.236971 0
M  V30 31 H 0.279921 -3.076727 0.697245 0
M  V30 32 H -0.425216 -2.545798 -0.857968 0
M  V30 33 H 0.171354 -0.983412 1.522737 0
M  V30 34 H -0.521564 -0.455898 -0.030823 0
M  V30 35 H -0.850871 1.140917 1.704940 0
M  V30 36 H -0.484882 3.897081 2.636659 0
M  V30 37 H -1.766011 3.162463 4.617982 0
M  V30 38 H -0.283416 2.208282 4.357376 0
M  V30 39 H -2.354510 0.933877 4.965957 0
M  V30 40 H -1.376472 0.292919 3.611573 0
M  V30 41 H -4.109115 0.739804 3.583774 0
M  V30 42 H -3.108756 0.474509 2.163262 0
M  V30 43 H -4.444919 2.616287 1.983264 0
M  V30 44 H -3.908068 3.057500 3.604472 0
M  V30 45 H -2.496028 3.202544 0.878777 0
M  V30 46 H -2.627267 4.371889 2.171972 0
M  V30 END ATOM
M  V30 BEGIN BOND
M  V30 1 1 1 2
M  V30 2 1 2 3
M  V30 3 2 3 4
M  V30 4 1 4 5
M  V30 5 2 5 6
M  V30 6 1 6 7
M  V30 7 2 7 8
M  V30 8 1 7 9
M  V30 9 1 9 10
M  V30 10 1 10 11
M  V30 11 1 11 12
M  V30 12 1 12 13
M  V30 13 2 13 14
M  V30 14 1 13 15
M  V30 15 1 15 16
M  V30 16 1 16 17
M  V30 17 1 17 18
M  V30 18 1 18 19
M  V30 19 1 19 20
M  V30 20 1 20 21
M  V30 21 2 12 22
M  V30 22 1 22 23
M  V30 23 1 23 24
M  V30 24 1 8 3
M  V30 25 2 24 11
M  V30 26 1 24 6
M  V30 27 1 21 16
M  V30 28 1 1 25
M  V30 29 1 1 26
M  V30 30 1 1 27
M  V30 31 1 4 28
M  V30 32 1 5 29
M  V30 33 1 8 30
M  V30 34 1 9 31
M  V30 35 1 9 32
M  V30 36 1 10 33
M  V30 37 1 10 34
M  V30 38 1 15 35
M  V30 39 1 16 36
M  V30 40 1 17 37
M  V30 41 1 17 38
M  V30 42 1 18 39
M  V30 43 1 18 40
M  V30 44 1 19 41
M  V30 45 1 19 42
M  V30 46 1 20 43
M  V30 47 1 20 44
M  V30 48 1 21 45
M  V30 49 1 21 46
M  V30 END BOND
M  V30 END CTAB
M  END
>  <Dataset>  (205) 
ChEMBL_Kinases

>  <Ligand_Instance>  (205) 
nan

>  <PDB_ID>  (205) 
nan

>  <Standardized_SMILES>  (205) 
COc1ccc2c(c1)CCc1c(C(=O)NC3CCCCC3)noc1-2

>  <Name>  (205) 
nan

>  <Pocket>  (205) 
nan

>  <ATP_Site>  (205) 
nan

>  <Peripheral>  (205) 
nan

>  <Num_H_Atoms_ProtBoundConf>  (205) 
nan

>  <Num_Resolved_Atoms>  (205) 
nan

>  <Num_Not_Resolved_Atoms>  (205) 
nan

$$$$
CHEMBL1487992
     RDKit          3D

  0  0  0  0  0  0  0  0  0  0999 V3000
M  V30 BEGIN CTAB
M  V30 COUNTS 45 46 0 0 0
M  V30 BEGIN ATOM
M  V30 1 O -4.060877 0.013057 1.240584 0
M  V30 2 C -2.861879 -0.281109 0.921259 0
M  V30 3 C -2.754039 -1.720507 0.577075 0
M  V30 4 S -1.074819 -2.189942 0.121111 0
M  V30 5 C -1.057354 -3.962222 -0.266218 0
M  V30 6 C 0.302248 -4.417425 -0.658457 0
M  V30 7 C 1.297064 -4.896953 0.168549 0
M  V30 8 C 2.518065 -5.282663 -0.363535 0
M  V30 9 C 2.733632 -5.185897 -1.715956 0
M  V30 10 C 1.771660 -4.713602 -2.582717 0
M  V30 11 C 0.567295 -4.337553 -2.025736 0
M  V30 12 N -1.819782 0.703188 0.921834 0
M  V30 13 C -2.389633 1.958483 1.325881 0
M  V30 14 C -1.422074 3.086906 1.387718 0
M  V30 15 C -0.280867 2.951019 2.310413 0
M  V30 16 N 0.636040 1.865118 2.060051 0
M  V30 17 C 1.618592 1.835602 3.108688 0
M  V30 18 C 2.914956 1.216771 2.794427 0
M  V30 19 O 3.345850 1.346070 1.482914 0
M  V30 20 C 2.679125 2.427739 0.953387 0
M  V30 21 C 1.249251 1.969888 0.746234 0
M  V30 22 H -3.033263 -2.290906 1.487728 0
M  V30 23 H -3.449988 -1.957373 -0.224530 0
M  V30 24 H -1.321859 -4.571403 0.646397 0
M  V30 25 H -1.794742 -4.222033 -1.041267 0
M  V30 26 H 1.035656 -4.936528 1.217763 0
M  V30 27 H 3.272772 -5.653495 0.319838 0
M  V30 28 H 3.697947 -5.488162 -2.154933 0
M  V30 29 H 1.973356 -4.648531 -3.643500 0
M  V30 30 H -0.167235 -3.970536 -2.732481 0
M  V30 31 H -0.963391 0.190754 0.624445 0
M  V30 32 H -3.239230 2.176929 0.611741 0
M  V30 33 H -2.894565 1.899106 2.314647 0
M  V30 34 H -2.017085 3.979411 1.749254 0
M  V30 35 H -1.127993 3.409519 0.350246 0
M  V30 36 H 0.282215 3.906411 2.307992 0
M  V30 37 H -0.673976 2.813221 3.334506 0
M  V30 38 H 1.156398 1.289365 3.982051 0
M  V30 39 H 1.776386 2.862271 3.496447 0
M  V30 40 H 3.735221 1.613682 3.426841 0
M  V30 41 H 2.887271 0.111671 3.008341 0
M  V30 42 H 3.075302 2.784979 -0.018909 0
M  V30 43 H 2.642338 3.256598 1.700973 0
M  V30 44 H 0.780319 2.729866 0.132013 0
M  V30 45 H 1.284528 0.956214 0.317039 0
M  V30 END ATOM
M  V30 BEGIN BOND
M  V30 1 2 1 2
M  V30 2 1 2 3
M  V30 3 1 3 4
M  V30 4 1 4 5
M  V30 5 1 5 6
M  V30 6 2 6 7
M  V30 7 1 7 8
M  V30 8 2 8 9
M  V30 9 1 9 10
M  V30 10 2 10 11
M  V30 11 1 2 12
M  V30 12 1 12 13
M  V30 13 1 13 14
M  V30 14 1 14 15
M  V30 15 1 15 16
M  V30 16 1 16 17
M  V30 17 1 17 18
M  V30 18 1 18 19
M  V30 19 1 19 20
M  V30 20 1 20 21
M  V30 21 1 11 6
M  V30 22 1 21 16
M  V30 23 1 3 22
M  V30 24 1 3 23
M  V30 25 1 5 24
M  V30 26 1 5 25
M  V30 27 1 7 26
M  V30 28 1 8 27
M  V30 29 1 9 28
M  V30 30 1 10 29
M  V30 31 1 11 30
M  V30 32 1 12 31
M  V30 33 1 13 32
M  V30 34 1 13 33
M  V30 35 1 14 34
M  V30 36 1 14 35
M  V30 37 1 15 36
M  V30 38 1 15 37
M  V30 39 1 17 38
M  V30 40 1 17 39
M  V30 41 1 18 40
M  V30 42 1 18 41
M  V30 43 1 20 42
M  V30 44 1 20 43
M  V30 45 1 21 44
M  V30 46 1 21 45
M  V30 END BOND
M  V30 END CTAB
M  END
>  <Dataset>  (206) 
ChEMBL_Kinases

>  <Ligand_Instance>  (206) 
nan

>  <PDB_ID>  (206) 
nan

>  <Standardized_SMILES>  (206) 
O=C(CSCc1ccccc1)NCCCN1CCOCC1

>  <Name>  (206) 
nan

>  <Pocket>  (206) 
nan

>  <ATP_Site>  (206) 
nan

>  <Peripheral>  (206) 
nan

>  <Num_H_Atoms_ProtBoundConf>  (206) 
nan

>  <Num_Resolved_Atoms>  (206) 
nan

>  <Num_Not_Resolved_Atoms>  (206) 
nan

$$$$
CHEMBL1487801
     RDKit          3D

  0  0  0  0  0  0  0  0  0  0999 V3000
M  V30 BEGIN CTAB
M  V30 COUNTS 33 35 0 0 0
M  V30 BEGIN ATOM
M  V30 1 O 1.701438 -1.221940 3.704839 0
M  V30 2 C 0.962358 -2.265975 3.676134 0
M  V30 3 O 1.752265 -2.008163 4.768273 0
M  V30 4 C 0.009212 -2.980910 2.853890 0
M  V30 5 C -0.254260 -2.505034 1.678258 0
M  V30 6 C 0.035079 -1.468326 0.740478 0
M  V30 7 C 1.120151 -0.745789 0.312272 0
M  V30 8 C 2.304200 -1.306604 0.739148 0
M  V30 9 C 3.544942 -0.797387 0.451017 0
M  V30 10 C 3.577751 0.365331 -0.329052 0
M  V30 11 O 4.665252 0.940358 -0.663593 0
M  V30 12 C 2.415689 0.950186 -0.777810 0
M  V30 13 O 2.413153 2.118264 -1.564017 0
M  V30 14 C 1.172124 0.449243 -0.499731 0
M  V30 15 O 0.003718 0.883086 -0.866151 0
M  V30 16 C -1.097830 0.284589 -0.528209 0
M  V30 17 C -2.225991 0.915235 -1.028390 0
M  V30 18 O -2.188677 2.062664 -1.808380 0
M  V30 19 C -3.472133 0.395010 -0.751249 0
M  V30 20 O -4.616677 1.009256 -1.241433 0
M  V30 21 C -3.564922 -0.744329 0.019943 0
M  V30 22 C -2.407501 -1.317155 0.482323 0
M  V30 23 C -1.135997 -0.853411 0.244623 0
M  V30 24 H 2.356576 -2.734448 5.193332 0
M  V30 25 H -0.401684 -3.860464 3.316109 0
M  V30 26 H -0.973789 -3.245110 1.254138 0
M  V30 27 H 2.357779 -2.220183 1.311101 0
M  V30 28 H 4.486185 -1.213136 0.771514 0
M  V30 29 H 1.700584 2.832716 -1.403210 0
M  V30 30 H -2.131604 1.967578 -2.820868 0
M  V30 31 H -5.030403 0.642088 -2.088512 0
M  V30 32 H -4.541904 -1.117506 0.213846 0
M  V30 33 H -2.594106 -2.191808 1.074475 0
M  V30 END ATOM
M  V30 BEGIN BOND
M  V30 1 2 1 2
M  V30 2 1 2 3
M  V30 3 1 2 4
M  V30 4 2 4 5
M  V30 5 1 5 6
M  V30 6 2 6 7
M  V30 7 1 7 8
M  V30 8 2 8 9
M  V30 9 1 9 10
M  V30 10 2 10 11
M  V30 11 1 10 12
M  V30 12 1 12 13
M  V30 13 2 12 14
M  V30 14 1 14 15
M  V30 15 1 15 16
M  V30 16 2 16 17
M  V30 17 1 17 18
M  V30 18 1 17 19
M  V30 19 1 19 20
M  V30 20 2 19 21
M  V30 21 1 21 22
M  V30 22 2 22 23
M  V30 23 1 23 6
M  V30 24 1 14 7
M  V30 25 1 23 16
M  V30 26 1 3 24
M  V30 27 1 4 25
M  V30 28 1 5 26
M  V30 29 1 8 27
M  V30 30 1 9 28
M  V30 31 1 13 29
M  V30 32 1 18 30
M  V30 33 1 20 31
M  V30 34 1 21 32
M  V30 35 1 22 33
M  V30 END BOND
M  V30 END CTAB
M  END
>  <Dataset>  (207) 
ChEMBL_Kinases

>  <Ligand_Instance>  (207) 
nan

>  <PDB_ID>  (207) 
nan

>  <Standardized_SMILES>  (207) 
O=C(O)/C=C\c1c2ccc(=O)c(O)c-2oc2c(O)c(O)ccc12

>  <Name>  (207) 
nan

>  <Pocket>  (207) 
nan

>  <ATP_Site>  (207) 
nan

>  <Peripheral>  (207) 
nan

>  <Num_H_Atoms_ProtBoundConf>  (207) 
nan

>  <Num_Resolved_Atoms>  (207) 
nan

>  <Num_Not_Resolved_Atoms>  (207) 
nan

$$$$
CHEMBL1487742
     RDKit          3D

  0  0  0  0  0  0  0  0  0  0999 V3000
M  V30 BEGIN CTAB
M  V30 COUNTS 35 37 0 0 0
M  V30 BEGIN ATOM
M  V30 1 C 0.805981 -1.786708 5.907434 0
M  V30 2 C 0.866056 -1.350216 4.487154 0
M  V30 3 C 0.735738 -2.275326 3.465751 0
M  V30 4 C 0.785186 -1.915176 2.133944 0
M  V30 5 C 0.969444 -0.597541 1.763687 0
M  V30 6 C 1.040324 -0.084181 0.396812 0
M  V30 7 C 2.041371 0.833697 0.070179 0
M  V30 8 N 1.908575 1.161014 -1.232327 0
M  V30 9 C 0.847639 0.467168 -1.722124 0
M  V30 10 N 0.322397 -0.287519 -0.732338 0
M  V30 11 C -0.780219 -1.197468 -0.675402 0
M  V30 12 C -1.693037 -1.007871 -1.893953 0
M  V30 13 C -2.034518 0.422990 -2.137658 0
M  V30 14 C -1.085926 1.142818 -3.033927 0
M  V30 15 C 0.274376 0.469210 -3.116448 0
M  V30 16 C 1.097151 0.308711 2.825258 0
M  V30 17 C 1.052029 -0.020583 4.165247 0
M  V30 18 H -0.229657 -2.074219 6.221682 0
M  V30 19 H 1.465052 -2.664848 6.096346 0
M  V30 20 H 1.116534 -0.941548 6.543557 0
M  V30 21 H 0.590246 -3.315414 3.694893 0
M  V30 22 H 0.685570 -2.622206 1.334748 0
M  V30 23 H 2.840482 1.293264 0.628058 0
M  V30 24 H -1.392160 -1.134333 0.224271 0
M  V30 25 H -0.355528 -2.230817 -0.792006 0
M  V30 26 H -2.654689 -1.540922 -1.637673 0
M  V30 27 H -1.296210 -1.544152 -2.758856 0
M  V30 28 H -2.169113 0.910931 -1.129195 0
M  V30 29 H -3.049438 0.447791 -2.624510 0
M  V30 30 H -0.884129 2.137764 -2.540018 0
M  V30 31 H -1.482253 1.390247 -4.040215 0
M  V30 32 H 0.263342 -0.514197 -3.581416 0
M  V30 33 H 0.888712 1.137185 -3.772994 0
M  V30 34 H 1.244676 1.363448 2.579054 0
M  V30 35 H 1.160161 0.747553 4.912278 0
M  V30 END ATOM
M  V30 BEGIN BOND
M  V30 1 1 1 2
M  V30 2 2 2 3
M  V30 3 1 3 4
M  V30 4 2 4 5
M  V30 5 1 5 6
M  V30 6 2 6 7
M  V30 7 1 7 8
M  V30 8 2 8 9
M  V30 9 1 9 10
M  V30 10 1 10 11
M  V30 11 1 11 12
M  V30 12 1 12 13
M  V30 13 1 13 14
M  V30 14 1 14 15
M  V30 15 1 5 16
M  V30 16 2 16 17
M  V30 17 1 17 2
M  V30 18 1 10 6
M  V30 19 1 15 9
M  V30 20 1 1 18
M  V30 21 1 1 19
M  V30 22 1 1 20
M  V30 23 1 3 21
M  V30 24 1 4 22
M  V30 25 1 7 23
M  V30 26 1 11 24
M  V30 27 1 11 25
M  V30 28 1 12 26
M  V30 29 1 12 27
M  V30 30 1 13 28
M  V30 31 1 13 29
M  V30 32 1 14 30
M  V30 33 1 14 31
M  V30 34 1 15 32
M  V30 35 1 15 33
M  V30 36 1 16 34
M  V30 37 1 17 35
M  V30 END BOND
M  V30 END CTAB
M  END
>  <Dataset>  (208) 
ChEMBL_Kinases

>  <Ligand_Instance>  (208) 
nan

>  <PDB_ID>  (208) 
nan

>  <Standardized_SMILES>  (208) 
Cc1ccc(-c2cnc3n2CCCCC3)cc1

>  <Name>  (208) 
nan

>  <Pocket>  (208) 
nan

>  <ATP_Site>  (208) 
nan

>  <Peripheral>  (208) 
nan

>  <Num_H_Atoms_ProtBoundConf>  (208) 
nan

>  <Num_Resolved_Atoms>  (208) 
nan

>  <Num_Not_Resolved_Atoms>  (208) 
nan

$$$$
CHEMBL1487734
     RDKit          3D

  0  0  0  0  0  0  0  0  0  0999 V3000
M  V30 BEGIN CTAB
M  V30 COUNTS 41 43 0 0 0
M  V30 BEGIN ATOM
M  V30 1 N -1.078960 -3.080248 1.084177 0
M  V30 2 C -0.096620 -2.222520 1.656858 0
M  V30 3 C 0.998508 -2.069250 0.819402 0
M  V30 4 C 2.099583 -1.284634 1.152568 0
M  V30 5 S 3.482374 -1.074951 0.125298 0
M  V30 6 O 4.754562 -0.917714 0.923236 0
M  V30 7 O 3.643342 -2.337723 -0.676399 0
M  V30 8 N 3.382234 0.222335 -0.946175 0
M  V30 9 C 2.319143 0.172491 -1.901556 0
M  V30 10 C 2.830806 0.919117 -3.131685 0
M  V30 11 O 3.424975 2.093122 -2.741293 0
M  V30 12 C 3.083541 2.519626 -1.477481 0
M  V30 13 C 3.449926 1.532380 -0.382286 0
M  V30 14 C 2.071431 -0.644417 2.374712 0
M  V30 15 C 0.997590 -0.786699 3.210511 0
M  V30 16 C -0.095012 -1.560039 2.889344 0
M  V30 17 O -1.236808 -1.792671 3.628724 0
M  V30 18 C -2.463944 -1.407483 3.121437 0
M  V30 19 C -3.469300 -1.815182 4.004354 0
M  V30 20 C -4.819167 -1.558670 3.747335 0
M  V30 21 C -5.156897 -0.884677 2.588828 0
M  V30 22 F -6.411761 -0.577785 2.226892 0
M  V30 23 C -4.163332 -0.490990 1.733081 0
M  V30 24 C -2.830781 -0.737052 1.974199 0
M  V30 25 H -1.129416 -3.982097 1.583198 0
M  V30 26 H -1.638660 -2.748551 0.252482 0
M  V30 27 H 1.117518 -2.533629 -0.168182 0
M  V30 28 H 2.023433 -0.853469 -2.142698 0
M  V30 29 H 1.431542 0.785623 -1.568769 0
M  V30 30 H 3.647947 0.268715 -3.526232 0
M  V30 31 H 2.063616 1.016265 -3.921263 0
M  V30 32 H 1.991636 2.748042 -1.480170 0
M  V30 33 H 3.674453 3.465403 -1.303284 0
M  V30 34 H 2.720824 1.707276 0.432693 0
M  V30 35 H 4.453434 1.778790 0.012772 0
M  V30 36 H 2.894025 -0.026299 2.683403 0
M  V30 37 H 0.929437 -0.309253 4.170286 0
M  V30 38 H -3.362453 -2.351634 4.950821 0
M  V30 39 H -5.632617 -1.838598 4.372107 0
M  V30 40 H -4.374271 0.035052 0.820975 0
M  V30 41 H -1.973047 -0.474054 1.382866 0
M  V30 END ATOM
M  V30 BEGIN BOND
M  V30 1 1 1 2
M  V30 2 2 2 3
M  V30 3 1 3 4
M  V30 4 1 4 5
M  V30 5 2 5 6
M  V30 6 2 5 7
M  V30 7 1 5 8
M  V30 8 1 8 9
M  V30 9 1 9 10
M  V30 10 1 10 11
M  V30 11 1 11 12
M  V30 12 1 12 13
M  V30 13 2 4 14
M  V30 14 1 14 15
M  V30 15 2 15 16
M  V30 16 1 16 17
M  V30 17 1 17 18
M  V30 18 2 18 19
M  V30 19 1 19 20
M  V30 20 2 20 21
M  V30 21 1 21 22
M  V30 22 1 21 23
M  V30 23 2 23 24
M  V30 24 1 16 2
M  V30 25 1 24 18
M  V30 26 1 13 8
M  V30 27 1 1 25
M  V30 28 1 1 26
M  V30 29 1 3 27
M  V30 30 1 9 28
M  V30 31 1 9 29
M  V30 32 1 10 30
M  V30 33 1 10 31
M  V30 34 1 12 32
M  V30 35 1 12 33
M  V30 36 1 13 34
M  V30 37 1 13 35
M  V30 38 1 14 36
M  V30 39 1 15 37
M  V30 40 1 19 38
M  V30 41 1 20 39
M  V30 42 1 23 40
M  V30 43 1 24 41
M  V30 END BOND
M  V30 END CTAB
M  END
>  <Dataset>  (209) 
ChEMBL_Kinases

>  <Ligand_Instance>  (209) 
nan

>  <PDB_ID>  (209) 
nan

>  <Standardized_SMILES>  (209) 
Nc1cc(S(=O)(=O)N2CCOCC2)ccc1Oc1ccc(F)cc1

>  <Name>  (209) 
nan

>  <Pocket>  (209) 
nan

>  <ATP_Site>  (209) 
nan

>  <Peripheral>  (209) 
nan

>  <Num_H_Atoms_ProtBoundConf>  (209) 
nan

>  <Num_Resolved_Atoms>  (209) 
nan

>  <Num_Not_Resolved_Atoms>  (209) 
nan

$$$$
CHEMBL1481608
     RDKit          3D

  0  0  0  0  0  0  0  0  0  0999 V3000
M  V30 BEGIN CTAB
M  V30 COUNTS 38 41 0 0 0
M  V30 BEGIN ATOM
M  V30 1 O 0.497169 -1.594137 -0.728787 0
M  V30 2 C 0.360362 -0.443783 -0.237781 0
M  V30 3 C 1.559479 0.224730 -0.102554 0
M  V30 4 C 2.849958 -0.332823 -0.484048 0
M  V30 5 C 3.131349 -1.638643 -0.115411 0
M  V30 6 C 4.345536 -2.244378 -0.443375 0
M  V30 7 F 4.628727 -3.529976 -0.083278 0
M  V30 8 C 5.274630 -1.498083 -1.155905 0
M  V30 9 C 5.018284 -0.194060 -1.535392 0
M  V30 10 F 5.941251 0.510325 -2.229114 0
M  V30 11 C 3.804074 0.369039 -1.191149 0
M  V30 12 N 1.532361 1.484407 0.420500 0
M  V30 13 C 0.361547 2.046522 0.789813 0
M  V30 14 C 0.359799 3.319578 1.314726 0
M  V30 15 N -0.829459 3.839563 1.668111 0
M  V30 16 C -1.967703 3.135010 1.510820 0
M  V30 17 N -1.929854 1.894040 0.994936 0
M  V30 18 C -0.784623 1.299236 0.615887 0
M  V30 19 N -0.839186 0.054971 0.108832 0
M  V30 20 C -2.037619 -0.704323 -0.063980 0
M  V30 21 C -2.342045 -1.516081 1.140870 0
M  V30 22 C -3.108078 -1.072966 2.190274 0
M  V30 23 C -3.403198 -1.810496 3.318362 0
M  V30 24 C -2.903428 -3.091646 3.424229 0
M  V30 25 C -2.124854 -3.604856 2.407607 0
M  V30 26 C -1.871870 -2.808682 1.309937 0
M  V30 27 H 2.440011 -2.260086 0.440009 0
M  V30 28 H 6.204389 -2.003124 -1.391330 0
M  V30 29 H 3.579104 1.388161 -1.476384 0
M  V30 30 H 1.290195 3.844811 1.422406 0
M  V30 31 H -2.937650 3.511636 1.779458 0
M  V30 32 H -2.946043 -0.051650 -0.208725 0
M  V30 33 H -1.992806 -1.330477 -0.972842 0
M  V30 34 H -3.527641 -0.077204 2.163216 0
M  V30 35 H -4.021459 -1.390458 4.115654 0
M  V30 36 H -3.132831 -3.671341 4.306240 0
M  V30 37 H -1.745410 -4.603642 2.508739 0
M  V30 38 H -1.257746 -3.270244 0.551609 0
M  V30 END ATOM
M  V30 BEGIN BOND
M  V30 1 2 1 2
M  V30 2 1 2 3
M  V30 3 1 3 4
M  V30 4 2 4 5
M  V30 5 1 5 6
M  V30 6 1 6 7
M  V30 7 2 6 8
M  V30 8 1 8 9
M  V30 9 1 9 10
M  V30 10 2 9 11
M  V30 11 2 3 12
M  V30 12 1 12 13
M  V30 13 2 13 14
M  V30 14 1 14 15
M  V30 15 2 15 16
M  V30 16 1 16 17
M  V30 17 2 17 18
M  V30 18 1 18 19
M  V30 19 1 19 20
M  V30 20 1 20 21
M  V30 21 2 21 22
M  V30 22 1 22 23
M  V30 23 2 23 24
M  V30 24 1 24 25
M  V30 25 2 25 26
M  V30 26 1 19 2
M  V30 27 1 26 21
M  V30 28 1 11 4
M  V30 29 1 18 13
M  V30 30 1 5 27
M  V30 31 1 8 28
M  V30 32 1 11 29
M  V30 33 1 14 30
M  V30 34 1 16 31
M  V30 35 1 20 32
M  V30 36 1 20 33
M  V30 37 1 22 34
M  V30 38 1 23 35
M  V30 39 1 24 36
M  V30 40 1 25 37
M  V30 41 1 26 38
M  V30 END BOND
M  V30 END CTAB
M  END
>  <Dataset>  (210) 
ChEMBL_Kinases

>  <Ligand_Instance>  (210) 
nan

>  <PDB_ID>  (210) 
nan

>  <Standardized_SMILES>  (210) 
O=c1c(-c2cc(F)cc(F)c2)nc2cncnc2n1Cc1ccccc1

>  <Name>  (210) 
nan

>  <Pocket>  (210) 
nan

>  <ATP_Site>  (210) 
nan

>  <Peripheral>  (210) 
nan

>  <Num_H_Atoms_ProtBoundConf>  (210) 
nan

>  <Num_Resolved_Atoms>  (210) 
nan

>  <Num_Not_Resolved_Atoms>  (210) 
nan

$$$$
CHEMBL1486701
     RDKit          3D

  0  0  0  0  0  0  0  0  0  0999 V3000
M  V30 BEGIN CTAB
M  V30 COUNTS 44 46 0 0 0
M  V30 BEGIN ATOM
M  V30 1 C -1.249915 -3.321433 0.827878 0
M  V30 2 C -1.365697 -2.300156 1.888624 0
M  V30 3 C -0.336968 -1.492829 2.191115 0
M  V30 4 C 0.941493 -1.585136 1.489179 0
M  V30 5 O 1.919693 -0.847345 1.748552 0
M  V30 6 O 1.107504 -2.516351 0.492414 0
M  V30 7 C 2.267247 -2.721890 -0.269193 0
M  V30 8 C 2.611114 -1.496364 -1.047414 0
M  V30 9 C 1.496245 -1.019990 -1.935312 0
M  V30 10 C 2.202466 -0.515060 -3.147221 0
M  V30 11 C 3.667937 -0.722252 -2.857790 0
M  V30 12 O 3.750386 -1.647960 -1.829371 0
M  V30 13 C -0.406993 -0.431752 3.263490 0
M  V30 14 C -0.266721 0.936587 2.654009 0
M  V30 15 C 0.800844 1.797231 2.697116 0
M  V30 16 C 0.706715 3.011436 2.056121 0
M  V30 17 C -0.410330 3.421679 1.363732 0
M  V30 18 O -0.406270 4.662536 0.752632 0
M  V30 19 C -1.494794 2.572839 1.307535 0
M  V30 20 C -1.402772 1.354136 1.949761 0
M  V30 21 N -1.699939 -0.419132 3.914401 0
M  V30 22 C -2.822716 -1.243034 3.639854 0
M  V30 23 O -3.897813 -1.123409 4.277277 0
M  V30 24 N -2.613374 -2.186900 2.603446 0
M  V30 25 H -2.232340 -3.865325 0.734896 0
M  V30 26 H -1.095242 -2.832732 -0.156774 0
M  V30 27 H -0.496654 -4.100310 1.027848 0
M  V30 28 H 3.108588 -2.919852 0.437558 0
M  V30 29 H 2.148587 -3.622344 -0.903799 0
M  V30 30 H 2.848985 -0.681706 -0.337854 0
M  V30 31 H 0.745580 -1.803819 -2.173270 0
M  V30 32 H 0.915168 -0.192459 -1.461337 0
M  V30 33 H 1.915433 -1.145270 -4.028199 0
M  V30 34 H 1.956465 0.522668 -3.434753 0
M  V30 35 H 4.092029 0.247491 -2.528976 0
M  V30 36 H 4.204755 -1.104998 -3.749041 0
M  V30 37 H 0.399018 -0.601407 4.015294 0
M  V30 38 H 1.636298 1.417974 3.253683 0
M  V30 39 H 1.572734 3.661869 2.114528 0
M  V30 40 H 0.403492 5.117355 0.398053 0
M  V30 41 H -2.386756 2.866536 0.771417 0
M  V30 42 H -2.304527 0.726338 1.864371 0
M  V30 43 H -1.738621 0.304708 4.661624 0
M  V30 44 H -3.392445 -2.830987 2.341481 0
M  V30 END ATOM
M  V30 BEGIN BOND
M  V30 1 1 1 2
M  V30 2 2 2 3
M  V30 3 1 3 4
M  V30 4 2 4 5
M  V30 5 1 4 6
M  V30 6 1 6 7
M  V30 7 1 7 8
M  V30 8 1 8 9
M  V30 9 1 9 10
M  V30 10 1 10 11
M  V30 11 1 11 12
M  V30 12 1 3 13
M  V30 13 1 13 14
M  V30 14 2 14 15
M  V30 15 1 15 16
M  V30 16 2 16 17
M  V30 17 1 17 18
M  V30 18 1 17 19
M  V30 19 2 19 20
M  V30 20 1 13 21
M  V30 21 1 21 22
M  V30 22 2 22 23
M  V30 23 1 22 24
M  V30 24 1 24 2
M  V30 25 1 12 8
M  V30 26 1 20 14
M  V30 27 1 1 25
M  V30 28 1 1 26
M  V30 29 1 1 27
M  V30 30 1 7 28
M  V30 31 1 7 29
M  V30 32 1 8 30
M  V30 33 1 9 31
M  V30 34 1 9 32
M  V30 35 1 10 33
M  V30 36 1 10 34
M  V30 37 1 11 35
M  V30 38 1 11 36
M  V30 39 1 13 37
M  V30 40 1 15 38
M  V30 41 1 16 39
M  V30 42 1 18 40
M  V30 43 1 19 41
M  V30 44 1 20 42
M  V30 45 1 21 43
M  V30 46 1 24 44
M  V30 END BOND
M  V30 END CTAB
M  END
>  <Dataset>  (211) 
ChEMBL_Kinases

>  <Ligand_Instance>  (211) 
nan

>  <PDB_ID>  (211) 
nan

>  <Standardized_SMILES>  (211) 
CC1=C(C(=O)OCC2CCCO2)C(c2ccc(O)cc2)NC(=O)N1

>  <Name>  (211) 
nan

>  <Pocket>  (211) 
nan

>  <ATP_Site>  (211) 
nan

>  <Peripheral>  (211) 
nan

>  <Num_H_Atoms_ProtBoundConf>  (211) 
nan

>  <Num_Resolved_Atoms>  (211) 
nan

>  <Num_Not_Resolved_Atoms>  (211) 
nan

$$$$
CHEMBL1486796
     RDKit          3D

  0  0  0  0  0  0  0  0  0  0999 V3000
M  V30 BEGIN CTAB
M  V30 COUNTS 25 26 0 0 0
M  V30 BEGIN ATOM
M  V30 1 C 0.086492 -3.186028 5.330131 0
M  V30 2 O -0.417052 -2.048950 4.657974 0
M  V30 3 C 0.093083 -1.621845 3.461395 0
M  V30 4 C 1.110473 -2.118302 2.678087 0
M  V30 5 C 1.517765 -1.582771 1.491439 0
M  V30 6 C 0.912174 -0.459843 0.973893 0
M  V30 7 N 1.214014 0.145182 -0.153019 0
M  V30 8 C 0.539978 1.204331 -0.502342 0
M  V30 9 N 0.716392 1.991834 -1.676912 0
M  V30 10 C -0.046120 1.602054 -2.823358 0
M  V30 11 C -0.011646 2.292759 -4.161291 0
M  V30 12 O -0.822943 0.617350 -2.778038 0
M  V30 13 S -0.671853 1.530399 0.746082 0
M  V30 14 C -0.167596 0.061997 1.811238 0
M  V30 15 C -0.607586 -0.507566 3.082495 0
M  V30 16 H -0.137604 -3.165154 6.414145 0
M  V30 17 H -0.311295 -4.132793 4.891411 0
M  V30 18 H 1.197130 -3.282458 5.215859 0
M  V30 19 H 1.566831 -3.006033 3.117457 0
M  V30 20 H 2.329110 -2.096521 1.006903 0
M  V30 21 H 1.320079 2.836280 -1.875665 0
M  V30 22 H -0.960984 2.825294 -4.367109 0
M  V30 23 H 0.239316 1.552054 -4.976480 0
M  V30 24 H 0.798785 3.048510 -4.171548 0
M  V30 25 H -1.401496 0.095586 3.437216 0
M  V30 END ATOM
M  V30 BEGIN BOND
M  V30 1 1 1 2
M  V30 2 1 2 3
M  V30 3 2 3 4
M  V30 4 1 4 5
M  V30 5 2 5 6
M  V30 6 1 6 7
M  V30 7 2 7 8
M  V30 8 1 8 9
M  V30 9 1 9 10
M  V30 10 1 10 11
M  V30 11 2 10 12
M  V30 12 1 8 13
M  V30 13 1 13 14
M  V30 14 2 14 15
M  V30 15 1 15 3
M  V30 16 1 14 6
M  V30 17 1 1 16
M  V30 18 1 1 17
M  V30 19 1 1 18
M  V30 20 1 4 19
M  V30 21 1 5 20
M  V30 22 1 9 21
M  V30 23 1 11 22
M  V30 24 1 11 23
M  V30 25 1 11 24
M  V30 26 1 15 25
M  V30 END BOND
M  V30 END CTAB
M  END
>  <Dataset>  (212) 
ChEMBL_Kinases

>  <Ligand_Instance>  (212) 
nan

>  <PDB_ID>  (212) 
nan

>  <Standardized_SMILES>  (212) 
COc1ccc2nc(NC(C)=O)sc2c1

>  <Name>  (212) 
nan

>  <Pocket>  (212) 
nan

>  <ATP_Site>  (212) 
nan

>  <Peripheral>  (212) 
nan

>  <Num_H_Atoms_ProtBoundConf>  (212) 
nan

>  <Num_Resolved_Atoms>  (212) 
nan

>  <Num_Not_Resolved_Atoms>  (212) 
nan

$$$$
CHEMBL1486831
     RDKit          3D

  0  0  0  0  0  0  0  0  0  0999 V3000
M  V30 BEGIN CTAB
M  V30 COUNTS 26 29 0 0 0
M  V30 BEGIN ATOM
M  V30 1 F -1.942610 -4.024568 4.336286 0
M  V30 2 C -1.036090 -3.328690 3.608088 0
M  V30 3 C 0.322345 -3.542462 3.753924 0
M  V30 4 C 1.303589 -2.875140 3.050297 0
M  V30 5 C 0.904362 -1.910842 2.119966 0
M  V30 6 N 1.802440 -1.218409 1.395569 0
M  V30 7 C 1.435482 -0.278149 0.487372 0
M  V30 8 N 2.049403 0.550353 -0.357453 0
M  V30 9 C 1.158225 1.289753 -1.042971 0
M  V30 10 C 1.276138 2.270045 -2.013641 0
M  V30 11 C 0.125924 2.838940 -2.518986 0
M  V30 12 C -1.144911 2.479449 -2.104632 0
M  V30 13 C -1.249701 1.496350 -1.131824 0
M  V30 14 C -0.103597 0.921890 -0.620804 0
M  V30 15 C -0.000906 -0.064833 0.345696 0
M  V30 16 N -0.877947 -0.777308 1.088820 0
M  V30 17 C -0.446371 -1.707299 1.983835 0
M  V30 18 C -1.441150 -2.364555 2.678200 0
M  V30 19 H 0.636976 -4.300319 4.485041 0
M  V30 20 H 2.356308 -3.062309 3.184508 0
M  V30 21 H 2.801924 -1.403639 1.530368 0
M  V30 22 H 2.266061 2.586951 -2.372718 0
M  V30 23 H 0.276220 3.607691 -3.282964 0
M  V30 24 H -1.953874 3.014445 -2.592828 0
M  V30 25 H -2.256652 1.239363 -0.830945 0
M  V30 26 H -2.485631 -2.173635 2.539939 0
M  V30 END ATOM
M  V30 BEGIN BOND
M  V30 1 1 1 2
M  V30 2 2 2 3
M  V30 3 1 3 4
M  V30 4 2 4 5
M  V30 5 1 5 6
M  V30 6 1 6 7
M  V30 7 2 7 8
M  V30 8 1 8 9
M  V30 9 2 9 10
M  V30 10 1 10 11
M  V30 11 2 11 12
M  V30 12 1 12 13
M  V30 13 2 13 14
M  V30 14 1 14 15
M  V30 15 2 15 16
M  V30 16 1 16 17
M  V30 17 2 17 18
M  V30 18 1 18 2
M  V30 19 1 17 5
M  V30 20 1 15 7
M  V30 21 1 14 9
M  V30 22 1 3 19
M  V30 23 1 4 20
M  V30 24 1 6 21
M  V30 25 1 10 22
M  V30 26 1 11 23
M  V30 27 1 12 24
M  V30 28 1 13 25
M  V30 29 1 18 26
M  V30 END BOND
M  V30 END CTAB
M  END
>  <Dataset>  (213) 
ChEMBL_Kinases

>  <Ligand_Instance>  (213) 
nan

>  <PDB_ID>  (213) 
nan

>  <Standardized_SMILES>  (213) 
Fc1ccc2[nH]c3nc4ccccc4c-3nc2c1

>  <Name>  (213) 
nan

>  <Pocket>  (213) 
nan

>  <ATP_Site>  (213) 
nan

>  <Peripheral>  (213) 
nan

>  <Num_H_Atoms_ProtBoundConf>  (213) 
nan

>  <Num_Resolved_Atoms>  (213) 
nan

>  <Num_Not_Resolved_Atoms>  (213) 
nan

$$$$
CHEMBL1486857
     RDKit          3D

  0  0  0  0  0  0  0  0  0  0999 V3000
M  V30 BEGIN CTAB
M  V30 COUNTS 56 59 0 0 0
M  V30 BEGIN ATOM
M  V30 1 C 2.945726 -5.903025 3.283194 0
M  V30 2 O 2.554184 -5.431302 2.023442 0
M  V30 3 C 2.704529 -4.129414 1.596369 0
M  V30 4 C 3.257662 -3.110212 2.340418 0
M  V30 5 C 3.399176 -1.811631 1.893492 0
M  V30 6 C 2.948011 -1.550179 0.615572 0
M  V30 7 C 3.055201 -0.202437 0.053546 0
M  V30 8 N 4.005335 0.465237 -0.644145 0
M  V30 9 O 3.579055 1.666711 -0.901309 0
M  V30 10 C 2.375505 1.847432 -0.407458 0
M  V30 11 C 1.445960 3.000009 -0.410839 0
M  V30 12 C 1.157397 3.520928 0.978172 0
M  V30 13 C 0.396524 2.521552 1.803192 0
M  V30 14 C -0.646022 1.761228 1.075690 0
M  V30 15 N -0.795146 1.956463 -0.299580 0
M  V30 16 S -1.377336 0.644904 -1.210512 0
M  V30 17 O -1.481845 1.088271 -2.659850 0
M  V30 18 O -0.506663 -0.552634 -1.188302 0
M  V30 19 C -2.996207 0.151425 -0.710612 0
M  V30 20 C -4.187949 0.631381 -1.215868 0
M  V30 21 C -5.374953 0.138009 -0.713134 0
M  V30 22 C -5.393176 -0.823867 0.282841 0
M  V30 23 C -6.679901 -1.348182 0.816916 0
M  V30 24 C -4.211586 -1.335851 0.821197 0
M  V30 25 Cl -4.199153 -2.544834 2.073201 0
M  V30 26 C -3.049317 -0.810341 0.285014 0
M  V30 27 C 0.117627 2.727563 -1.031861 0
M  V30 28 N 2.039883 0.685515 0.190772 0
M  V30 29 C 2.381023 -2.507799 -0.200587 0
M  V30 30 C 2.276491 -3.791910 0.329064 0
M  V30 31 O 1.712286 -4.777144 -0.463239 0
M  V30 32 C 1.242186 -4.547060 -1.768773 0
M  V30 33 H 2.363286 -6.804846 3.593602 0
M  V30 34 H 4.003835 -6.218711 3.219730 0
M  V30 35 H 2.794037 -5.069096 4.025909 0
M  V30 36 H 3.604346 -3.331396 3.334409 0
M  V30 37 H 3.844508 -1.037345 2.520903 0
M  V30 38 H 1.903075 3.876171 -0.957259 0
M  V30 39 H 0.538512 4.429650 0.855938 0
M  V30 40 H 2.097354 3.793071 1.489457 0
M  V30 41 H 1.152513 1.829562 2.237286 0
M  V30 42 H -0.005265 3.078857 2.676428 0
M  V30 43 H -0.537940 0.673283 1.284855 0
M  V30 44 H -1.641291 2.005340 1.555333 0
M  V30 45 H -4.084740 1.378423 -1.988823 0
M  V30 46 H -6.289454 0.531157 -1.126572 0
M  V30 47 H -7.498814 -1.270050 0.066271 0
M  V30 48 H -6.954431 -0.878002 1.781247 0
M  V30 49 H -6.543504 -2.438331 1.005649 0
M  V30 50 H -2.132210 -1.229705 0.725612 0
M  V30 51 H -0.348305 3.738149 -1.207972 0
M  V30 52 H 0.254926 2.290192 -2.057881 0
M  V30 53 H 2.041207 -2.254690 -1.197697 0
M  V30 54 H 2.091453 -4.483115 -2.498462 0
M  V30 55 H 0.633524 -3.621542 -1.754585 0
M  V30 56 H 0.642370 -5.421695 -2.096557 0
M  V30 END ATOM
M  V30 BEGIN BOND
M  V30 1 1 1 2
M  V30 2 1 2 3
M  V30 3 2 3 4
M  V30 4 1 4 5
M  V30 5 2 5 6
M  V30 6 1 6 7
M  V30 7 2 7 8
M  V30 8 1 8 9
M  V30 9 1 9 10
M  V30 10 1 10 11
M  V30 11 1 11 12
M  V30 12 1 12 13
M  V30 13 1 13 14
M  V30 14 1 14 15
M  V30 15 1 15 16
M  V30 16 2 16 17
M  V30 17 2 16 18
M  V30 18 1 16 19
M  V30 19 2 19 20
M  V30 20 1 20 21
M  V30 21 2 21 22
M  V30 22 1 22 23
M  V30 23 1 22 24
M  V30 24 1 24 25
M  V30 25 2 24 26
M  V30 26 1 15 27
M  V30 27 2 10 28
M  V30 28 1 6 29
M  V30 29 2 29 30
M  V30 30 1 30 31
M  V30 31 1 31 32
M  V30 32 1 30 3
M  V30 33 1 28 7
M  V30 34 1 27 11
M  V30 35 1 26 19
M  V30 36 1 1 33
M  V30 37 1 1 34
M  V30 38 1 1 35
M  V30 39 1 4 36
M  V30 40 1 5 37
M  V30 41 1 11 38
M  V30 42 1 12 39
M  V30 43 1 12 40
M  V30 44 1 13 41
M  V30 45 1 13 42
M  V30 46 1 14 43
M  V30 47 1 14 44
M  V30 48 1 20 45
M  V30 49 1 21 46
M  V30 50 1 23 47
M  V30 51 1 23 48
M  V30 52 1 23 49
M  V30 53 1 26 50
M  V30 54 1 27 51
M  V30 55 1 27 52
M  V30 56 1 29 53
M  V30 57 1 32 54
M  V30 58 1 32 55
M  V30 59 1 32 56
M  V30 END BOND
M  V30 END CTAB
M  END
>  <Dataset>  (214) 
ChEMBL_Kinases

>  <Ligand_Instance>  (214) 
nan

>  <PDB_ID>  (214) 
nan

>  <Standardized_SMILES>  (214) 
COc1ccc(-c2noc(C3CCCN(S(=O)(=O)c4ccc(C)c(Cl)c4)C3)n2)cc1OC

>  <Name>  (214) 
nan

>  <Pocket>  (214) 
nan

>  <ATP_Site>  (214) 
nan

>  <Peripheral>  (214) 
nan

>  <Num_H_Atoms_ProtBoundConf>  (214) 
nan

>  <Num_Resolved_Atoms>  (214) 
nan

>  <Num_Not_Resolved_Atoms>  (214) 
nan

$$$$
CHEMBL1486934
     RDKit          3D

  0  0  0  0  0  0  0  0  0  0999 V3000
M  V30 BEGIN CTAB
M  V30 COUNTS 33 34 0 0 0
M  V30 BEGIN ATOM
M  V30 1 C -0.982969 -3.774520 3.037918 0
M  V30 2 C 0.290220 -3.087779 2.621217 0
M  V30 3 C 0.280634 -2.632373 1.180637 0
M  V30 4 S 1.822578 -1.836764 0.789195 0
M  V30 5 O 1.978168 -0.630270 1.690557 0
M  V30 6 O 2.978940 -2.731111 1.080872 0
M  V30 7 C 1.862633 -1.293770 -0.858288 0
M  V30 8 N 2.326915 -2.108493 -1.841921 0
M  V30 9 N 2.252180 -1.465805 -2.986939 0
M  V30 10 N 1.758173 -0.274075 -2.768004 0
M  V30 11 N 1.511991 -0.148503 -1.465701 0
M  V30 12 C 0.985824 0.893803 -0.654151 0
M  V30 13 C 1.625411 1.848217 0.073679 0
M  V30 14 C 0.898863 2.773922 0.797967 0
M  V30 15 C -0.486699 2.736065 0.787633 0
M  V30 16 C -1.172540 1.768147 0.050010 0
M  V30 17 O -2.546116 1.779277 0.077298 0
M  V30 18 C -3.367171 0.869121 -0.613913 0
M  V30 19 C -0.412547 0.850733 -0.668333 0
M  V30 20 H -1.700426 -3.667980 2.213529 0
M  V30 21 H -1.444122 -3.286511 3.937435 0
M  V30 22 H -0.874314 -4.837197 3.262398 0
M  V30 23 H 1.107079 -3.813462 2.760241 0
M  V30 24 H 0.428161 -2.206380 3.267401 0
M  V30 25 H -0.523221 -1.903301 0.985136 0
M  V30 26 H 0.125582 -3.513189 0.537467 0
M  V30 27 H 2.698247 1.778897 0.005581 0
M  V30 28 H 1.456595 3.503960 1.353750 0
M  V30 29 H -1.015395 3.486377 1.373880 0
M  V30 30 H -2.981878 -0.170049 -0.625414 0
M  V30 31 H -3.550137 1.154547 -1.674535 0
M  V30 32 H -4.343082 0.817061 -0.082792 0
M  V30 33 H -1.046600 0.139335 -1.208702 0
M  V30 END ATOM
M  V30 BEGIN BOND
M  V30 1 1 1 2
M  V30 2 1 2 3
M  V30 3 1 3 4
M  V30 4 2 4 5
M  V30 5 2 4 6
M  V30 6 1 4 7
M  V30 7 2 7 8
M  V30 8 1 8 9
M  V30 9 2 9 10
M  V30 10 1 10 11
M  V30 11 1 11 12
M  V30 12 2 12 13
M  V30 13 1 13 14
M  V30 14 2 14 15
M  V30 15 1 15 16
M  V30 16 1 16 17
M  V30 17 1 17 18
M  V30 18 2 16 19
M  V30 19 1 11 7
M  V30 20 1 19 12
M  V30 21 1 1 20
M  V30 22 1 1 21
M  V30 23 1 1 22
M  V30 24 1 2 23
M  V30 25 1 2 24
M  V30 26 1 3 25
M  V30 27 1 3 26
M  V30 28 1 13 27
M  V30 29 1 14 28
M  V30 30 1 15 29
M  V30 31 1 18 30
M  V30 32 1 18 31
M  V30 33 1 18 32
M  V30 34 1 19 33
M  V30 END BOND
M  V30 END CTAB
M  END
>  <Dataset>  (215) 
ChEMBL_Kinases

>  <Ligand_Instance>  (215) 
nan

>  <PDB_ID>  (215) 
nan

>  <Standardized_SMILES>  (215) 
CCCS(=O)(=O)c1nnnn1-c1cccc(OC)c1

>  <Name>  (215) 
nan

>  <Pocket>  (215) 
nan

>  <ATP_Site>  (215) 
nan

>  <Peripheral>  (215) 
nan

>  <Num_H_Atoms_ProtBoundConf>  (215) 
nan

>  <Num_Resolved_Atoms>  (215) 
nan

>  <Num_Not_Resolved_Atoms>  (215) 
nan

$$$$
CHEMBL1486958
     RDKit          3D

  0  0  0  0  0  0  0  0  0  0999 V3000
M  V30 BEGIN CTAB
M  V30 COUNTS 26 27 0 0 0
M  V30 BEGIN ATOM
M  V30 1 O -0.686977 -1.094127 1.132914 0
M  V30 2 C -0.166132 -1.943290 0.331646 0
M  V30 3 C 0.379489 -3.215602 0.864860 0
M  V30 4 S 2.140868 -2.979301 1.249252 0
M  V30 5 C 2.274326 -1.810064 2.597637 0
M  V30 6 N 3.437796 -1.381830 3.162555 0
M  V30 7 C 3.123545 -0.510310 4.140686 0
M  V30 8 N 1.764882 -0.393816 4.187080 0
M  V30 9 N 1.269942 -1.190574 3.242648 0
M  V30 10 N -0.181955 -1.525068 -1.046192 0
M  V30 11 C -0.808139 -0.223142 -1.082053 0
M  V30 12 C -2.166085 -0.039122 -1.244138 0
M  V30 13 C -2.655279 1.272919 -1.260586 0
M  V30 14 C -1.729447 2.282187 -1.111507 0
M  V30 15 Cl -2.371698 3.931255 -1.136451 0
M  V30 16 C -0.372216 2.106533 -0.949246 0
M  V30 17 Cl 0.729215 3.461182 -0.766193 0
M  V30 18 C 0.111665 0.795274 -0.933469 0
M  V30 19 H 0.194871 -4.034345 0.169723 0
M  V30 20 H -0.131087 -3.413005 1.825425 0
M  V30 21 H 3.666521 0.075592 4.845708 0
M  V30 22 H 1.047263 0.126650 4.737739 0
M  V30 23 H 0.254895 -2.246336 -1.693402 0
M  V30 24 H -2.802221 -0.904898 -1.353040 0
M  V30 25 H -3.713992 1.447105 -1.386704 0
M  V30 26 H 1.165907 0.669204 -0.806747 0
M  V30 END ATOM
M  V30 BEGIN BOND
M  V30 1 2 1 2
M  V30 2 1 2 3
M  V30 3 1 3 4
M  V30 4 1 4 5
M  V30 5 1 5 6
M  V30 6 2 6 7
M  V30 7 1 7 8
M  V30 8 1 8 9
M  V30 9 1 2 10
M  V30 10 1 10 11
M  V30 11 2 11 12
M  V30 12 1 12 13
M  V30 13 2 13 14
M  V30 14 1 14 15
M  V30 15 1 14 16
M  V30 16 1 16 17
M  V30 17 2 16 18
M  V30 18 2 9 5
M  V30 19 1 18 11
M  V30 20 1 3 19
M  V30 21 1 3 20
M  V30 22 1 7 21
M  V30 23 1 8 22
M  V30 24 1 10 23
M  V30 25 1 12 24
M  V30 26 1 13 25
M  V30 27 1 18 26
M  V30 END BOND
M  V30 END CTAB
M  END
>  <Dataset>  (216) 
ChEMBL_Kinases

>  <Ligand_Instance>  (216) 
nan

>  <PDB_ID>  (216) 
nan

>  <Standardized_SMILES>  (216) 
O=C(CSc1nc[nH]n1)Nc1ccc(Cl)c(Cl)c1

>  <Name>  (216) 
nan

>  <Pocket>  (216) 
nan

>  <ATP_Site>  (216) 
nan

>  <Peripheral>  (216) 
nan

>  <Num_H_Atoms_ProtBoundConf>  (216) 
nan

>  <Num_Resolved_Atoms>  (216) 
nan

>  <Num_Not_Resolved_Atoms>  (216) 
nan

$$$$
CHEMBL1487039
     RDKit          3D

  0  0  0  0  0  0  0  0  0  0999 V3000
M  V30 BEGIN CTAB
M  V30 COUNTS 45 46 0 0 0
M  V30 BEGIN ATOM
M  V30 1 C -2.879380 -4.170008 3.440245 0
M  V30 2 C -2.823539 -4.033727 1.947536 0
M  V30 3 N -1.776367 -3.258856 1.427562 0
M  V30 4 C -0.446663 -3.732330 1.535446 0
M  V30 5 C 0.546777 -2.600520 1.181191 0
M  V30 6 N 0.312314 -2.255245 -0.159371 0
M  V30 7 S 1.360201 -1.251831 -0.991064 0
M  V30 8 O 2.711791 -1.948860 -1.085278 0
M  V30 9 O 0.886523 -1.195695 -2.443045 0
M  V30 10 C 1.563165 0.357636 -0.378323 0
M  V30 11 C 1.015117 1.412070 -1.119556 0
M  V30 12 C 1.045710 2.742204 -0.760923 0
M  V30 13 C 0.421873 3.772730 -1.643818 0
M  V30 14 C 1.663949 3.091287 0.426579 0
M  V30 15 O 1.694741 4.428722 0.789325 0
M  V30 16 C 2.332579 4.763298 2.007752 0
M  V30 17 C 2.220470 2.091603 1.193038 0
M  V30 18 C 2.155966 0.784848 0.777730 0
M  V30 19 C 2.812689 -0.246743 1.619734 0
M  V30 20 C -0.998262 -2.430627 -0.672029 0
M  V30 21 C -2.060797 -2.308151 0.419379 0
M  V30 22 H -3.957992 -4.077744 3.764689 0
M  V30 23 H -2.305520 -3.392259 3.973979 0
M  V30 24 H -2.559595 -5.179789 3.768635 0
M  V30 25 H -3.806046 -3.684442 1.539427 0
M  V30 26 H -2.721628 -5.073858 1.525215 0
M  V30 27 H -0.277499 -4.516915 0.767925 0
M  V30 28 H -0.184298 -4.168291 2.510493 0
M  V30 29 H 0.308854 -1.774802 1.893351 0
M  V30 30 H 1.552929 -3.015097 1.313854 0
M  V30 31 H 0.514974 1.184269 -2.067397 0
M  V30 32 H -0.659022 3.525818 -1.822358 0
M  V30 33 H 0.961485 3.756786 -2.625288 0
M  V30 34 H 0.548725 4.770613 -1.201309 0
M  V30 35 H 2.120145 5.828289 2.246266 0
M  V30 36 H 3.426028 4.602952 1.881906 0
M  V30 37 H 1.992128 4.104858 2.816301 0
M  V30 38 H 2.710739 2.327042 2.125432 0
M  V30 39 H 2.157884 -0.466092 2.483309 0
M  V30 40 H 3.748221 0.185491 2.075740 0
M  V30 41 H 3.030076 -1.173438 1.092205 0
M  V30 42 H -1.071417 -3.492492 -1.029295 0
M  V30 43 H -1.273714 -1.786682 -1.504536 0
M  V30 44 H -3.020489 -2.604524 -0.084868 0
M  V30 45 H -2.164991 -1.264500 0.764361 0
M  V30 END ATOM
M  V30 BEGIN BOND
M  V30 1 1 1 2
M  V30 2 1 2 3
M  V30 3 1 3 4
M  V30 4 1 4 5
M  V30 5 1 5 6
M  V30 6 1 6 7
M  V30 7 2 7 8
M  V30 8 2 7 9
M  V30 9 1 7 10
M  V30 10 2 10 11
M  V30 11 1 11 12
M  V30 12 1 12 13
M  V30 13 2 12 14
M  V30 14 1 14 15
M  V30 15 1 15 16
M  V30 16 1 14 17
M  V30 17 2 17 18
M  V30 18 1 18 19
M  V30 19 1 6 20
M  V30 20 1 20 21
M  V30 21 1 21 3
M  V30 22 1 18 10
M  V30 23 1 1 22
M  V30 24 1 1 23
M  V30 25 1 1 24
M  V30 26 1 2 25
M  V30 27 1 2 26
M  V30 28 1 4 27
M  V30 29 1 4 28
M  V30 30 1 5 29
M  V30 31 1 5 30
M  V30 32 1 11 31
M  V30 33 1 13 32
M  V30 34 1 13 33
M  V30 35 1 13 34
M  V30 36 1 16 35
M  V30 37 1 16 36
M  V30 38 1 16 37
M  V30 39 1 17 38
M  V30 40 1 19 39
M  V30 41 1 19 40
M  V30 42 1 19 41
M  V30 43 1 20 42
M  V30 44 1 20 43
M  V30 45 1 21 44
M  V30 46 1 21 45
M  V30 END BOND
M  V30 END CTAB
M  END
>  <Dataset>  (217) 
ChEMBL_Kinases

>  <Ligand_Instance>  (217) 
nan

>  <PDB_ID>  (217) 
nan

>  <Standardized_SMILES>  (217) 
CCN1CCN(S(=O)(=O)c2cc(C)c(OC)cc2C)CC1

>  <Name>  (217) 
nan

>  <Pocket>  (217) 
nan

>  <ATP_Site>  (217) 
nan

>  <Peripheral>  (217) 
nan

>  <Num_H_Atoms_ProtBoundConf>  (217) 
nan

>  <Num_Resolved_Atoms>  (217) 
nan

>  <Num_Not_Resolved_Atoms>  (217) 
nan

$$$$
CHEMBL1487649
     RDKit          3D

  0  0  0  0  0  0  0  0  0  0999 V3000
M  V30 BEGIN CTAB
M  V30 COUNTS 53 57 0 0 0
M  V30 BEGIN ATOM
M  V30 1 O 0.217392 -1.490816 0.828970 0
M  V30 2 C 1.601964 -1.334492 0.598481 0
M  V30 3 C 2.244835 -2.582527 0.220427 0
M  V30 4 C 3.563126 -2.908711 0.446472 0
M  V30 5 C 4.107605 -4.115582 0.059296 0
M  V30 6 C 3.263176 -5.019915 -0.584467 0
M  V30 7 F 3.788718 -6.217464 -0.972811 0
M  V30 8 C 1.921068 -4.723279 -0.830488 0
M  V30 9 C 1.416274 -3.501164 -0.425273 0
M  V30 10 C 1.674591 -0.247381 -0.475638 0
M  V30 11 C 1.273028 1.075182 0.158560 0
M  V30 12 C 2.551341 1.710485 0.723068 0
M  V30 13 C 2.392952 1.616406 2.242192 0
M  V30 14 C 1.407065 0.451844 2.330204 0
M  V30 15 C 2.159930 -0.790530 1.897703 0
M  V30 16 N 0.476861 0.780002 1.301705 0
M  V30 17 C -0.619015 1.590750 1.604706 0
M  V30 18 C -1.456967 1.803593 0.382586 0
M  V30 19 N -1.321107 2.799214 -0.517687 0
M  V30 20 N -2.239133 2.645327 -1.443920 0
M  V30 21 N -2.948808 1.571569 -1.141840 0
M  V30 22 N -2.488975 1.038842 -0.027658 0
M  V30 23 C -3.015851 -0.138275 0.601687 0
M  V30 24 C -4.341651 0.143083 1.267838 0
M  V30 25 C -5.027342 -1.220891 1.173790 0
M  V30 26 C -4.758407 -1.574630 -0.275030 0
M  V30 27 C -3.309699 -1.218580 -0.446880 0
M  V30 28 H 0.010826 -1.563115 1.794783 0
M  V30 29 H 4.188449 -2.204343 0.938600 0
M  V30 30 H 5.147611 -4.326017 0.258650 0
M  V30 31 H 1.303369 -5.467496 -1.338469 0
M  V30 32 H 0.377183 -3.329323 -0.641665 0
M  V30 33 H 0.883946 -0.522361 -1.230335 0
M  V30 34 H 2.648962 -0.217677 -0.971848 0
M  V30 35 H 0.836877 1.772931 -0.561377 0
M  V30 36 H 2.648558 2.762173 0.435865 0
M  V30 37 H 3.453397 1.089641 0.481192 0
M  V30 38 H 3.349914 1.382045 2.748240 0
M  V30 39 H 1.999238 2.542064 2.687497 0
M  V30 40 H 0.974748 0.378689 3.335192 0
M  V30 41 H 1.988066 -1.540949 2.694484 0
M  V30 42 H 3.232192 -0.594591 1.737929 0
M  V30 43 H -1.269562 1.047807 2.321978 0
M  V30 44 H -0.399210 2.563655 2.110391 0
M  V30 45 H -2.358642 -0.557115 1.376743 0
M  V30 46 H -4.960764 0.890928 0.708287 0
M  V30 47 H -4.247594 0.395814 2.343125 0
M  V30 48 H -6.105421 -1.154362 1.411974 0
M  V30 49 H -4.488760 -1.929691 1.836822 0
M  V30 50 H -4.931472 -2.660092 -0.450280 0
M  V30 51 H -5.401637 -0.938361 -0.922045 0
M  V30 52 H -2.700268 -2.135475 -0.253825 0
M  V30 53 H -3.126911 -0.840820 -1.480295 0
M  V30 END ATOM
M  V30 BEGIN BOND
M  V30 1 1 1 2
M  V30 2 1 2 3
M  V30 3 2 3 4
M  V30 4 1 4 5
M  V30 5 2 5 6
M  V30 6 1 6 7
M  V30 7 1 6 8
M  V30 8 2 8 9
M  V30 9 1 2 10
M  V30 10 1 10 11
M  V30 11 1 11 12
M  V30 12 1 12 13
M  V30 13 1 13 14
M  V30 14 1 14 15
M  V30 15 1 14 16
M  V30 16 1 16 17
M  V30 17 1 17 18
M  V30 18 2 18 19
M  V30 19 1 19 20
M  V30 20 2 20 21
M  V30 21 1 21 22
M  V30 22 1 22 23
M  V30 23 1 23 24
M  V30 24 1 24 25
M  V30 25 1 25 26
M  V30 26 1 26 27
M  V30 27 1 15 2
M  V30 28 1 22 18
M  V30 29 1 27 23
M  V30 30 1 9 3
M  V30 31 1 16 11
M  V30 32 1 1 28
M  V30 33 1 4 29
M  V30 34 1 5 30
M  V30 35 1 8 31
M  V30 36 1 9 32
M  V30 37 1 10 33
M  V30 38 1 10 34
M  V30 39 1 11 35
M  V30 40 1 12 36
M  V30 41 1 12 37
M  V30 42 1 13 38
M  V30 43 1 13 39
M  V30 44 1 14 40
M  V30 45 1 15 41
M  V30 46 1 15 42
M  V30 47 1 17 43
M  V30 48 1 17 44
M  V30 49 1 23 45
M  V30 50 1 24 46
M  V30 51 1 24 47
M  V30 52 1 25 48
M  V30 53 1 25 49
M  V30 54 1 26 50
M  V30 55 1 26 51
M  V30 56 1 27 52
M  V30 57 1 27 53
M  V30 END BOND
M  V30 END CTAB
M  END
>  <Dataset>  (218) 
ChEMBL_Kinases

>  <Ligand_Instance>  (218) 
nan

>  <PDB_ID>  (218) 
nan

>  <Standardized_SMILES>  (218) 
OC1(c2ccc(F)cc2)CC2CCC(C1)N2Cc1nnnn1C1CCCC1

>  <Name>  (218) 
nan

>  <Pocket>  (218) 
nan

>  <ATP_Site>  (218) 
nan

>  <Peripheral>  (218) 
nan

>  <Num_H_Atoms_ProtBoundConf>  (218) 
nan

>  <Num_Resolved_Atoms>  (218) 
nan

>  <Num_Not_Resolved_Atoms>  (218) 
nan

$$$$
CHEMBL1487107
     RDKit          3D

  0  0  0  0  0  0  0  0  0  0999 V3000
M  V30 BEGIN CTAB
M  V30 COUNTS 38 40 0 0 0
M  V30 BEGIN ATOM
M  V30 1 O 1.503958 -3.865574 2.580821 0
M  V30 2 C 1.411332 -2.631519 2.884417 0
M  V30 3 C 2.580253 -1.951487 3.488164 0
M  V30 4 S 2.323499 -0.226143 3.869003 0
M  V30 5 C 2.095566 0.761647 2.415456 0
M  V30 6 N 2.036221 0.764038 1.199913 0
M  V30 7 C 1.830853 1.826001 0.460005 0
M  V30 8 C 1.783806 1.680118 -0.991622 0
M  V30 9 C 1.938882 0.500449 -1.676740 0
M  V30 10 C 1.898257 0.343302 -3.035061 0
M  V30 11 C 1.683199 1.455658 -3.812619 0
M  V30 12 C 1.518901 2.668901 -3.209308 0
M  V30 13 C 1.571919 2.754849 -1.829626 0
M  V30 14 C 1.662780 3.073514 1.098704 0
M  V30 15 S 1.827084 2.583261 2.872877 0
M  V30 16 N 0.238006 -1.860397 2.674890 0
M  V30 17 C -1.061854 -2.096235 2.145734 0
M  V30 18 C -1.115864 -1.861657 0.773917 0
M  V30 19 C -2.292975 -2.035593 0.074984 0
M  V30 20 C -3.425774 -2.451811 0.776659 0
M  V30 21 C -3.345532 -2.677069 2.133989 0
M  V30 22 N -4.511158 -3.104296 2.851782 0 CHG=1 VAL=4
M  V30 23 O -5.600523 -3.271416 2.238128 0
M  V30 24 O -4.438699 -3.329952 4.201072 0 CHG=-1 VAL=1
M  V30 25 C -2.179059 -2.506966 2.839352 0
M  V30 26 H 3.384509 -2.014617 2.696915 0
M  V30 27 H 3.008310 -2.475118 4.359419 0
M  V30 28 H 2.111515 -0.405276 -1.088295 0
M  V30 29 H 2.034160 -0.642578 -3.475547 0
M  V30 30 H 1.648428 1.348219 -4.887232 0
M  V30 31 H 1.352710 3.519472 -3.839317 0
M  V30 32 H 1.431131 3.751819 -1.455799 0
M  V30 33 H 1.476496 4.066749 0.531638 0
M  V30 34 H 0.203143 -0.846223 2.939289 0
M  V30 35 H -0.298671 -1.538645 0.141547 0
M  V30 36 H -2.416490 -1.873108 -0.996960 0
M  V30 37 H -4.346901 -2.590895 0.246880 0
M  V30 38 H -2.046700 -2.662557 3.884752 0
M  V30 END ATOM
M  V30 BEGIN BOND
M  V30 1 2 1 2
M  V30 2 1 2 3
M  V30 3 1 3 4
M  V30 4 1 4 5
M  V30 5 2 5 6
M  V30 6 1 6 7
M  V30 7 1 7 8
M  V30 8 2 8 9
M  V30 9 1 9 10
M  V30 10 2 10 11
M  V30 11 1 11 12
M  V30 12 2 12 13
M  V30 13 2 7 14
M  V30 14 1 14 15
M  V30 15 1 2 16
M  V30 16 1 16 17
M  V30 17 2 17 18
M  V30 18 1 18 19
M  V30 19 2 19 20
M  V30 20 1 20 21
M  V30 21 1 21 22
M  V30 22 2 22 23
M  V30 23 1 22 24
M  V30 24 2 21 25
M  V30 25 1 15 5
M  V30 26 1 25 17
M  V30 27 1 13 8
M  V30 28 1 3 26
M  V30 29 1 3 27
M  V30 30 1 9 28
M  V30 31 1 10 29
M  V30 32 1 11 30
M  V30 33 1 12 31
M  V30 34 1 13 32
M  V30 35 1 14 33
M  V30 36 1 16 34
M  V30 37 1 18 35
M  V30 38 1 19 36
M  V30 39 1 20 37
M  V30 40 1 25 38
M  V30 END BOND
M  V30 END CTAB
M  END
>  <Dataset>  (219) 
ChEMBL_Kinases

>  <Ligand_Instance>  (219) 
nan

>  <PDB_ID>  (219) 
nan

>  <Standardized_SMILES>  (219) 
O=C(CSc1nc(-c2ccccc2)cs1)Nc1cccc([N+](=O)[O-])c1

>  <Name>  (219) 
nan

>  <Pocket>  (219) 
nan

>  <ATP_Site>  (219) 
nan

>  <Peripheral>  (219) 
nan

>  <Num_H_Atoms_ProtBoundConf>  (219) 
nan

>  <Num_Resolved_Atoms>  (219) 
nan

>  <Num_Not_Resolved_Atoms>  (219) 
nan

$$$$
CHEMBL1487332
     RDKit          3D

  0  0  0  0  0  0  0  0  0  0999 V3000
M  V30 BEGIN CTAB
M  V30 COUNTS 53 56 0 0 0
M  V30 BEGIN ATOM
M  V30 1 C 5.303111 -5.061327 3.616492 0
M  V30 2 N 4.094753 -4.488161 3.053169 0
M  V30 3 C 4.046556 -3.156313 2.791135 0
M  V30 4 N 5.189867 -2.404119 3.084975 0
M  V30 5 C 2.886290 -2.654185 2.259523 0
M  V30 6 C 2.871873 -1.224806 1.999477 0
M  V30 7 O 3.951930 -0.614929 2.350805 0
M  V30 8 C 2.122540 -0.086107 1.478032 0
M  V30 9 O 0.875721 -0.519515 0.951693 0
M  V30 10 C -0.042753 0.306070 0.408367 0
M  V30 11 O 0.765218 1.233230 0.666970 0
M  V30 12 C -1.288160 0.606292 -0.219442 0
M  V30 13 C -1.553280 1.923843 -0.496860 0
M  V30 14 C -2.736749 2.271641 -1.090696 0
M  V30 15 C -3.078266 3.648528 -1.410340 0
M  V30 16 C -2.264679 4.732305 -1.156082 0
M  V30 17 C -2.590788 6.035714 -1.459806 0
M  V30 18 C -3.803438 6.307129 -2.057886 0
M  V30 19 C -4.656339 5.258905 -2.334672 0
M  V30 20 C -4.268466 3.978473 -2.004747 0
M  V30 21 N -3.622372 1.331960 -1.395418 0
M  V30 22 C -3.434304 0.035641 -1.156754 0
M  V30 23 C -4.371324 -0.942907 -1.483298 0
M  V30 24 C -4.115043 -2.280831 -1.210408 0
M  V30 25 C -2.923614 -2.668418 -0.608638 0
M  V30 26 C -2.045097 -1.649939 -0.313958 0
M  V30 27 C -2.247090 -0.315632 -0.560812 0
M  V30 28 C 1.853158 -3.529278 2.028337 0
M  V30 29 O 0.803643 -3.068018 1.547151 0
M  V30 30 N 1.866001 -4.847265 2.274338 0
M  V30 31 C 0.732596 -5.680668 1.997886 0
M  V30 32 C 3.032906 -5.263956 2.792733 0
M  V30 33 O 3.153131 -6.486608 3.061953 0
M  V30 34 H 5.778829 -5.624805 2.775966 0
M  V30 35 H 6.014965 -4.263499 3.911425 0
M  V30 36 H 5.091414 -5.693300 4.501312 0
M  V30 37 H 5.629877 -2.372402 2.138087 0
M  V30 38 H 5.425318 -2.029968 4.046766 0
M  V30 39 H 2.665699 0.397916 0.609161 0
M  V30 40 H 1.974127 0.681809 2.270162 0
M  V30 41 H -0.857443 2.688998 -0.260563 0
M  V30 42 H -1.316200 4.603318 -0.697951 0
M  V30 43 H -1.926636 6.866382 -1.246004 0
M  V30 44 H -4.093168 7.317369 -2.310549 0
M  V30 45 H -5.614983 5.463913 -2.806392 0
M  V30 46 H -4.993785 3.207845 -2.254197 0
M  V30 47 H -5.282838 -0.590532 -1.950099 0
M  V30 48 H -4.863275 -3.022949 -1.475577 0
M  V30 49 H -2.712466 -3.706645 -0.391190 0
M  V30 50 H -1.119292 -1.920055 0.146618 0
M  V30 51 H -0.238524 -5.136575 2.134096 0
M  V30 52 H 0.775793 -5.981823 0.931430 0
M  V30 53 H 0.741120 -6.625731 2.591881 0
M  V30 END ATOM
M  V30 BEGIN BOND
M  V30 1 1 1 2
M  V30 2 1 2 3
M  V30 3 1 3 4
M  V30 4 2 3 5
M  V30 5 1 5 6
M  V30 6 2 6 7
M  V30 7 1 6 8
M  V30 8 1 8 9
M  V30 9 1 9 10
M  V30 10 2 10 11
M  V30 11 1 10 12
M  V30 12 2 12 13
M  V30 13 1 13 14
M  V30 14 1 14 15
M  V30 15 2 15 16
M  V30 16 1 16 17
M  V30 17 2 17 18
M  V30 18 1 18 19
M  V30 19 2 19 20
M  V30 20 2 14 21
M  V30 21 1 21 22
M  V30 22 2 22 23
M  V30 23 1 23 24
M  V30 24 2 24 25
M  V30 25 1 25 26
M  V30 26 2 26 27
M  V30 27 1 5 28
M  V30 28 2 28 29
M  V30 29 1 28 30
M  V30 30 1 30 31
M  V30 31 1 30 32
M  V30 32 2 32 33
M  V30 33 1 32 2
M  V30 34 1 27 12
M  V30 35 1 20 15
M  V30 36 1 27 22
M  V30 37 1 1 34
M  V30 38 1 1 35
M  V30 39 1 1 36
M  V30 40 1 4 37
M  V30 41 1 4 38
M  V30 42 1 8 39
M  V30 43 1 8 40
M  V30 44 1 13 41
M  V30 45 1 16 42
M  V30 46 1 17 43
M  V30 47 1 18 44
M  V30 48 1 19 45
M  V30 49 1 20 46
M  V30 50 1 23 47
M  V30 51 1 24 48
M  V30 52 1 25 49
M  V30 53 1 26 50
M  V30 54 1 31 51
M  V30 55 1 31 52
M  V30 56 1 31 53
M  V30 END BOND
M  V30 END CTAB
M  END
>  <Dataset>  (220) 
ChEMBL_Kinases

>  <Ligand_Instance>  (220) 
nan

>  <PDB_ID>  (220) 
nan

>  <Standardized_SMILES>  (220) 
Cn1c(N)c(C(=O)COC(=O)c2cc(-c3ccccc3)nc3ccccc23)c(=O)n(C)c1=O

>  <Name>  (220) 
nan

>  <Pocket>  (220) 
nan

>  <ATP_Site>  (220) 
nan

>  <Peripheral>  (220) 
nan

>  <Num_H_Atoms_ProtBoundConf>  (220) 
nan

>  <Num_Resolved_Atoms>  (220) 
nan

>  <Num_Not_Resolved_Atoms>  (220) 
nan

$$$$
CHEMBL1487344
     RDKit          3D

  0  0  0  0  0  0  0  0  0  0999 V3000
M  V30 BEGIN CTAB
M  V30 COUNTS 53 56 0 0 0
M  V30 BEGIN ATOM
M  V30 1 C 4.270219 -5.877858 3.876926 0
M  V30 2 O 3.775239 -5.583960 2.581103 0
M  V30 3 C 3.330872 -4.305933 2.267419 0
M  V30 4 C 3.364853 -3.302952 3.213506 0
M  V30 5 C 2.930055 -2.024425 2.929941 0
M  V30 6 C 2.451419 -1.754194 1.665183 0
M  V30 7 N 1.948625 -0.526572 1.126911 0
M  V30 8 C 2.564943 -0.024669 0.067924 0
M  V30 9 O 3.544772 -0.547213 -0.484533 0
M  V30 10 C 2.055296 1.154728 -0.422250 0
M  V30 11 C 2.631912 1.752280 -1.518142 0
M  V30 12 C 2.147634 2.942259 -2.038236 0
M  V30 13 C 1.041918 3.530202 -1.412895 0
M  V30 14 C 0.499808 2.910134 -0.333112 0
M  V30 15 C 0.967787 1.728140 0.196339 0
M  V30 16 N 0.330589 1.241746 1.262904 0
M  V30 17 C -0.806666 1.781125 1.944726 0
M  V30 18 C -2.085036 1.225910 1.365984 0
M  V30 19 O -2.551626 0.121584 1.825307 0
M  V30 20 N -2.917288 1.745572 0.334452 0
M  V30 21 C -3.999321 0.811094 0.188600 0
M  V30 22 C -5.207495 0.816187 0.844608 0
M  V30 23 C -6.118791 -0.182169 0.557071 0
M  V30 24 C -5.808818 -1.157360 -0.371479 0
M  V30 25 C -4.590132 -1.173069 -1.041456 0
M  V30 26 O -4.377535 -2.195681 -1.954467 0
M  V30 27 C -3.193140 -2.332206 -2.700190 0
M  V30 28 C -3.669229 -0.165396 -0.751845 0
M  V30 29 C 0.888588 0.075214 1.693079 0
M  V30 30 O 0.384451 -0.510222 2.709246 0
M  V30 31 C 2.420271 -2.777362 0.710992 0
M  V30 32 C 2.855965 -4.056769 0.996586 0
M  V30 33 H 3.604494 -5.461462 4.671321 0
M  V30 34 H 4.358646 -6.975896 3.986150 0
M  V30 35 H 5.275965 -5.426018 4.051974 0
M  V30 36 H 3.728821 -3.454948 4.220131 0
M  V30 37 H 2.904185 -1.167301 3.567467 0
M  V30 38 H 3.495619 1.319963 -2.029501 0
M  V30 39 H 2.571002 3.454314 -2.905306 0
M  V30 40 H 0.653211 4.470176 -1.817168 0
M  V30 41 H -0.344333 3.420754 0.097566 0
M  V30 42 H -0.926296 2.862723 1.923044 0
M  V30 43 H -0.771560 1.372592 2.987343 0
M  V30 44 H -2.575283 2.648788 -0.068921 0
M  V30 45 H -5.305173 1.637633 1.538605 0
M  V30 46 H -7.049918 -0.126702 1.102887 0
M  V30 47 H -6.561790 -1.924808 -0.564266 0
M  V30 48 H -2.300233 -2.151085 -2.045116 0
M  V30 49 H -3.234295 -1.663201 -3.579528 0
M  V30 50 H -3.154584 -3.398678 -3.052344 0
M  V30 51 H -2.766703 -0.254711 -1.308614 0
M  V30 52 H 2.062556 -2.671208 -0.314814 0
M  V30 53 H 2.841595 -4.863072 0.276493 0
M  V30 END ATOM
M  V30 BEGIN BOND
M  V30 1 1 1 2
M  V30 2 1 2 3
M  V30 3 2 3 4
M  V30 4 1 4 5
M  V30 5 2 5 6
M  V30 6 1 6 7
M  V30 7 1 7 8
M  V30 8 2 8 9
M  V30 9 1 8 10
M  V30 10 2 10 11
M  V30 11 1 11 12
M  V30 12 2 12 13
M  V30 13 1 13 14
M  V30 14 2 14 15
M  V30 15 1 15 16
M  V30 16 1 16 17
M  V30 17 1 17 18
M  V30 18 2 18 19
M  V30 19 1 18 20
M  V30 20 1 20 21
M  V30 21 2 21 22
M  V30 22 1 22 23
M  V30 23 2 23 24
M  V30 24 1 24 25
M  V30 25 1 25 26
M  V30 26 1 26 27
M  V30 27 2 25 28
M  V30 28 1 16 29
M  V30 29 2 29 30
M  V30 30 1 6 31
M  V30 31 2 31 32
M  V30 32 1 32 3
M  V30 33 1 29 7
M  V30 34 1 15 10
M  V30 35 1 28 21
M  V30 36 1 1 33
M  V30 37 1 1 34
M  V30 38 1 1 35
M  V30 39 1 4 36
M  V30 40 1 5 37
M  V30 41 1 11 38
M  V30 42 1 12 39
M  V30 43 1 13 40
M  V30 44 1 14 41
M  V30 45 1 17 42
M  V30 46 1 17 43
M  V30 47 1 20 44
M  V30 48 1 22 45
M  V30 49 1 23 46
M  V30 50 1 24 47
M  V30 51 1 27 48
M  V30 52 1 27 49
M  V30 53 1 27 50
M  V30 54 1 28 51
M  V30 55 1 31 52
M  V30 56 1 32 53
M  V30 END BOND
M  V30 END CTAB
M  END
>  <Dataset>  (221) 
ChEMBL_Kinases

>  <Ligand_Instance>  (221) 
nan

>  <PDB_ID>  (221) 
nan

>  <Standardized_SMILES>  (221) 
COc1ccc(-n2c(=O)c3ccccc3n(CC(=O)Nc3cccc(OC)c3)c2=O)cc1

>  <Name>  (221) 
nan

>  <Pocket>  (221) 
nan

>  <ATP_Site>  (221) 
nan

>  <Peripheral>  (221) 
nan

>  <Num_H_Atoms_ProtBoundConf>  (221) 
nan

>  <Num_Resolved_Atoms>  (221) 
nan

>  <Num_Not_Resolved_Atoms>  (221) 
nan

$$$$
CHEMBL1487427
     RDKit          3D

  0  0  0  0  0  0  0  0  0  0999 V3000
M  V30 BEGIN CTAB
M  V30 COUNTS 33 34 0 0 0
M  V30 BEGIN ATOM
M  V30 1 C -3.648760 -2.143106 3.507250 0
M  V30 2 O -2.325713 -2.179638 3.988044 0
M  V30 3 C -1.260697 -1.755537 3.211829 0
M  V30 4 C -1.448929 -1.280369 1.937966 0
M  V30 5 C -0.356860 -0.872439 1.211132 0
M  V30 6 C 0.942430 -0.896163 1.651639 0
M  V30 7 C 2.094966 -0.468801 0.879379 0
M  V30 8 O 3.231216 -0.542605 1.463532 0
M  V30 9 C 1.976455 0.031947 -0.520448 0
M  V30 10 C 1.459016 -0.972647 -1.477697 0
M  V30 11 C 0.466132 -0.565893 -2.480047 0
M  V30 12 C -0.075782 0.810492 -2.437489 0
M  V30 13 C 0.885574 1.839875 -1.903183 0
M  V30 14 C 1.284677 1.353990 -0.555280 0
M  V30 15 O 1.077225 1.969994 0.487319 0
M  V30 16 C 1.062178 -1.382803 2.935145 0
M  V30 17 C 0.018675 -1.807879 3.720395 0
M  V30 18 H -3.723890 -2.857023 2.659593 0
M  V30 19 H -4.344711 -2.480223 4.291574 0
M  V30 20 H -3.898221 -1.129091 3.165977 0
M  V30 21 H -2.465621 -1.236292 1.527458 0
M  V30 22 H -0.572398 -0.505225 0.217387 0
M  V30 23 H 3.029873 0.293281 -0.840627 0
M  V30 24 H 1.066950 -1.844458 -0.871269 0
M  V30 25 H 2.320398 -1.457956 -2.033888 0
M  V30 26 H 0.823993 -0.734185 -3.540490 0
M  V30 27 H -0.434296 -1.251146 -2.437236 0
M  V30 28 H -0.950141 0.829374 -1.738955 0
M  V30 29 H -0.507978 1.070347 -3.425369 0
M  V30 30 H 1.727351 2.052917 -2.559357 0
M  V30 31 H 0.306952 2.776860 -1.748939 0
M  V30 32 H 2.031622 -1.461733 3.421285 0
M  V30 33 H 0.149291 -2.185933 4.728479 0
M  V30 END ATOM
M  V30 BEGIN BOND
M  V30 1 1 1 2
M  V30 2 1 2 3
M  V30 3 2 3 4
M  V30 4 1 4 5
M  V30 5 2 5 6
M  V30 6 1 6 7
M  V30 7 2 7 8
M  V30 8 1 7 9
M  V30 9 1 9 10
M  V30 10 1 10 11
M  V30 11 1 11 12
M  V30 12 1 12 13
M  V30 13 1 13 14
M  V30 14 2 14 15
M  V30 15 1 6 16
M  V30 16 2 16 17
M  V30 17 1 17 3
M  V30 18 1 14 9
M  V30 19 1 1 18
M  V30 20 1 1 19
M  V30 21 1 1 20
M  V30 22 1 4 21
M  V30 23 1 5 22
M  V30 24 1 9 23
M  V30 25 1 10 24
M  V30 26 1 10 25
M  V30 27 1 11 26
M  V30 28 1 11 27
M  V30 29 1 12 28
M  V30 30 1 12 29
M  V30 31 1 13 30
M  V30 32 1 13 31
M  V30 33 1 16 32
M  V30 34 1 17 33
M  V30 END BOND
M  V30 END CTAB
M  END
>  <Dataset>  (222) 
ChEMBL_Kinases

>  <Ligand_Instance>  (222) 
nan

>  <PDB_ID>  (222) 
nan

>  <Standardized_SMILES>  (222) 
COc1ccc(C(=O)C2CCCCC2=O)cc1

>  <Name>  (222) 
nan

>  <Pocket>  (222) 
nan

>  <ATP_Site>  (222) 
nan

>  <Peripheral>  (222) 
nan

>  <Num_H_Atoms_ProtBoundConf>  (222) 
nan

>  <Num_Resolved_Atoms>  (222) 
nan

>  <Num_Not_Resolved_Atoms>  (222) 
nan

$$$$
CHEMBL1487447
     RDKit          3D

  0  0  0  0  0  0  0  0  0  0999 V3000
M  V30 BEGIN CTAB
M  V30 COUNTS 41 43 0 0 0
M  V30 BEGIN ATOM
M  V30 1 C -1.166064 -4.932221 1.848244 0
M  V30 2 C -0.157599 -4.159940 2.695503 0
M  V30 3 N -0.073364 -2.785267 2.291411 0
M  V30 4 C 0.898767 -2.520063 1.285581 0
M  V30 5 O 1.666339 -3.369543 0.739769 0
M  V30 6 C 1.294932 -1.301152 0.615123 0
M  V30 7 C 0.550308 -1.069679 -0.547101 0
M  V30 8 C 0.819562 0.072799 -1.304358 0
M  V30 9 C 0.097308 0.322171 -2.455518 0
M  V30 10 C 0.380321 1.453216 -3.184411 0
M  V30 11 C 1.367259 2.290716 -2.742857 0
M  V30 12 C 2.110991 2.087987 -1.609374 0
M  V30 13 O 3.115570 2.913290 -1.133843 0
M  V30 14 C 3.550651 4.100529 -1.724683 0
M  V30 15 C 1.814812 0.935001 -0.876032 0
M  V30 16 O 2.490872 0.672067 0.229855 0
M  V30 17 C 2.254125 -0.392815 0.953626 0
M  V30 18 O 2.878612 -0.678962 2.016713 0
M  V30 19 C -0.906036 -1.779217 2.863760 0
M  V30 20 C -2.148278 -1.327998 2.474107 0
M  V30 21 C -2.757977 -0.332055 3.200362 0
M  V30 22 C -2.185234 0.236545 4.300065 0
M  V30 23 C -0.938626 -0.200678 4.709546 0
M  V30 24 C -0.299845 -1.210056 3.989011 0
M  V30 25 H -1.798241 -5.547680 2.520384 0
M  V30 26 H -1.788385 -4.164592 1.311283 0
M  V30 27 H -0.664536 -5.592925 1.107178 0
M  V30 28 H 0.810442 -4.690694 2.599327 0
M  V30 29 H -0.425939 -4.269940 3.784430 0
M  V30 30 H -0.232740 -1.706793 -0.923717 0
M  V30 31 H -0.696416 -0.356439 -2.805769 0
M  V30 32 H -0.161718 1.685842 -4.092023 0
M  V30 33 H 1.580634 3.176420 -3.324065 0
M  V30 34 H 3.627947 4.870069 -0.902212 0
M  V30 35 H 4.578712 4.027296 -2.139083 0
M  V30 36 H 2.843635 4.522634 -2.455659 0
M  V30 37 H -2.510588 -1.842384 1.595187 0
M  V30 38 H -3.734003 -0.046745 2.812211 0
M  V30 39 H -2.703788 1.016185 4.837890 0
M  V30 40 H -0.503534 0.265253 5.585209 0
M  V30 41 H 0.673949 -1.466235 4.410014 0
M  V30 END ATOM
M  V30 BEGIN BOND
M  V30 1 1 1 2
M  V30 2 1 2 3
M  V30 3 1 3 4
M  V30 4 2 4 5
M  V30 5 1 4 6
M  V30 6 2 6 7
M  V30 7 1 7 8
M  V30 8 2 8 9
M  V30 9 1 9 10
M  V30 10 2 10 11
M  V30 11 1 11 12
M  V30 12 1 12 13
M  V30 13 1 13 14
M  V30 14 2 12 15
M  V30 15 1 15 16
M  V30 16 1 16 17
M  V30 17 2 17 18
M  V30 18 1 3 19
M  V30 19 2 19 20
M  V30 20 1 20 21
M  V30 21 2 21 22
M  V30 22 1 22 23
M  V30 23 2 23 24
M  V30 24 1 17 6
M  V30 25 1 24 19
M  V30 26 1 15 8
M  V30 27 1 1 25
M  V30 28 1 1 26
M  V30 29 1 1 27
M  V30 30 1 2 28
M  V30 31 1 2 29
M  V30 32 1 7 30
M  V30 33 1 9 31
M  V30 34 1 10 32
M  V30 35 1 11 33
M  V30 36 1 14 34
M  V30 37 1 14 35
M  V30 38 1 14 36
M  V30 39 1 20 37
M  V30 40 1 21 38
M  V30 41 1 22 39
M  V30 42 1 23 40
M  V30 43 1 24 41
M  V30 END BOND
M  V30 END CTAB
M  END
>  <Dataset>  (223) 
ChEMBL_Kinases

>  <Ligand_Instance>  (223) 
nan

>  <PDB_ID>  (223) 
nan

>  <Standardized_SMILES>  (223) 
CCN(C(=O)c1cc2cccc(OC)c2oc1=O)c1ccccc1

>  <Name>  (223) 
nan

>  <Pocket>  (223) 
nan

>  <ATP_Site>  (223) 
nan

>  <Peripheral>  (223) 
nan

>  <Num_H_Atoms_ProtBoundConf>  (223) 
nan

>  <Num_Resolved_Atoms>  (223) 
nan

>  <Num_Not_Resolved_Atoms>  (223) 
nan

$$$$
CHEMBL1487527
     RDKit          3D

  0  0  0  0  0  0  0  0  0  0999 V3000
M  V30 BEGIN CTAB
M  V30 COUNTS 44 47 0 0 0
M  V30 BEGIN ATOM
M  V30 1 C -0.980523 -7.646341 -1.265219 0
M  V30 2 C -0.206302 -6.375670 -1.233876 0
M  V30 3 C 1.137951 -6.302645 -1.580276 0
M  V30 4 C 1.844578 -5.116752 -1.546760 0
M  V30 5 N 1.206408 -3.992004 -1.164459 0
M  V30 6 C 1.591763 -2.700866 -1.025091 0
M  V30 7 C 0.496925 -1.976041 -0.595590 0
M  V30 8 C 0.415854 -0.543219 -0.304739 0
M  V30 9 C -0.805283 -0.053762 0.114215 0
M  V30 10 C -0.836544 1.309083 0.378553 0
M  V30 11 C 0.238980 2.183397 0.254746 0
M  V30 12 S 0.015644 3.868203 0.630847 0
M  V30 13 O -1.447488 4.193960 0.389511 0
M  V30 14 O 0.804602 4.738995 -0.304261 0
M  V30 15 N 0.329048 4.246292 2.278142 0
M  V30 16 C 1.671636 3.980812 2.692969 0
M  V30 17 C 1.662510 3.141888 3.977761 0
M  V30 18 O 0.915141 3.870578 4.903096 0
M  V30 19 C -0.412688 3.763469 4.568395 0
M  V30 20 C -0.672627 3.605890 3.089709 0
M  V30 21 C 1.418021 1.606577 -0.169332 0
M  V30 22 C 1.529565 0.259567 -0.452205 0
M  V30 23 N -0.538119 -2.833192 -0.479362 0
M  V30 24 C -0.101729 -4.080502 -0.830640 0
M  V30 25 C -0.873401 -5.232483 -0.840363 0
M  V30 26 H -1.888384 -7.481591 -1.902392 0
M  V30 27 H -0.394727 -8.486828 -1.648167 0
M  V30 28 H -1.341928 -7.887606 -0.249791 0
M  V30 29 H 1.626374 -7.210223 -1.881639 0
M  V30 30 H 2.892745 -5.085411 -1.821670 0
M  V30 31 H 2.578633 -2.323244 -1.218515 0
M  V30 32 H -1.707394 -0.632453 0.247118 0
M  V30 33 H -1.778145 1.726952 0.709187 0
M  V30 34 H 2.102677 4.969145 3.027382 0
M  V30 35 H 2.299287 3.557703 1.908316 0
M  V30 36 H 1.186344 2.158287 3.814440 0
M  V30 37 H 2.726510 3.044302 4.326515 0
M  V30 38 H -0.949274 4.662585 4.967239 0
M  V30 39 H -0.829523 2.867108 5.072970 0
M  V30 40 H -0.744634 2.552179 2.781531 0
M  V30 41 H -1.636830 4.113638 2.885161 0
M  V30 42 H 2.275069 2.267536 -0.274703 0
M  V30 43 H 2.475793 -0.164408 -0.785229 0
M  V30 44 H -1.898629 -5.233722 -0.565932 0
M  V30 END ATOM
M  V30 BEGIN BOND
M  V30 1 1 1 2
M  V30 2 1 2 3
M  V30 3 2 3 4
M  V30 4 1 4 5
M  V30 5 1 5 6
M  V30 6 2 6 7
M  V30 7 1 7 8
M  V30 8 2 8 9
M  V30 9 1 9 10
M  V30 10 2 10 11
M  V30 11 1 11 12
M  V30 12 2 12 13
M  V30 13 2 12 14
M  V30 14 1 12 15
M  V30 15 1 15 16
M  V30 16 1 16 17
M  V30 17 1 17 18
M  V30 18 1 18 19
M  V30 19 1 19 20
M  V30 20 1 11 21
M  V30 21 2 21 22
M  V30 22 1 7 23
M  V30 23 2 23 24
M  V30 24 1 24 25
M  V30 25 2 25 2
M  V30 26 1 24 5
M  V30 27 1 22 8
M  V30 28 1 20 15
M  V30 29 1 1 26
M  V30 30 1 1 27
M  V30 31 1 1 28
M  V30 32 1 3 29
M  V30 33 1 4 30
M  V30 34 1 6 31
M  V30 35 1 9 32
M  V30 36 1 10 33
M  V30 37 1 16 34
M  V30 38 1 16 35
M  V30 39 1 17 36
M  V30 40 1 17 37
M  V30 41 1 19 38
M  V30 42 1 19 39
M  V30 43 1 20 40
M  V30 44 1 20 41
M  V30 45 1 21 42
M  V30 46 1 22 43
M  V30 47 1 25 44
M  V30 END BOND
M  V30 END CTAB
M  END
>  <Dataset>  (224) 
ChEMBL_Kinases

>  <Ligand_Instance>  (224) 
nan

>  <PDB_ID>  (224) 
nan

>  <Standardized_SMILES>  (224) 
Cc1ccn2cc(-c3ccc(S(=O)(=O)N4CCOCC4)cc3)nc2c1

>  <Name>  (224) 
nan

>  <Pocket>  (224) 
nan

>  <ATP_Site>  (224) 
nan

>  <Peripheral>  (224) 
nan

>  <Num_H_Atoms_ProtBoundConf>  (224) 
nan

>  <Num_Resolved_Atoms>  (224) 
nan

>  <Num_Not_Resolved_Atoms>  (224) 
nan

$$$$
CHEMBL1487551
     RDKit          3D

  0  0  0  0  0  0  0  0  0  0999 V3000
M  V30 BEGIN CTAB
M  V30 COUNTS 32 33 0 0 0
M  V30 BEGIN ATOM
M  V30 1 C -2.185632 -2.219121 1.208301 0
M  V30 2 C -1.534249 -2.880310 2.394539 0
M  V30 3 S 0.092614 -2.251056 2.789753 0
M  V30 4 C 1.323443 -2.582423 1.559910 0
M  V30 5 C 2.016044 -3.787683 1.663923 0
M  V30 6 C 2.981442 -4.098797 0.748195 0
M  V30 7 C 3.329931 -3.288399 -0.297481 0
M  V30 8 C 2.634451 -2.084381 -0.396854 0
M  V30 9 C 1.643840 -1.739096 0.522820 0
M  V30 10 C 0.943916 -0.472348 0.388657 0
M  V30 11 O 0.400653 -0.444508 -0.745741 0
M  V30 12 N 0.828662 0.595210 1.290540 0
M  V30 13 C 0.104222 1.782414 1.013480 0
M  V30 14 C -0.590828 2.124194 -0.119921 0
M  V30 15 C -1.133302 3.397176 0.089385 0
M  V30 16 C -1.969409 4.168081 -0.883572 0
M  V30 17 O -0.757415 3.751346 1.288943 0
M  V30 18 N -0.034377 2.825348 1.847894 0
M  V30 19 H -1.456435 -2.096919 0.398588 0
M  V30 20 H -2.601410 -1.211978 1.476045 0
M  V30 21 H -3.083225 -2.805715 0.862948 0
M  V30 22 H -2.184998 -2.674393 3.280808 0
M  V30 23 H -1.547850 -3.994529 2.279714 0
M  V30 24 H 1.838813 -4.517507 2.441237 0
M  V30 25 H 3.534825 -5.045450 0.818452 0
M  V30 26 H 4.092500 -3.512028 -1.038131 0
M  V30 27 H 2.827826 -1.352940 -1.195235 0
M  V30 28 H 1.322806 0.446365 2.188561 0
M  V30 29 H -0.724207 1.566725 -1.015022 0
M  V30 30 H -1.289195 4.821359 -1.483462 0
M  V30 31 H -2.698441 4.793743 -0.361346 0
M  V30 32 H -2.427131 3.443322 -1.608554 0
M  V30 END ATOM
M  V30 BEGIN BOND
M  V30 1 1 1 2
M  V30 2 1 2 3
M  V30 3 1 3 4
M  V30 4 2 4 5
M  V30 5 1 5 6
M  V30 6 2 6 7
M  V30 7 1 7 8
M  V30 8 2 8 9
M  V30 9 1 9 10
M  V30 10 2 10 11
M  V30 11 1 10 12
M  V30 12 1 12 13
M  V30 13 1 13 14
M  V30 14 2 14 15
M  V30 15 1 15 16
M  V30 16 1 15 17
M  V30 17 1 17 18
M  V30 18 1 9 4
M  V30 19 2 18 13
M  V30 20 1 1 19
M  V30 21 1 1 20
M  V30 22 1 1 21
M  V30 23 1 2 22
M  V30 24 1 2 23
M  V30 25 1 5 24
M  V30 26 1 6 25
M  V30 27 1 7 26
M  V30 28 1 8 27
M  V30 29 1 12 28
M  V30 30 1 14 29
M  V30 31 1 16 30
M  V30 32 1 16 31
M  V30 33 1 16 32
M  V30 END BOND
M  V30 END CTAB
M  END
>  <Dataset>  (225) 
ChEMBL_Kinases

>  <Ligand_Instance>  (225) 
nan

>  <PDB_ID>  (225) 
nan

>  <Standardized_SMILES>  (225) 
CCSc1ccccc1C(=O)Nc1cc(C)on1

>  <Name>  (225) 
nan

>  <Pocket>  (225) 
nan

>  <ATP_Site>  (225) 
nan

>  <Peripheral>  (225) 
nan

>  <Num_H_Atoms_ProtBoundConf>  (225) 
nan

>  <Num_Resolved_Atoms>  (225) 
nan

>  <Num_Not_Resolved_Atoms>  (225) 
nan

$$$$
CHEMBL1487575
     RDKit          3D

  0  0  0  0  0  0  0  0  0  0999 V3000
M  V30 BEGIN CTAB
M  V30 COUNTS 46 49 0 0 0
M  V30 BEGIN ATOM
M  V30 1 O 3.546632 -2.627267 -0.589048 0
M  V30 2 C 3.030296 -1.488271 -0.794034 0
M  V30 3 N 3.919109 -0.619444 -1.479621 0
M  V30 4 C 5.254226 -1.067001 -1.866222 0
M  V30 5 C 5.978498 0.030886 -2.567704 0
M  V30 6 C 5.918296 0.202987 -3.936640 0
M  V30 7 C 6.699931 1.302745 -4.232762 0
M  V30 8 C 7.186205 1.724625 -2.995403 0
M  V30 9 O 6.745263 0.956626 -2.028378 0
M  V30 10 C 1.683210 -1.109639 -0.377205 0
M  V30 11 C 1.117556 0.133133 -0.600405 0
M  V30 12 C -0.169277 0.384085 -0.161502 0
M  V30 13 C -0.871897 -0.610614 0.493984 0
M  V30 14 C -2.154570 -0.345653 0.926118 0
M  V30 15 O -2.629107 0.815364 0.695456 0
M  V30 16 N -2.933922 -1.244545 1.578091 0
M  V30 17 C -4.257573 -0.940953 2.007521 0
M  V30 18 C -4.408363 -0.351963 3.354845 0
M  V30 19 C -3.909959 -1.161705 4.504503 0
M  V30 20 C -4.027252 -0.120954 5.631416 0
M  V30 21 C -4.219432 1.163713 4.854871 0
M  V30 22 O -3.746425 0.854840 3.562162 0
M  V30 23 C -2.331734 -2.435727 1.766922 0
M  V30 24 S -3.151584 -3.634860 2.536704 0
M  V30 25 N -1.085214 -2.762845 1.372714 0
M  V30 26 C -0.324805 -1.859493 0.727080 0
M  V30 27 C 0.960819 -2.087810 0.280380 0
M  V30 28 H 3.595134 0.365419 -1.707387 0
M  V30 29 H 5.237234 -2.008223 -2.423304 0
M  V30 30 H 5.774607 -1.279430 -0.899509 0
M  V30 31 H 5.380901 -0.376294 -4.691093 0
M  V30 32 H 6.916583 1.766281 -5.175054 0
M  V30 33 H 7.839110 2.568136 -2.835661 0
M  V30 34 H 1.710622 0.878489 -1.119015 0
M  V30 35 H -0.593848 1.358203 -0.344224 0
M  V30 36 H -4.677167 -0.208389 1.274847 0
M  V30 37 H -4.899853 -1.840618 1.954297 0
M  V30 38 H -5.489473 -0.156698 3.522747 0
M  V30 39 H -4.494401 -2.075679 4.726607 0
M  V30 40 H -2.816060 -1.362417 4.438211 0
M  V30 41 H -3.117664 -0.032161 6.225332 0
M  V30 42 H -4.914320 -0.344636 6.258301 0
M  V30 43 H -3.735610 2.034952 5.301353 0
M  V30 44 H -5.325510 1.319733 4.697032 0
M  V30 45 H -0.669899 -3.689897 1.541889 0
M  V30 46 H 1.348980 -3.063502 0.478687 0
M  V30 END ATOM
M  V30 BEGIN BOND
M  V30 1 2 1 2
M  V30 2 1 2 3
M  V30 3 1 3 4
M  V30 4 1 4 5
M  V30 5 2 5 6
M  V30 6 1 6 7
M  V30 7 2 7 8
M  V30 8 1 8 9
M  V30 9 1 2 10
M  V30 10 2 10 11
M  V30 11 1 11 12
M  V30 12 2 12 13
M  V30 13 1 13 14
M  V30 14 2 14 15
M  V30 15 1 14 16
M  V30 16 1 16 17
M  V30 17 1 17 18
M  V30 18 1 18 19
M  V30 19 1 19 20
M  V30 20 1 20 21
M  V30 21 1 21 22
M  V30 22 1 16 23
M  V30 23 2 23 24
M  V30 24 1 23 25
M  V30 25 1 25 26
M  V30 26 2 26 27
M  V30 27 1 9 5
M  V30 28 1 27 10
M  V30 29 1 26 13
M  V30 30 1 22 18
M  V30 31 1 3 28
M  V30 32 1 4 29
M  V30 33 1 4 30
M  V30 34 1 6 31
M  V30 35 1 7 32
M  V30 36 1 8 33
M  V30 37 1 11 34
M  V30 38 1 12 35
M  V30 39 1 17 36
M  V30 40 1 17 37
M  V30 41 1 18 38
M  V30 42 1 19 39
M  V30 43 1 19 40
M  V30 44 1 20 41
M  V30 45 1 20 42
M  V30 46 1 21 43
M  V30 47 1 21 44
M  V30 48 1 25 45
M  V30 49 1 27 46
M  V30 END BOND
M  V30 END CTAB
M  END
>  <Dataset>  (226) 
ChEMBL_Kinases

>  <Ligand_Instance>  (226) 
nan

>  <PDB_ID>  (226) 
nan

>  <Standardized_SMILES>  (226) 
O=C(NCc1ccco1)c1ccc2c(=O)n(CC3CCCO3)c(=S)[nH]c2c1

>  <Name>  (226) 
nan

>  <Pocket>  (226) 
nan

>  <ATP_Site>  (226) 
nan

>  <Peripheral>  (226) 
nan

>  <Num_H_Atoms_ProtBoundConf>  (226) 
nan

>  <Num_Resolved_Atoms>  (226) 
nan

>  <Num_Not_Resolved_Atoms>  (226) 
nan

$$$$
CHEMBL1487083
     RDKit          3D

  0  0  0  0  0  0  0  0  0  0999 V3000
M  V30 BEGIN CTAB
M  V30 COUNTS 40 42 0 0 0
M  V30 BEGIN ATOM
M  V30 1 C 0.609172 -4.651904 1.194675 0
M  V30 2 C 1.233494 -3.358252 0.844266 0
M  V30 3 C 1.226439 -2.306049 1.736209 0
M  V30 4 C 1.802144 -1.092888 1.429935 0
M  V30 5 C 2.403741 -0.916314 0.201667 0
M  V30 6 S 3.201877 0.497851 -0.446085 0
M  V30 7 O 4.389708 0.104940 -1.288685 0
M  V30 8 O 3.724379 1.282269 0.747796 0
M  V30 9 N 2.185914 1.531023 -1.308247 0
M  V30 10 C 1.550458 1.030150 -2.462607 0
M  V30 11 C 1.556712 2.579242 -0.590991 0
M  V30 12 C 0.241988 2.101520 -0.089398 0
M  V30 13 N -0.184243 1.501644 1.036941 0
M  V30 14 C -1.509798 1.276602 0.986811 0
M  V30 15 C -2.284973 0.636184 2.059447 0
M  V30 16 C -2.175815 -0.732364 2.287915 0
M  V30 17 C -2.931606 -1.295576 3.317806 0
M  V30 18 C -3.744053 -0.449160 4.047181 0
M  V30 19 N -3.840901 0.879840 3.814617 0
M  V30 20 C -3.112112 1.452979 2.813699 0
M  V30 21 N -1.881413 1.760756 -0.212438 0
M  V30 22 O -0.847511 2.242634 -0.836813 0
M  V30 23 C 2.404132 -1.990863 -0.693637 0
M  V30 24 C 1.829497 -3.201393 -0.387633 0
M  V30 25 H 0.342530 -4.637724 2.268926 0
M  V30 26 H -0.355367 -4.803481 0.652057 0
M  V30 27 H 1.295432 -5.512410 1.055427 0
M  V30 28 H 0.770878 -2.374812 2.720373 0
M  V30 29 H 1.857719 -0.204015 2.042752 0
M  V30 30 H 1.025810 0.076758 -2.162816 0
M  V30 31 H 0.751516 1.731372 -2.763772 0
M  V30 32 H 2.238188 0.741142 -3.268297 0
M  V30 33 H 2.211224 2.871926 0.277823 0
M  V30 34 H 1.423847 3.504207 -1.194806 0
M  V30 35 H -1.507590 -1.328938 1.662103 0
M  V30 36 H -2.864088 -2.356864 3.514999 0
M  V30 37 H -4.311616 -0.940885 4.838474 0
M  V30 38 H -3.192501 2.523179 2.629232 0
M  V30 39 H 2.850750 -1.973380 -1.700058 0
M  V30 40 H 1.819516 -4.047390 -1.069019 0
M  V30 END ATOM
M  V30 BEGIN BOND
M  V30 1 1 1 2
M  V30 2 2 2 3
M  V30 3 1 3 4
M  V30 4 2 4 5
M  V30 5 1 5 6
M  V30 6 2 6 7
M  V30 7 2 6 8
M  V30 8 1 6 9
M  V30 9 1 9 10
M  V30 10 1 9 11
M  V30 11 1 11 12
M  V30 12 2 12 13
M  V30 13 1 13 14
M  V30 14 1 14 15
M  V30 15 2 15 16
M  V30 16 1 16 17
M  V30 17 2 17 18
M  V30 18 1 18 19
M  V30 19 2 19 20
M  V30 20 2 14 21
M  V30 21 1 21 22
M  V30 22 1 5 23
M  V30 23 2 23 24
M  V30 24 1 24 2
M  V30 25 1 22 12
M  V30 26 1 20 15
M  V30 27 1 1 25
M  V30 28 1 1 26
M  V30 29 1 1 27
M  V30 30 1 3 28
M  V30 31 1 4 29
M  V30 32 1 10 30
M  V30 33 1 10 31
M  V30 34 1 10 32
M  V30 35 1 11 33
M  V30 36 1 11 34
M  V30 37 1 16 35
M  V30 38 1 17 36
M  V30 39 1 18 37
M  V30 40 1 20 38
M  V30 41 1 23 39
M  V30 42 1 24 40
M  V30 END BOND
M  V30 END CTAB
M  END
>  <Dataset>  (227) 
ChEMBL_Kinases

>  <Ligand_Instance>  (227) 
nan

>  <PDB_ID>  (227) 
nan

>  <Standardized_SMILES>  (227) 
Cc1ccc(S(=O)(=O)N(C)Cc2nc(-c3cccnc3)no2)cc1

>  <Name>  (227) 
nan

>  <Pocket>  (227) 
nan

>  <ATP_Site>  (227) 
nan

>  <Peripheral>  (227) 
nan

>  <Num_H_Atoms_ProtBoundConf>  (227) 
nan

>  <Num_Resolved_Atoms>  (227) 
nan

>  <Num_Not_Resolved_Atoms>  (227) 
nan

$$$$
CHEMBL1492301
     RDKit          3D

  0  0  0  0  0  0  0  0  0  0999 V3000
M  V30 BEGIN CTAB
M  V30 COUNTS 50 54 0 0 0
M  V30 BEGIN ATOM
M  V30 1 O -1.103488 -1.972405 1.873187 0
M  V30 2 C -1.721929 -2.074455 0.765848 0
M  V30 3 C -1.653910 -0.618987 0.633571 0
M  V30 4 N -0.319065 -0.066724 0.691847 0
M  V30 5 C 0.212914 0.244391 1.912444 0
M  V30 6 N 1.457630 0.768793 2.124132 0
M  V30 7 C 2.284106 1.028844 1.107206 0
M  V30 8 C 1.758249 0.718014 -0.132786 0
M  V30 9 N 2.670487 1.019601 -1.093313 0
M  V30 10 N 3.736422 1.504730 -0.457252 0
M  V30 11 N 3.507732 1.510619 0.850892 0
M  V30 12 C 4.411738 1.949278 1.877053 0
M  V30 13 C 4.174309 3.399897 2.150135 0
M  V30 14 C 4.920037 4.227623 1.314465 0
M  V30 15 C 4.818176 5.592543 1.429848 0
M  V30 16 C 3.963977 6.077185 2.388260 0
M  V30 17 F 3.849408 7.434458 2.518082 0
M  V30 18 C 3.210397 5.299726 3.233045 0
M  V30 19 C 3.337853 3.922080 3.089533 0
M  V30 20 C 0.507040 0.191759 -0.334165 0
M  V30 21 O 0.074650 -0.072819 -1.491354 0
M  V30 22 N -2.032815 -3.403491 0.430251 0
M  V30 23 C -1.702765 -4.510625 1.334123 0
M  V30 24 C -2.588223 -5.682165 1.140269 0
M  V30 25 C -3.917772 -5.318125 0.532169 0
M  V30 26 C -3.668444 -4.692513 -0.788558 0
M  V30 27 C -4.320166 -5.006004 -1.938405 0
M  V30 28 C -4.009777 -4.313960 -3.111055 0
M  V30 29 C -3.040729 -3.312540 -3.099797 0
M  V30 30 C -2.349720 -2.964771 -1.932037 0
M  V30 31 C -2.700860 -3.682171 -0.815837 0
M  V30 32 H -2.350706 -0.056051 1.315703 0
M  V30 33 H -2.070205 -0.353169 -0.403505 0
M  V30 34 H -0.407617 0.056608 2.798232 0
M  V30 35 H 5.440549 1.766421 1.477790 0
M  V30 36 H 4.268935 1.392088 2.823078 0
M  V30 37 H 5.607130 3.856720 0.547322 0
M  V30 38 H 5.384712 6.291504 0.796953 0
M  V30 39 H 2.538741 5.677914 3.985223 0
M  V30 40 H 2.817786 3.184750 3.675173 0
M  V30 41 H -1.691588 -4.189040 2.380083 0
M  V30 42 H -0.661312 -4.807696 1.091717 0
M  V30 43 H -2.744561 -6.221693 2.124820 0
M  V30 44 H -2.089438 -6.449951 0.473652 0
M  V30 45 H -4.601390 -6.188649 0.457279 0
M  V30 46 H -4.375492 -4.537629 1.218719 0
M  V30 47 H -5.061571 -5.780232 -1.915063 0
M  V30 48 H -4.511755 -4.541327 -4.038758 0
M  V30 49 H -2.762673 -2.741397 -3.994711 0
M  V30 50 H -1.593480 -2.198397 -1.846242 0
M  V30 END ATOM
M  V30 BEGIN BOND
M  V30 1 2 1 2
M  V30 2 1 2 3
M  V30 3 1 3 4
M  V30 4 1 4 5
M  V30 5 2 5 6
M  V30 6 1 6 7
M  V30 7 2 7 8
M  V30 8 1 8 9
M  V30 9 2 9 10
M  V30 10 1 10 11
M  V30 11 1 11 12
M  V30 12 1 12 13
M  V30 13 2 13 14
M  V30 14 1 14 15
M  V30 15 2 15 16
M  V30 16 1 16 17
M  V30 17 1 16 18
M  V30 18 2 18 19
M  V30 19 1 8 20
M  V30 20 2 20 21
M  V30 21 1 2 22
M  V30 22 1 22 23
M  V30 23 1 23 24
M  V30 24 1 24 25
M  V30 25 1 25 26
M  V30 26 2 26 27
M  V30 27 1 27 28
M  V30 28 2 28 29
M  V30 29 1 29 30
M  V30 30 2 30 31
M  V30 31 1 20 4
M  V30 32 1 31 22
M  V30 33 1 11 7
M  V30 34 1 19 13
M  V30 35 1 31 26
M  V30 36 1 3 32
M  V30 37 1 3 33
M  V30 38 1 5 34
M  V30 39 1 12 35
M  V30 40 1 12 36
M  V30 41 1 14 37
M  V30 42 1 15 38
M  V30 43 1 18 39
M  V30 44 1 19 40
M  V30 45 1 23 41
M  V30 46 1 23 42
M  V30 47 1 24 43
M  V30 48 1 24 44
M  V30 49 1 25 45
M  V30 50 1 25 46
M  V30 51 1 27 47
M  V30 52 1 28 48
M  V30 53 1 29 49
M  V30 54 1 30 50
M  V30 END BOND
M  V30 END CTAB
M  END
>  <Dataset>  (228) 
ChEMBL_Kinases

>  <Ligand_Instance>  (228) 
nan

>  <PDB_ID>  (228) 
nan

>  <Standardized_SMILES>  (228) 
O=C(Cn1cnc2c(nnn2Cc2ccc(F)cc2)c1=O)N1CCCc2ccccc21

>  <Name>  (228) 
nan

>  <Pocket>  (228) 
nan

>  <ATP_Site>  (228) 
nan

>  <Peripheral>  (228) 
nan

>  <Num_H_Atoms_ProtBoundConf>  (228) 
nan

>  <Num_Resolved_Atoms>  (228) 
nan

>  <Num_Not_Resolved_Atoms>  (228) 
nan

$$$$
CHEMBL1491818
     RDKit          3D

  0  0  0  0  0  0  0  0  0  0999 V3000
M  V30 BEGIN CTAB
M  V30 COUNTS 40 44 0 0 0
M  V30 BEGIN ATOM
M  V30 1 O 3.813230 -4.714199 2.775129 0
M  V30 2 C 3.329868 -3.705795 1.962114 0
M  V30 3 C 4.158327 -3.043149 1.070174 0
M  V30 4 C 3.716508 -2.031531 0.239766 0
M  V30 5 C 2.383762 -1.672779 0.312527 0
M  V30 6 C 1.910622 -0.603832 -0.564170 0
M  V30 7 N 2.216893 -0.529517 -1.879636 0
M  V30 8 C 1.619567 0.587139 -2.383474 0
M  V30 9 N 1.590672 1.134635 -3.614533 0
M  V30 10 C 0.914997 2.276564 -3.897278 0
M  V30 11 C 0.228837 2.895686 -2.863738 0
M  V30 12 C 0.264016 2.324658 -1.596911 0
M  V30 13 N 0.954911 1.178834 -1.360779 0
M  V30 14 C 1.104939 0.474107 -0.201420 0
M  V30 15 N 0.560573 0.777059 1.059377 0
M  V30 16 C -0.655467 0.535368 1.719819 0
M  V30 17 C -0.792028 0.952366 3.030013 0
M  V30 18 C -2.000151 0.706271 3.642376 0
M  V30 19 C -3.021087 0.068533 2.960268 0
M  V30 20 C -2.891386 -0.349333 1.653896 0
M  V30 21 C -1.677730 -0.101127 1.042815 0
M  V30 22 O -4.129981 -0.940261 1.335544 0
M  V30 23 C -4.798616 -1.264642 2.531538 0
M  V30 24 O -4.307209 -0.267021 3.406830 0
M  V30 25 C 1.559303 -2.334268 1.202813 0
M  V30 26 C 1.991985 -3.345353 2.034817 0
M  V30 27 H 3.162188 -5.342704 3.218843 0
M  V30 28 H 5.204238 -3.331932 1.022028 0
M  V30 29 H 4.425304 -1.547050 -0.443981 0
M  V30 30 H 0.888239 2.718797 -4.883001 0
M  V30 31 H -0.332699 3.813350 -3.033283 0
M  V30 32 H -0.259297 2.779145 -0.762190 0
M  V30 33 H 1.349318 1.310236 1.513071 0
M  V30 34 H 0.053612 1.452845 3.510737 0
M  V30 35 H -2.094347 1.041574 4.675776 0
M  V30 36 H -1.585005 -0.430300 0.027708 0
M  V30 37 H -4.564866 -2.283187 2.913332 0
M  V30 38 H -5.890935 -1.135808 2.334260 0
M  V30 39 H 0.515605 -2.072236 1.276035 0
M  V30 40 H 1.286769 -3.829583 2.718619 0
M  V30 END ATOM
M  V30 BEGIN BOND
M  V30 1 1 1 2
M  V30 2 2 2 3
M  V30 3 1 3 4
M  V30 4 2 4 5
M  V30 5 1 5 6
M  V30 6 1 6 7
M  V30 7 2 7 8
M  V30 8 1 8 9
M  V30 9 2 9 10
M  V30 10 1 10 11
M  V30 11 2 11 12
M  V30 12 1 12 13
M  V30 13 1 13 14
M  V30 14 1 14 15
M  V30 15 1 15 16
M  V30 16 2 16 17
M  V30 17 1 17 18
M  V30 18 2 18 19
M  V30 19 1 19 20
M  V30 20 2 20 21
M  V30 21 1 20 22
M  V30 22 1 22 23
M  V30 23 1 23 24
M  V30 24 1 5 25
M  V30 25 2 25 26
M  V30 26 1 26 2
M  V30 27 2 14 6
M  V30 28 1 21 16
M  V30 29 1 13 8
M  V30 30 1 24 19
M  V30 31 1 1 27
M  V30 32 1 3 28
M  V30 33 1 4 29
M  V30 34 1 10 30
M  V30 35 1 11 31
M  V30 36 1 12 32
M  V30 37 1 15 33
M  V30 38 1 17 34
M  V30 39 1 18 35
M  V30 40 1 21 36
M  V30 41 1 23 37
M  V30 42 1 23 38
M  V30 43 1 25 39
M  V30 44 1 26 40
M  V30 END BOND
M  V30 END CTAB
M  END
>  <Dataset>  (229) 
ChEMBL_Kinases

>  <Ligand_Instance>  (229) 
nan

>  <PDB_ID>  (229) 
nan

>  <Standardized_SMILES>  (229) 
Oc1ccc(-c2nc3ncccn3c2Nc2ccc3c(c2)OCO3)cc1

>  <Name>  (229) 
nan

>  <Pocket>  (229) 
nan

>  <ATP_Site>  (229) 
nan

>  <Peripheral>  (229) 
nan

>  <Num_H_Atoms_ProtBoundConf>  (229) 
nan

>  <Num_Resolved_Atoms>  (229) 
nan

>  <Num_Not_Resolved_Atoms>  (229) 
nan

$$$$
CHEMBL1491664
     RDKit          3D

  0  0  0  0  0  0  0  0  0  0999 V3000
M  V30 BEGIN CTAB
M  V30 COUNTS 27 29 0 0 0
M  V30 BEGIN ATOM
M  V30 1 N -0.266728 -3.655033 3.015419 0
M  V30 2 C 0.699479 -3.270940 4.001440 0
M  V30 3 O 0.694795 -4.078071 4.986821 0
M  V30 4 C 1.550456 -2.057535 3.793825 0
M  V30 5 N 1.224940 -1.434845 2.536592 0
M  V30 6 N 0.280612 -0.512142 2.528776 0
M  V30 7 C -0.077967 0.113400 1.393643 0
M  V30 8 S -1.373057 1.437234 1.143014 0
M  V30 9 C -1.044526 1.547765 -0.629774 0
M  V30 10 C -1.658767 2.361036 -1.511457 0
M  V30 11 C -1.273903 2.306548 -2.831414 0
M  V30 12 C -0.276673 1.400924 -3.106388 0
M  V30 13 C 0.327711 0.587583 -2.184868 0
M  V30 14 C -0.041846 0.625122 -0.856551 0
M  V30 15 N 0.435472 -0.087923 0.162067 0
M  V30 16 C 1.394766 -1.028287 0.182469 0
M  V30 17 O 2.005542 -1.371835 -0.854484 0
M  V30 18 C 1.754998 -1.657945 1.327928 0
M  V30 19 O 2.668722 -2.544327 1.309051 0
M  V30 20 H -1.063076 -3.012975 3.200171 0
M  V30 21 H -1.208947 -3.238488 2.876991 0
M  V30 22 H 1.501291 -1.352007 4.643872 0
M  V30 23 H 2.601574 -2.445772 3.810685 0
M  V30 24 H -2.420185 3.024866 -1.187722 0
M  V30 25 H -1.747144 2.940192 -3.539809 0
M  V30 26 H 0.049642 1.338875 -4.160400 0
M  V30 27 H 1.108478 -0.079782 -2.571662 0
M  V30 END ATOM
M  V30 BEGIN BOND
M  V30 1 1 1 2
M  V30 2 2 2 3
M  V30 3 1 2 4
M  V30 4 1 4 5
M  V30 5 1 5 6
M  V30 6 2 6 7
M  V30 7 1 7 8
M  V30 8 1 8 9
M  V30 9 2 9 10
M  V30 10 1 10 11
M  V30 11 2 11 12
M  V30 12 1 12 13
M  V30 13 2 13 14
M  V30 14 1 14 15
M  V30 15 1 15 16
M  V30 16 2 16 17
M  V30 17 1 16 18
M  V30 18 2 18 19
M  V30 19 1 18 5
M  V30 20 1 15 7
M  V30 21 1 14 9
M  V30 22 1 1 20
M  V30 23 1 1 21
M  V30 24 1 4 22
M  V30 25 1 4 23
M  V30 26 1 10 24
M  V30 27 1 11 25
M  V30 28 1 12 26
M  V30 29 1 13 27
M  V30 END BOND
M  V30 END CTAB
M  END
>  <Dataset>  (230) 
ChEMBL_Kinases

>  <Ligand_Instance>  (230) 
nan

>  <PDB_ID>  (230) 
nan

>  <Standardized_SMILES>  (230) 
NC(=O)Cn1nc2sc3ccccc3n2c(=O)c1=O

>  <Name>  (230) 
nan

>  <Pocket>  (230) 
nan

>  <ATP_Site>  (230) 
nan

>  <Peripheral>  (230) 
nan

>  <Num_H_Atoms_ProtBoundConf>  (230) 
nan

>  <Num_Resolved_Atoms>  (230) 
nan

>  <Num_Not_Resolved_Atoms>  (230) 
nan

$$$$
CHEMBL1491633
     RDKit          3D

  0  0  0  0  0  0  0  0  0  0999 V3000
M  V30 BEGIN CTAB
M  V30 COUNTS 55 58 0 0 0
M  V30 BEGIN ATOM
M  V30 1 C 3.388529 -3.649826 2.520599 0
M  V30 2 C 2.279235 -3.065179 3.376129 0
M  V30 3 N 1.134399 -2.677941 2.580940 0
M  V30 4 C 0.917578 -1.474918 2.010009 0
M  V30 5 C 1.784517 -0.277625 2.057593 0
M  V30 6 C 2.786583 -0.225076 0.926569 0
M  V30 7 C 2.108296 -0.205682 -0.424030 0
M  V30 8 C 1.217382 0.974363 -0.575320 0
M  V30 9 N 0.867253 2.024281 0.188865 0
M  V30 10 C -0.002190 2.814656 -0.466433 0
M  V30 11 C -0.639047 3.986812 -0.112871 0
M  V30 12 O -0.387167 4.442380 1.038891 0
M  V30 13 N -1.481014 4.601388 -0.959416 0
M  V30 14 C -2.144165 5.827810 -0.582980 0
M  V30 15 C -1.662921 4.009655 -2.160388 0
M  V30 16 O -2.447830 4.552744 -2.991495 0
M  V30 17 N -1.045880 2.865130 -2.515371 0
M  V30 18 C -1.310535 2.313562 -3.827941 0
M  V30 19 C -0.187719 2.208677 -1.694777 0
M  V30 20 N 0.553966 1.088422 -1.762512 0
M  V30 21 N -0.273534 -1.506548 1.344353 0
M  V30 22 C -0.812783 -2.721377 1.489676 0
M  V30 23 C 0.069351 -3.440091 2.258792 0
M  V30 24 C -0.277248 -4.739493 2.545140 0
M  V30 25 O 0.479201 -5.465251 3.245389 0
M  V30 26 N -1.443419 -5.211883 2.057666 0
M  V30 27 C -1.836570 -6.574872 2.341187 0
M  V30 28 C -2.292562 -4.500467 1.310035 0
M  V30 29 O -3.377127 -4.938597 0.856231 0
M  V30 30 N -1.981425 -3.213679 1.008206 0
M  V30 31 C -2.847079 -2.372791 0.203025 0
M  V30 32 H 3.219754 -3.506548 1.442627 0
M  V30 33 H 4.371856 -3.207398 2.781104 0
M  V30 34 H 3.453750 -4.741677 2.765166 0
M  V30 35 H 2.683768 -2.133045 3.822873 0
M  V30 36 H 1.988887 -3.711918 4.208377 0
M  V30 37 H 2.381306 -0.245216 3.004256 0
M  V30 38 H 1.152122 0.620790 2.088747 0
M  V30 39 H 3.516641 -1.031032 0.963861 0
M  V30 40 H 3.323212 0.740642 1.026933 0
M  V30 41 H 1.490862 -1.107231 -0.574107 0
M  V30 42 H 2.883746 -0.127772 -1.205982 0
M  V30 43 H -3.059432 5.615859 0.025809 0
M  V30 44 H -2.357991 6.497686 -1.441241 0
M  V30 45 H -1.505414 6.448999 0.102824 0
M  V30 46 H -0.926882 1.277175 -3.917719 0
M  V30 47 H -0.782407 2.897609 -4.628539 0
M  V30 48 H -2.410075 2.289067 -4.054759 0
M  V30 49 H 0.531002 0.508262 -2.624394 0
M  V30 50 H -0.987876 -7.177788 2.734886 0
M  V30 51 H -2.143385 -7.073263 1.379857 0
M  V30 52 H -2.735102 -6.626272 2.984325 0
M  V30 53 H -3.508035 -3.047275 -0.379801 0
M  V30 54 H -2.252789 -1.798708 -0.508269 0
M  V30 55 H -3.518509 -1.750467 0.824650 0
M  V30 END ATOM
M  V30 BEGIN BOND
M  V30 1 1 1 2
M  V30 2 1 2 3
M  V30 3 1 3 4
M  V30 4 1 4 5
M  V30 5 1 5 6
M  V30 6 1 6 7
M  V30 7 1 7 8
M  V30 8 2 8 9
M  V30 9 1 9 10
M  V30 10 1 10 11
M  V30 11 2 11 12
M  V30 12 1 11 13
M  V30 13 1 13 14
M  V30 14 1 13 15
M  V30 15 2 15 16
M  V30 16 1 15 17
M  V30 17 1 17 18
M  V30 18 1 17 19
M  V30 19 1 19 20
M  V30 20 2 4 21
M  V30 21 1 21 22
M  V30 22 2 22 23
M  V30 23 1 23 24
M  V30 24 2 24 25
M  V30 25 1 24 26
M  V30 26 1 26 27
M  V30 27 1 26 28
M  V30 28 2 28 29
M  V30 29 1 28 30
M  V30 30 1 30 31
M  V30 31 1 23 3
M  V30 32 1 20 8
M  V30 33 1 30 22
M  V30 34 2 19 10
M  V30 35 1 1 32
M  V30 36 1 1 33
M  V30 37 1 1 34
M  V30 38 1 2 35
M  V30 39 1 2 36
M  V30 40 1 5 37
M  V30 41 1 5 38
M  V30 42 1 6 39
M  V30 43 1 6 40
M  V30 44 1 7 41
M  V30 45 1 7 42
M  V30 46 1 14 43
M  V30 47 1 14 44
M  V30 48 1 14 45
M  V30 49 1 18 46
M  V30 50 1 18 47
M  V30 51 1 18 48
M  V30 52 1 20 49
M  V30 53 1 27 50
M  V30 54 1 27 51
M  V30 55 1 27 52
M  V30 56 1 31 53
M  V30 57 1 31 54
M  V30 58 1 31 55
M  V30 END BOND
M  V30 END CTAB
M  END
>  <Dataset>  (231) 
ChEMBL_Kinases

>  <Ligand_Instance>  (231) 
nan

>  <PDB_ID>  (231) 
nan

>  <Standardized_SMILES>  (231) 
CCn1c(CCCc2nc3c(=O)n(C)c(=O)n(C)c3[nH]2)nc2c1c(=O)n(C)c(=O)n2C

>  <Name>  (231) 
nan

>  <Pocket>  (231) 
nan

>  <ATP_Site>  (231) 
nan

>  <Peripheral>  (231) 
nan

>  <Num_H_Atoms_ProtBoundConf>  (231) 
nan

>  <Num_Resolved_Atoms>  (231) 
nan

>  <Num_Not_Resolved_Atoms>  (231) 
nan

$$$$
CHEMBL1491545
     RDKit          3D

  0  0  0  0  0  0  0  0  0  0999 V3000
M  V30 BEGIN CTAB
M  V30 COUNTS 26 28 0 0 0
M  V30 BEGIN ATOM
M  V30 1 C -0.154781 -4.591610 2.325495 0
M  V30 2 C -0.763124 -5.083918 1.179237 0
M  V30 3 N -1.005785 -4.262009 0.120945 0
M  V30 4 C -0.648277 -2.956066 0.194490 0
M  V30 5 C -0.041722 -2.421510 1.311587 0
M  V30 6 C 0.348054 -1.017317 1.403357 0
M  V30 7 N 0.932759 -0.611925 2.545041 0
M  V30 8 C 1.331615 0.671184 2.729730 0
M  V30 9 C 1.103482 1.555446 1.669007 0
M  V30 10 C 0.496285 1.150084 0.474183 0
M  V30 11 N 0.283446 2.083010 -0.579135 0
M  V30 12 C 0.914508 2.588104 -1.656789 0
M  V30 13 C 0.070812 3.501094 -2.255602 0
M  V30 14 N -1.071890 3.548253 -1.539274 0
M  V30 15 C -0.933432 2.669134 -0.504489 0
M  V30 16 N 0.131434 -0.162658 0.387296 0
M  V30 17 C 0.208388 -3.245951 2.388970 0
M  V30 18 H 0.039815 -5.257082 3.177929 0
M  V30 19 H -1.049652 -6.126030 1.117610 0
M  V30 20 H -0.852278 -2.312576 -0.667167 0
M  V30 21 H 1.803913 1.016449 3.641411 0
M  V30 22 H 1.413909 2.589196 1.792021 0
M  V30 23 H 1.911133 2.187938 -1.820496 0
M  V30 24 H 0.440746 4.002076 -3.150439 0
M  V30 25 H -1.816663 2.641165 0.131906 0
M  V30 26 H 0.683262 -2.891412 3.301321 0
M  V30 END ATOM
M  V30 BEGIN BOND
M  V30 1 2 1 2
M  V30 2 1 2 3
M  V30 3 2 3 4
M  V30 4 1 4 5
M  V30 5 1 5 6
M  V30 6 2 6 7
M  V30 7 1 7 8
M  V30 8 2 8 9
M  V30 9 1 9 10
M  V30 10 1 10 11
M  V30 11 1 11 12
M  V30 12 2 12 13
M  V30 13 1 13 14
M  V30 14 2 14 15
M  V30 15 2 10 16
M  V30 16 2 5 17
M  V30 17 1 17 1
M  V30 18 1 16 6
M  V30 19 1 15 11
M  V30 20 1 1 18
M  V30 21 1 2 19
M  V30 22 1 4 20
M  V30 23 1 8 21
M  V30 24 1 9 22
M  V30 25 1 12 23
M  V30 26 1 13 24
M  V30 27 1 15 25
M  V30 28 1 17 26
M  V30 END BOND
M  V30 END CTAB
M  END
>  <Dataset>  (232) 
ChEMBL_Kinases

>  <Ligand_Instance>  (232) 
nan

>  <PDB_ID>  (232) 
nan

>  <Standardized_SMILES>  (232) 
c1cncc(-c2nccc(-n3ccnc3)n2)c1

>  <Name>  (232) 
nan

>  <Pocket>  (232) 
nan

>  <ATP_Site>  (232) 
nan

>  <Peripheral>  (232) 
nan

>  <Num_H_Atoms_ProtBoundConf>  (232) 
nan

>  <Num_Resolved_Atoms>  (232) 
nan

>  <Num_Not_Resolved_Atoms>  (232) 
nan

$$$$
CHEMBL1491399
     RDKit          3D

  0  0  0  0  0  0  0  0  0  0999 V3000
M  V30 BEGIN CTAB
M  V30 COUNTS 54 58 0 0 0
M  V30 BEGIN ATOM
M  V30 1 O 2.099231 -1.433453 1.957479 0
M  V30 2 S 2.370511 0.040927 2.051344 0
M  V30 3 O 1.487074 0.622611 3.115458 0
M  V30 4 C 4.070723 0.233360 2.485094 0
M  V30 5 C 4.469395 1.375359 3.177894 0
M  V30 6 C 5.813278 1.527460 3.520093 0
M  V30 7 C 6.733856 0.559577 3.176658 0
M  V30 8 C 6.348268 -0.573251 2.491530 0
M  V30 9 C 5.008969 -0.738925 2.142852 0
M  V30 10 N 2.128675 0.718610 0.512676 0
M  V30 11 C 2.394631 2.109884 0.389434 0
M  V30 12 C 1.257156 2.918909 -0.177759 0
M  V30 13 C -0.108946 2.430416 0.229006 0
M  V30 14 C -0.273806 0.954962 0.230355 0
M  V30 15 C -1.329477 0.446239 -0.687040 0
M  V30 16 N -1.342502 0.802916 -1.967110 0
M  V30 17 C -2.262125 0.389874 -2.873534 0
M  V30 18 O -2.278614 0.760596 -4.212010 0
M  V30 19 C -3.268440 -0.462571 -2.465304 0
M  V30 20 N -4.340106 -1.099466 -2.970882 0
M  V30 21 N -4.925798 -1.799235 -2.018986 0
M  V30 22 N -4.286137 -1.665739 -0.855647 0
M  V30 23 C -4.746507 -2.347716 0.336812 0
M  V30 24 C -4.175478 -3.695606 0.513985 0
M  V30 25 C -5.034355 -4.754638 0.191349 0
M  V30 26 C -4.624794 -6.060618 0.308839 0
M  V30 27 C -3.365172 -6.418693 0.743672 0
M  V30 28 C -2.526022 -5.357064 1.059424 0
M  V30 29 C -2.937130 -4.048013 0.941489 0
M  V30 30 F -2.105826 -3.048531 1.255992 0
M  V30 31 C -3.264317 -0.838906 -1.139708 0
M  V30 32 N -2.322267 -0.392540 -0.292524 0
M  V30 33 C 1.003856 0.228832 -0.212526 0
M  V30 34 H 3.783837 2.160123 3.468967 0
M  V30 35 H 6.158762 2.414952 4.065478 0
M  V30 36 H 7.784342 0.694845 3.453096 0
M  V30 37 H 7.052053 -1.364625 2.201494 0
M  V30 38 H 4.679454 -1.635522 1.596280 0
M  V30 39 H 3.246051 2.219158 -0.335484 0
M  V30 40 H 2.779741 2.553476 1.329958 0
M  V30 41 H 1.347621 3.942854 0.273447 0
M  V30 42 H 1.291418 3.052036 -1.268760 0
M  V30 43 H -0.831886 2.888800 -0.505859 0
M  V30 44 H -0.422637 2.847523 1.228519 0
M  V30 45 H -0.472254 0.536109 1.254165 0
M  V30 46 H -2.205263 -0.013554 -4.885826 0
M  V30 47 H -5.846326 -2.355887 0.411643 0
M  V30 48 H -4.358228 -1.735770 1.205075 0
M  V30 49 H -6.069445 -4.662272 -0.170080 0
M  V30 50 H -5.270736 -6.914456 0.065014 0
M  V30 51 H -2.948482 -7.389257 0.870408 0
M  V30 52 H -1.505875 -5.539663 1.413999 0
M  V30 53 H 0.878342 -0.847269 0.070583 0
M  V30 54 H 1.152667 0.239377 -1.291822 0
M  V30 END ATOM
M  V30 BEGIN BOND
M  V30 1 2 1 2
M  V30 2 2 2 3
M  V30 3 1 2 4
M  V30 4 2 4 5
M  V30 5 1 5 6
M  V30 6 2 6 7
M  V30 7 1 7 8
M  V30 8 2 8 9
M  V30 9 1 2 10
M  V30 10 1 10 11
M  V30 11 1 11 12
M  V30 12 1 12 13
M  V30 13 1 13 14
M  V30 14 1 14 15
M  V30 15 2 15 16
M  V30 16 1 16 17
M  V30 17 1 17 18
M  V30 18 2 17 19
M  V30 19 1 19 20
M  V30 20 2 20 21
M  V30 21 1 21 22
M  V30 22 1 22 23
M  V30 23 1 23 24
M  V30 24 2 24 25
M  V30 25 1 25 26
M  V30 26 2 26 27
M  V30 27 1 27 28
M  V30 28 2 28 29
M  V30 29 1 29 30
M  V30 30 1 22 31
M  V30 31 2 31 32
M  V30 32 1 14 33
M  V30 33 1 9 4
M  V30 34 1 33 10
M  V30 35 1 32 15
M  V30 36 1 31 19
M  V30 37 1 29 24
M  V30 38 1 5 34
M  V30 39 1 6 35
M  V30 40 1 7 36
M  V30 41 1 8 37
M  V30 42 1 9 38
M  V30 43 1 11 39
M  V30 44 1 11 40
M  V30 45 1 12 41
M  V30 46 1 12 42
M  V30 47 1 13 43
M  V30 48 1 13 44
M  V30 49 1 14 45
M  V30 50 1 18 46
M  V30 51 1 23 47
M  V30 52 1 23 48
M  V30 53 1 25 49
M  V30 54 1 26 50
M  V30 55 1 27 51
M  V30 56 1 28 52
M  V30 57 1 33 53
M  V30 58 1 33 54
M  V30 END BOND
M  V30 END CTAB
M  END
>  <Dataset>  (233) 
ChEMBL_Kinases

>  <Ligand_Instance>  (233) 
nan

>  <PDB_ID>  (233) 
nan

>  <Standardized_SMILES>  (233) 
O=S(=O)(c1ccccc1)N1CCCC(c2nc(O)c3nnn(Cc4ccccc4F)c3n2)C1

>  <Name>  (233) 
nan

>  <Pocket>  (233) 
nan

>  <ATP_Site>  (233) 
nan

>  <Peripheral>  (233) 
nan

>  <Num_H_Atoms_ProtBoundConf>  (233) 
nan

>  <Num_Resolved_Atoms>  (233) 
nan

>  <Num_Not_Resolved_Atoms>  (233) 
nan

$$$$
CHEMBL1491376
     RDKit          3D

  0  0  0  0  0  0  0  0  0  0999 V3000
M  V30 BEGIN CTAB
M  V30 COUNTS 51 53 0 0 0
M  V30 BEGIN ATOM
M  V30 1 C 3.096142 -7.218423 -0.651379 0
M  V30 2 C 3.113004 -5.776868 -1.007168 0
M  V30 3 C 1.946433 -5.108040 -1.300152 0
M  V30 4 C 2.009186 -3.764309 -1.628503 0
M  V30 5 C 3.229685 -3.073184 -1.668635 0
M  V30 6 N 2.977296 -1.720823 -2.030219 0
M  V30 7 C 2.760230 -0.760165 -1.034367 0
M  V30 8 O 2.708399 -0.669465 0.213745 0
M  V30 9 C 2.472438 0.674833 -0.935823 0
M  V30 10 N 2.370487 1.102529 0.448802 0
M  V30 11 C 3.463223 1.194544 1.396256 0
M  V30 12 C 1.108189 1.460111 1.054354 0
M  V30 13 C 0.377317 2.611151 0.930789 0
M  V30 14 C -0.804874 2.752748 1.606714 0
M  V30 15 C -1.194014 1.678619 2.400197 0
M  V30 16 S -2.721583 1.750307 3.288686 0
M  V30 17 O -2.479234 1.013802 4.570732 0
M  V30 18 O -3.121620 3.165856 3.586641 0
M  V30 19 N -3.862745 0.905641 2.361594 0
M  V30 20 C -4.143772 1.394016 1.072578 0
M  V30 21 C -5.489122 2.030885 1.169877 0
M  V30 22 C -6.147475 1.310928 2.314403 0
M  V30 23 C -5.066505 0.537340 2.994186 0
M  V30 24 C -0.438472 0.532995 2.506273 0
M  V30 25 N 0.721451 0.403877 1.838182 0
M  V30 26 C 4.375918 -3.762248 -1.372606 0
M  V30 27 C 4.311848 -5.097338 -1.046813 0
M  V30 28 H 3.950486 -7.753932 -1.112667 0
M  V30 29 H 3.147457 -7.349261 0.467866 0
M  V30 30 H 2.109774 -7.633193 -0.938288 0
M  V30 31 H 1.043541 -5.694269 -1.253753 0
M  V30 32 H 1.001870 -3.369724 -1.837613 0
M  V30 33 H 2.902218 -1.191946 -2.942912 0
M  V30 34 H 1.620942 1.005845 -1.528139 0
M  V30 35 H 3.360881 1.226942 -1.364320 0
M  V30 36 H 3.418542 2.176799 1.940185 0
M  V30 37 H 4.425499 1.141928 0.867929 0
M  V30 38 H 3.421713 0.361326 2.157165 0
M  V30 39 H 0.825204 3.338470 0.276762 0
M  V30 40 H -1.369752 3.652445 1.505052 0
M  V30 41 H -3.361033 2.101400 0.707023 0
M  V30 42 H -4.195920 0.522677 0.359771 0
M  V30 43 H -6.035034 1.859989 0.215301 0
M  V30 44 H -5.441603 3.111949 1.309050 0
M  V30 45 H -6.916444 0.592325 1.948464 0
M  V30 46 H -6.634838 1.988307 3.048132 0
M  V30 47 H -5.214691 -0.559695 2.827898 0
M  V30 48 H -5.055361 0.714005 4.106481 0
M  V30 49 H -0.814794 -0.275092 3.156676 0
M  V30 50 H 5.234523 -3.108799 -1.439277 0
M  V30 51 H 5.252694 -5.554519 -0.830472 0
M  V30 END ATOM
M  V30 BEGIN BOND
M  V30 1 1 1 2
M  V30 2 2 2 3
M  V30 3 1 3 4
M  V30 4 2 4 5
M  V30 5 1 5 6
M  V30 6 1 6 7
M  V30 7 2 7 8
M  V30 8 1 7 9
M  V30 9 1 9 10
M  V30 10 1 10 11
M  V30 11 1 10 12
M  V30 12 2 12 13
M  V30 13 1 13 14
M  V30 14 2 14 15
M  V30 15 1 15 16
M  V30 16 2 16 17
M  V30 17 2 16 18
M  V30 18 1 16 19
M  V30 19 1 19 20
M  V30 20 1 20 21
M  V30 21 1 21 22
M  V30 22 1 22 23
M  V30 23 1 15 24
M  V30 24 2 24 25
M  V30 25 1 5 26
M  V30 26 2 26 27
M  V30 27 1 27 2
M  V30 28 1 25 12
M  V30 29 1 23 19
M  V30 30 1 1 28
M  V30 31 1 1 29
M  V30 32 1 1 30
M  V30 33 1 3 31
M  V30 34 1 4 32
M  V30 35 1 6 33
M  V30 36 1 9 34
M  V30 37 1 9 35
M  V30 38 1 11 36
M  V30 39 1 11 37
M  V30 40 1 11 38
M  V30 41 1 13 39
M  V30 42 1 14 40
M  V30 43 1 20 41
M  V30 44 1 20 42
M  V30 45 1 21 43
M  V30 46 1 21 44
M  V30 47 1 22 45
M  V30 48 1 22 46
M  V30 49 1 23 47
M  V30 50 1 23 48
M  V30 51 1 24 49
M  V30 52 1 26 50
M  V30 53 1 27 51
M  V30 END BOND
M  V30 END CTAB
M  END
>  <Dataset>  (234) 
ChEMBL_Kinases

>  <Ligand_Instance>  (234) 
nan

>  <PDB_ID>  (234) 
nan

>  <Standardized_SMILES>  (234) 
Cc1ccc(NC(=O)CN(C)c2ccc(S(=O)(=O)N3CCCC3)cn2)cc1

>  <Name>  (234) 
nan

>  <Pocket>  (234) 
nan

>  <ATP_Site>  (234) 
nan

>  <Peripheral>  (234) 
nan

>  <Num_H_Atoms_ProtBoundConf>  (234) 
nan

>  <Num_Resolved_Atoms>  (234) 
nan

>  <Num_Not_Resolved_Atoms>  (234) 
nan

$$$$
CHEMBL1491318
     RDKit          3D

  0  0  0  0  0  0  0  0  0  0999 V3000
M  V30 BEGIN CTAB
M  V30 COUNTS 43 47 0 0 0
M  V30 BEGIN ATOM
M  V30 1 C 4.195467 -3.158970 -0.497494 0
M  V30 2 N 2.868132 -2.853892 0.000474 0
M  V30 3 C 2.429005 -1.594818 0.131939 0
M  V30 4 O 3.252736 -0.707523 -0.206670 0
M  V30 5 C 1.165463 -1.257513 0.604301 0
M  V30 6 C 0.479113 -0.058796 0.836646 0
M  V30 7 C 1.160707 1.178659 0.537410 0
M  V30 8 C 1.521252 1.302395 -0.816281 0
M  V30 9 C 2.237116 2.339893 -1.367562 0
M  V30 10 C 2.641446 3.346198 -0.545255 0
M  V30 11 C 2.333336 3.308701 0.795518 0
M  V30 12 C 1.617639 2.257668 1.309716 0
M  V30 13 N -0.696038 -0.453403 1.295742 0
M  V30 14 C -1.746731 0.273559 1.670326 0
M  V30 15 C -1.744854 1.636884 1.597538 0
M  V30 16 C -2.794041 2.456401 1.945161 0
M  V30 17 C -3.942068 1.851098 2.403657 0
M  V30 18 C -4.031413 0.481889 2.507596 0
M  V30 19 C -2.924353 -0.259949 2.134540 0
M  V30 20 N -3.030444 -1.619051 2.216391 0
M  V30 21 C -1.968643 -2.351406 1.834759 0
M  V30 22 C -0.799308 -1.787103 1.374020 0
M  V30 23 C 0.368987 -2.339184 0.939803 0
M  V30 24 N 0.781750 -3.612858 0.818899 0
M  V30 25 C -0.046013 -4.749362 1.167656 0
M  V30 26 C 2.042763 -3.832183 0.343695 0
M  V30 27 O 2.453963 -5.036825 0.221247 0
M  V30 28 H 4.819114 -3.548135 0.355803 0
M  V30 29 H 4.687941 -2.259475 -0.929869 0
M  V30 30 H 4.146699 -3.957526 -1.279084 0
M  V30 31 H 1.242278 0.546059 -1.570666 0
M  V30 32 H 2.495579 2.404657 -2.402260 0
M  V30 33 H 3.207002 4.224741 -0.822372 0
M  V30 34 H 2.593635 4.043249 1.558819 0
M  V30 35 H 1.295736 2.084785 2.350557 0
M  V30 36 H -0.949609 2.244162 1.240584 0
M  V30 37 H -2.858602 3.522976 1.913719 0
M  V30 38 H -4.819792 2.388087 2.702623 0
M  V30 39 H -4.908958 -0.040130 2.860682 0
M  V30 40 H -2.149064 -3.411158 1.934601 0
M  V30 41 H -0.271182 -4.826861 2.250273 0
M  V30 42 H 0.555004 -5.684821 0.961418 0
M  V30 43 H -0.935786 -4.870500 0.510189 0
M  V30 END ATOM
M  V30 BEGIN BOND
M  V30 1 1 1 2
M  V30 2 1 2 3
M  V30 3 2 3 4
M  V30 4 1 3 5
M  V30 5 2 5 6
M  V30 6 1 6 7
M  V30 7 2 7 8
M  V30 8 1 8 9
M  V30 9 2 9 10
M  V30 10 1 10 11
M  V30 11 2 11 12
M  V30 12 1 6 13
M  V30 13 1 13 14
M  V30 14 2 14 15
M  V30 15 1 15 16
M  V30 16 2 16 17
M  V30 17 1 17 18
M  V30 18 2 18 19
M  V30 19 1 19 20
M  V30 20 2 20 21
M  V30 21 1 21 22
M  V30 22 2 22 23
M  V30 23 1 23 24
M  V30 24 1 24 25
M  V30 25 1 24 26
M  V30 26 2 26 27
M  V30 27 1 26 2
M  V30 28 1 23 5
M  V30 29 1 12 7
M  V30 30 1 22 13
M  V30 31 1 19 14
M  V30 32 1 1 28
M  V30 33 1 1 29
M  V30 34 1 1 30
M  V30 35 1 8 31
M  V30 36 1 9 32
M  V30 37 1 10 33
M  V30 38 1 11 34
M  V30 39 1 12 35
M  V30 40 1 15 36
M  V30 41 1 16 37
M  V30 42 1 17 38
M  V30 43 1 18 39
M  V30 44 1 21 40
M  V30 45 1 25 41
M  V30 46 1 25 42
M  V30 47 1 25 43
M  V30 END BOND
M  V30 END CTAB
M  END
>  <Dataset>  (235) 
ChEMBL_Kinases

>  <Ligand_Instance>  (235) 
nan

>  <PDB_ID>  (235) 
nan

>  <Standardized_SMILES>  (235) 
Cn1c(=O)c2c(-c3ccccc3)n3c4ccccc4ncc3c2n(C)c1=O

>  <Name>  (235) 
nan

>  <Pocket>  (235) 
nan

>  <ATP_Site>  (235) 
nan

>  <Peripheral>  (235) 
nan

>  <Num_H_Atoms_ProtBoundConf>  (235) 
nan

>  <Num_Resolved_Atoms>  (235) 
nan

>  <Num_Not_Resolved_Atoms>  (235) 
nan

$$$$
CHEMBL1491247
     RDKit          3D

  0  0  0  0  0  0  0  0  0  0999 V3000
M  V30 BEGIN CTAB
M  V30 COUNTS 45 48 0 0 0
M  V30 BEGIN ATOM
M  V30 1 N 2.689611 -3.531855 0.943447 0
M  V30 2 C 2.705621 -2.815977 0.030069 0
M  V30 3 C 2.705368 -1.919176 -1.089823 0
M  V30 4 C 2.858587 -2.445848 -2.353972 0
M  V30 5 C 2.855136 -1.565645 -3.412865 0
M  V30 6 C 2.708920 -0.182990 -3.308529 0
M  V30 7 C 2.557820 0.294404 -2.009293 0
M  V30 8 C 2.556237 -0.549502 -0.932643 0
M  V30 9 S 2.365473 0.019658 0.749991 0
M  V30 10 C 2.191924 1.795076 0.706880 0
M  V30 11 C 3.258742 2.651463 0.779606 0
M  V30 12 C 3.121509 4.023435 0.746055 0
M  V30 13 C 1.849812 4.586485 0.633503 0
M  V30 14 C 0.803195 3.683358 0.563178 0
M  V30 15 C 0.911926 2.315298 0.594351 0
M  V30 16 C -0.265302 1.456314 0.512663 0
M  V30 17 O -0.116728 0.207725 0.545085 0
M  V30 18 O -1.503255 2.031390 0.402677 0
M  V30 19 C -2.711814 1.267441 0.316904 0
M  V30 20 C -2.897298 0.405895 1.531269 0
M  V30 21 N -3.516036 0.628406 2.726996 0
M  V30 22 N -3.384981 -0.480905 3.453129 0
M  V30 23 C -2.700823 -1.384152 2.736968 0
M  V30 24 C -2.310274 -2.740958 3.103782 0
M  V30 25 C -1.600963 -3.488276 2.186812 0
M  V30 26 C -1.180379 -4.780552 2.426099 0
M  V30 27 C -1.517785 -5.296753 3.666067 0
M  V30 28 C -2.233272 -4.577944 4.623309 0
M  V30 29 C -2.638589 -3.271870 4.336727 0
M  V30 30 O -2.414431 -0.834207 1.581458 0
M  V30 31 H 2.977736 -3.509017 -2.518559 0
M  V30 32 H 2.973524 -1.948500 -4.419771 0
M  V30 33 H 2.715284 0.451036 -4.182302 0
M  V30 34 H 2.438814 1.366208 -1.857366 0
M  V30 35 H 4.262584 2.221226 0.868217 0
M  V30 36 H 3.943576 4.720705 0.801481 0
M  V30 37 H 1.663119 5.654606 0.600887 0
M  V30 38 H -0.185556 4.128258 0.475559 0
M  V30 39 H -2.726227 0.630807 -0.577310 0
M  V30 40 H -3.566281 1.952716 0.267167 0
M  V30 41 H -1.332184 -3.087848 1.209007 0
M  V30 42 H -0.631730 -5.368547 1.725997 0
M  V30 43 H -1.210220 -6.305927 3.900209 0
M  V30 44 H -2.452804 -5.065531 5.569984 0
M  V30 45 H -3.188751 -2.712932 5.067046 0
M  V30 END ATOM
M  V30 BEGIN BOND
M  V30 1 3 1 2
M  V30 2 1 2 3
M  V30 3 2 3 4
M  V30 4 1 4 5
M  V30 5 2 5 6
M  V30 6 1 6 7
M  V30 7 2 7 8
M  V30 8 1 8 9
M  V30 9 1 9 10
M  V30 10 2 10 11
M  V30 11 1 11 12
M  V30 12 2 12 13
M  V30 13 1 13 14
M  V30 14 2 14 15
M  V30 15 1 15 16
M  V30 16 2 16 17
M  V30 17 1 16 18
M  V30 18 1 18 19
M  V30 19 1 19 20
M  V30 20 2 20 21
M  V30 21 1 21 22
M  V30 22 2 22 23
M  V30 23 1 23 24
M  V30 24 2 24 25
M  V30 25 1 25 26
M  V30 26 2 26 27
M  V30 27 1 27 28
M  V30 28 2 28 29
M  V30 29 1 23 30
M  V30 30 1 8 3
M  V30 31 1 15 10
M  V30 32 1 30 20
M  V30 33 1 29 24
M  V30 34 1 4 31
M  V30 35 1 5 32
M  V30 36 1 6 33
M  V30 37 1 7 34
M  V30 38 1 11 35
M  V30 39 1 12 36
M  V30 40 1 13 37
M  V30 41 1 14 38
M  V30 42 1 19 39
M  V30 43 1 19 40
M  V30 44 1 25 41
M  V30 45 1 26 42
M  V30 46 1 27 43
M  V30 47 1 28 44
M  V30 48 1 29 45
M  V30 END BOND
M  V30 END CTAB
M  END
>  <Dataset>  (236) 
ChEMBL_Kinases

>  <Ligand_Instance>  (236) 
nan

>  <PDB_ID>  (236) 
nan

>  <Standardized_SMILES>  (236) 
N#Cc1ccccc1Sc1ccccc1C(=O)OCc1nnc(-c2ccccc2)o1

>  <Name>  (236) 
nan

>  <Pocket>  (236) 
nan

>  <ATP_Site>  (236) 
nan

>  <Peripheral>  (236) 
nan

>  <Num_H_Atoms_ProtBoundConf>  (236) 
nan

>  <Num_Resolved_Atoms>  (236) 
nan

>  <Num_Not_Resolved_Atoms>  (236) 
nan

$$$$
CHEMBL1491080
     RDKit          3D

  0  0  0  0  0  0  0  0  0  0999 V3000
M  V30 BEGIN CTAB
M  V30 COUNTS 22 23 0 0 0
M  V30 BEGIN ATOM
M  V30 1 O 2.097780 -2.893516 2.759955 0
M  V30 2 N 1.046547 -2.503232 3.349742 0 CHG=1 VAL=4
M  V30 3 O -0.263599 -2.424148 3.820720 0 CHG=-1 VAL=1
M  V30 4 C 1.567573 -1.332350 3.949137 0
M  V30 5 C 1.508080 -0.167017 3.333996 0
M  V30 6 C 0.932534 0.081474 2.023455 0
M  V30 7 C 0.324392 -0.729304 1.095390 0
M  V30 8 C -0.065860 -0.020919 -0.024332 0
M  V30 9 C -0.698833 -0.357782 -1.206614 0
M  V30 10 C -0.958483 0.605696 -2.161545 0
M  V30 11 C -0.556404 1.916168 -1.878289 0
M  V30 12 C 0.084389 2.251770 -0.679088 0
M  V30 13 C 0.332785 1.270837 0.259714 0
M  V30 14 N 0.915200 1.300688 1.467050 0
M  V30 15 H 2.001811 -1.489199 4.926826 0
M  V30 16 H 1.948975 0.621421 3.925271 0
M  V30 17 H 0.163672 -1.779972 1.207710 0
M  V30 18 H -0.983657 -1.401239 -1.358159 0
M  V30 19 H -1.452676 0.363831 -3.093629 0
M  V30 20 H -0.737551 2.706787 -2.595035 0
M  V30 21 H 0.385833 3.278574 -0.485628 0
M  V30 22 H 1.294016 2.193850 1.879610 0
M  V30 END ATOM
M  V30 BEGIN BOND
M  V30 1 2 1 2
M  V30 2 1 2 3
M  V30 3 1 2 4
M  V30 4 2 4 5
M  V30 5 1 5 6
M  V30 6 2 6 7
M  V30 7 1 7 8
M  V30 8 2 8 9
M  V30 9 1 9 10
M  V30 10 2 10 11
M  V30 11 1 11 12
M  V30 12 2 12 13
M  V30 13 1 13 14
M  V30 14 1 14 6
M  V30 15 1 13 8
M  V30 16 1 4 15
M  V30 17 1 5 16
M  V30 18 1 7 17
M  V30 19 1 9 18
M  V30 20 1 10 19
M  V30 21 1 11 20
M  V30 22 1 12 21
M  V30 23 1 14 22
M  V30 END BOND
M  V30 END CTAB
M  END
>  <Dataset>  (237) 
ChEMBL_Kinases

>  <Ligand_Instance>  (237) 
nan

>  <PDB_ID>  (237) 
nan

>  <Standardized_SMILES>  (237) 
O=[N+]([O-])/C=C\c1cc2ccccc2[nH]1

>  <Name>  (237) 
nan

>  <Pocket>  (237) 
nan

>  <ATP_Site>  (237) 
nan

>  <Peripheral>  (237) 
nan

>  <Num_H_Atoms_ProtBoundConf>  (237) 
nan

>  <Num_Resolved_Atoms>  (237) 
nan

>  <Num_Not_Resolved_Atoms>  (237) 
nan

$$$$
CHEMBL1490995
     RDKit          3D

  0  0  0  0  0  0  0  0  0  0999 V3000
M  V30 BEGIN CTAB
M  V30 COUNTS 27 27 0 0 0
M  V30 BEGIN ATOM
M  V30 1 C 0.568438 -0.446906 4.499207 0
M  V30 2 C 0.698139 -0.488785 3.016385 0
M  V30 3 C 1.377723 -1.504721 2.380948 0
M  V30 4 C 1.485458 -1.523299 1.003598 0
M  V30 5 O 2.137097 -2.515250 0.553723 0
M  V30 6 N 0.927272 -0.544960 0.236309 0
M  V30 7 C 1.138591 -0.723012 -1.169373 0
M  V30 8 C 0.062123 -1.533116 -1.829560 0
M  V30 9 C -1.305764 -0.882661 -1.682092 0
M  V30 10 O 0.312971 -1.675444 -3.184947 0
M  V30 11 C 0.255751 0.464409 0.816040 0
M  V30 12 O -0.286001 1.422236 0.001483 0
M  V30 13 C 0.146041 0.484752 2.205405 0
M  V30 14 C -0.577235 1.576669 2.786328 0
M  V30 15 N -1.151783 2.471013 3.247625 0
M  V30 16 H -0.438054 -0.048906 4.810351 0
M  V30 17 H 1.322393 0.228509 4.952408 0
M  V30 18 H 0.641029 -1.485895 4.898472 0
M  V30 19 H 1.806192 -2.262438 3.030286 0
M  V30 20 H 1.129591 0.273440 -1.699717 0
M  V30 21 H 2.108356 -1.198017 -1.407813 0
M  V30 22 H 0.061370 -2.547802 -1.402789 0
M  V30 23 H -1.335229 0.109904 -2.171543 0
M  V30 24 H -1.664520 -0.866335 -0.636165 0
M  V30 25 H -2.063707 -1.491673 -2.233234 0
M  V30 26 H -0.491812 -1.499347 -3.741896 0
M  V30 27 H -1.018770 2.063274 0.198797 0
M  V30 END ATOM
M  V30 BEGIN BOND
M  V30 1 1 1 2
M  V30 2 2 2 3
M  V30 3 1 3 4
M  V30 4 2 4 5
M  V30 5 1 4 6
M  V30 6 1 6 7
M  V30 7 1 7 8
M  V30 8 1 8 9
M  V30 9 1 8 10
M  V30 10 1 6 11
M  V30 11 1 11 12
M  V30 12 2 11 13
M  V30 13 1 13 14
M  V30 14 3 14 15
M  V30 15 1 13 2
M  V30 16 1 1 16
M  V30 17 1 1 17
M  V30 18 1 1 18
M  V30 19 1 3 19
M  V30 20 1 7 20
M  V30 21 1 7 21
M  V30 22 1 8 22
M  V30 23 1 9 23
M  V30 24 1 9 24
M  V30 25 1 9 25
M  V30 26 1 10 26
M  V30 27 1 12 27
M  V30 END BOND
M  V30 END CTAB
M  END
>  <Dataset>  (238) 
ChEMBL_Kinases

>  <Ligand_Instance>  (238) 
nan

>  <PDB_ID>  (238) 
nan

>  <Standardized_SMILES>  (238) 
Cc1cc(=O)n(CC(C)O)c(O)c1C#N

>  <Name>  (238) 
nan

>  <Pocket>  (238) 
nan

>  <ATP_Site>  (238) 
nan

>  <Peripheral>  (238) 
nan

>  <Num_H_Atoms_ProtBoundConf>  (238) 
nan

>  <Num_Resolved_Atoms>  (238) 
nan

>  <Num_Not_Resolved_Atoms>  (238) 
nan

$$$$
CHEMBL1490940
     RDKit          3D

  0  0  0  0  0  0  0  0  0  0999 V3000
M  V30 BEGIN CTAB
M  V30 COUNTS 26 26 0 0 0
M  V30 BEGIN ATOM
M  V30 1 C -1.526243 -1.556614 1.610584 0
M  V30 2 C -0.721122 -1.363486 0.363779 0
M  V30 3 N 0.534600 -2.020749 0.306275 0
M  V30 4 C 1.476543 -1.014731 0.708651 0
M  V30 5 C 1.542189 -0.624484 2.043200 0
M  V30 6 C 2.437721 0.339764 2.513727 0
M  V30 7 C 3.281133 0.906163 1.564381 0
M  V30 8 F 4.169008 1.847053 1.960147 0
M  V30 9 C 3.259663 0.556971 0.228466 0
M  V30 10 C 2.351634 -0.400709 -0.167082 0
M  V30 11 C -1.221709 -0.596039 -0.584596 0
M  V30 12 C -0.479970 -0.393434 -1.792571 0
M  V30 13 N 0.095901 -0.225845 -2.757900 0
M  V30 14 C -2.488786 0.109170 -0.487966 0
M  V30 15 N -3.366122 0.082744 0.626610 0
M  V30 16 O -2.962771 0.834055 -1.393750 0
M  V30 17 H -1.651365 -0.647405 2.204332 0
M  V30 18 H -1.022450 -2.314764 2.276229 0
M  V30 19 H -2.520356 -1.999299 1.352721 0
M  V30 20 H 0.743019 -3.019028 0.032604 0
M  V30 21 H 0.911778 -1.028708 2.812822 0
M  V30 22 H 2.490048 0.648537 3.551313 0
M  V30 23 H 3.940328 1.025457 -0.496841 0
M  V30 24 H 2.352810 -0.665251 -1.200703 0
M  V30 25 H -3.956465 -0.105888 1.435848 0
M  V30 26 H -3.893059 0.889594 1.007866 0
M  V30 END ATOM
M  V30 BEGIN BOND
M  V30 1 1 1 2
M  V30 2 1 2 3
M  V30 3 1 3 4
M  V30 4 2 4 5
M  V30 5 1 5 6
M  V30 6 2 6 7
M  V30 7 1 7 8
M  V30 8 1 7 9
M  V30 9 2 9 10
M  V30 10 2 2 11
M  V30 11 1 11 12
M  V30 12 3 12 13
M  V30 13 1 11 14
M  V30 14 1 14 15
M  V30 15 2 14 16
M  V30 16 1 10 4
M  V30 17 1 1 17
M  V30 18 1 1 18
M  V30 19 1 1 19
M  V30 20 1 3 20
M  V30 21 1 5 21
M  V30 22 1 6 22
M  V30 23 1 9 23
M  V30 24 1 10 24
M  V30 25 1 15 25
M  V30 26 1 15 26
M  V30 END BOND
M  V30 END CTAB
M  END
>  <Dataset>  (239) 
ChEMBL_Kinases

>  <Ligand_Instance>  (239) 
nan

>  <PDB_ID>  (239) 
nan

>  <Standardized_SMILES>  (239) 
C/C(Nc1ccc(F)cc1)=C(/C#N)C(N)=O

>  <Name>  (239) 
nan

>  <Pocket>  (239) 
nan

>  <ATP_Site>  (239) 
nan

>  <Peripheral>  (239) 
nan

>  <Num_H_Atoms_ProtBoundConf>  (239) 
nan

>  <Num_Resolved_Atoms>  (239) 
nan

>  <Num_Not_Resolved_Atoms>  (239) 
nan

$$$$
CHEMBL1490899
     RDKit          3D

  0  0  0  0  0  0  0  0  0  0999 V3000
M  V30 BEGIN CTAB
M  V30 COUNTS 35 36 0 0 0
M  V30 BEGIN ATOM
M  V30 1 N -0.794344 -4.133802 1.073812 0
M  V30 2 C -0.393000 -3.033577 1.171741 0
M  V30 3 C 0.093878 -1.685889 1.289384 0
M  V30 4 C 1.224429 -1.320310 0.715333 0
M  V30 5 C 2.053580 -2.234187 -0.063790 0
M  V30 6 C 2.354231 -3.524965 0.315561 0
M  V30 7 C 3.159102 -4.302014 -0.527362 0
M  V30 8 C 3.640273 -3.779710 -1.715970 0
M  V30 9 C 3.338326 -2.490700 -2.093686 0
M  V30 10 N 3.805067 -1.913896 -3.310661 0 CHG=1 VAL=4
M  V30 11 O 4.526084 -2.618775 -4.045315 0
M  V30 12 O 3.460613 -0.624144 -3.639365 0 CHG=-1 VAL=1
M  V30 13 C 2.545955 -1.717993 -1.268622 0
M  V30 14 C -0.732846 -0.801968 2.084693 0
M  V30 15 O -1.820401 -1.000588 2.675197 0
M  V30 16 N -0.384079 0.569980 2.340260 0
M  V30 17 C -1.104925 1.553919 3.104738 0
M  V30 18 C -2.213227 2.136229 2.319231 0
M  V30 19 C -3.525090 1.764529 2.168266 0
M  V30 20 C -4.342030 2.513669 1.354461 0
M  V30 21 C -3.934908 3.630414 0.666175 0
M  V30 22 N -2.655820 4.021889 0.791783 0
M  V30 23 C -1.838793 3.282633 1.598373 0
M  V30 24 H 1.586522 -0.311068 0.804356 0
M  V30 25 H 1.970145 -3.903764 1.243273 0
M  V30 26 H 3.340455 -5.290554 -0.153009 0
M  V30 27 H 4.259971 -4.408732 -2.338694 0
M  V30 28 H 2.308998 -0.688463 -1.574122 0
M  V30 29 H 0.521305 0.958338 1.925541 0
M  V30 30 H -0.444331 2.358743 3.458481 0
M  V30 31 H -1.560476 1.121010 4.026031 0
M  V30 32 H -3.787936 0.890019 2.725440 0
M  V30 33 H -5.373101 2.199414 1.252492 0
M  V30 34 H -4.574022 4.219755 0.026218 0
M  V30 35 H -0.815439 3.693098 1.629045 0
M  V30 END ATOM
M  V30 BEGIN BOND
M  V30 1 3 1 2
M  V30 2 1 2 3
M  V30 3 2 3 4
M  V30 4 1 4 5
M  V30 5 2 5 6
M  V30 6 1 6 7
M  V30 7 2 7 8
M  V30 8 1 8 9
M  V30 9 1 9 10
M  V30 10 2 10 11
M  V30 11 1 10 12
M  V30 12 2 9 13
M  V30 13 1 3 14
M  V30 14 2 14 15
M  V30 15 1 14 16
M  V30 16 1 16 17
M  V30 17 1 17 18
M  V30 18 2 18 19
M  V30 19 1 19 20
M  V30 20 2 20 21
M  V30 21 1 21 22
M  V30 22 2 22 23
M  V30 23 1 13 5
M  V30 24 1 23 18
M  V30 25 1 4 24
M  V30 26 1 6 25
M  V30 27 1 7 26
M  V30 28 1 8 27
M  V30 29 1 13 28
M  V30 30 1 16 29
M  V30 31 1 17 30
M  V30 32 1 17 31
M  V30 33 1 19 32
M  V30 34 1 20 33
M  V30 35 1 21 34
M  V30 36 1 23 35
M  V30 END BOND
M  V30 END CTAB
M  END
>  <Dataset>  (240) 
ChEMBL_Kinases

>  <Ligand_Instance>  (240) 
nan

>  <PDB_ID>  (240) 
nan

>  <Standardized_SMILES>  (240) 
N#C/C(=C\c1cccc([N+](=O)[O-])c1)C(=O)NCc1cccnc1

>  <Name>  (240) 
nan

>  <Pocket>  (240) 
nan

>  <ATP_Site>  (240) 
nan

>  <Peripheral>  (240) 
nan

>  <Num_H_Atoms_ProtBoundConf>  (240) 
nan

>  <Num_Resolved_Atoms>  (240) 
nan

>  <Num_Not_Resolved_Atoms>  (240) 
nan

$$$$
CHEMBL1490602
     RDKit          3D

  0  0  0  0  0  0  0  0  0  0999 V3000
M  V30 BEGIN CTAB
M  V30 COUNTS 35 37 0 0 0
M  V30 BEGIN ATOM
M  V30 1 N 1.950553 -5.003519 -0.014746 0
M  V30 2 C 1.803996 -3.859979 -0.073537 0
M  V30 3 C 1.612950 -2.419461 -0.131217 0
M  V30 4 C 2.759732 -1.666389 -0.267631 0
M  V30 5 C 4.099787 -2.305037 -0.351209 0
M  V30 6 F 4.169491 -3.152045 -1.440200 0
M  V30 7 F 5.083188 -1.351257 -0.384017 0
M  V30 8 F 4.262247 -3.040059 0.828929 0
M  V30 9 C 2.676323 -0.276234 -0.330921 0
M  V30 10 C 1.417603 0.280826 -0.251415 0
M  V30 11 C 1.156123 1.721973 -0.302114 0
M  V30 12 C 2.204761 2.639062 -0.436089 0
M  V30 13 C 1.678765 3.925311 -0.456894 0
M  V30 14 C 0.312835 3.703922 -0.331292 0
M  V30 15 O 0.050989 2.405461 -0.243755 0
M  V30 16 N 0.322202 -0.481896 -0.118843 0
M  V30 17 C 0.360601 -1.823711 -0.054095 0
M  V30 18 S -0.983607 -2.950973 0.118210 0
M  V30 19 C -2.599257 -2.193912 0.217945 0
M  V30 20 C -2.832039 -1.383791 1.429434 0
M  V30 21 C -2.570324 -0.022192 1.522573 0
M  V30 22 C -2.820074 0.665829 2.713647 0
M  V30 23 N -3.320461 0.012856 3.791713 0
M  V30 24 C -3.575070 -1.314130 3.699269 0
M  V30 25 C -3.347681 -2.045428 2.546757 0
M  V30 26 H 3.515252 0.375749 -0.436064 0
M  V30 27 H 3.260149 2.413384 -0.513208 0
M  V30 28 H 2.177885 4.881310 -0.546696 0
M  V30 29 H -0.404722 4.525768 -0.312825 0
M  V30 30 H -3.353040 -3.016434 0.197364 0
M  V30 31 H -2.848014 -1.560453 -0.658798 0
M  V30 32 H -2.173804 0.488247 0.657252 0
M  V30 33 H -2.600021 1.730935 2.741621 0
M  V30 34 H -3.967868 -1.695320 4.630292 0
M  V30 35 H -3.585291 -3.079867 2.589850 0
M  V30 END ATOM
M  V30 BEGIN BOND
M  V30 1 3 1 2
M  V30 2 1 2 3
M  V30 3 2 3 4
M  V30 4 1 4 5
M  V30 5 1 5 6
M  V30 6 1 5 7
M  V30 7 1 5 8
M  V30 8 1 4 9
M  V30 9 2 9 10
M  V30 10 1 10 11
M  V30 11 2 11 12
M  V30 12 1 12 13
M  V30 13 2 13 14
M  V30 14 1 14 15
M  V30 15 1 10 16
M  V30 16 2 16 17
M  V30 17 1 17 18
M  V30 18 1 18 19
M  V30 19 1 19 20
M  V30 20 2 20 21
M  V30 21 1 21 22
M  V30 22 2 22 23
M  V30 23 1 23 24
M  V30 24 2 24 25
M  V30 25 1 17 3
M  V30 26 1 25 20
M  V30 27 1 15 11
M  V30 28 1 9 26
M  V30 29 1 12 27
M  V30 30 1 13 28
M  V30 31 1 14 29
M  V30 32 1 19 30
M  V30 33 1 19 31
M  V30 34 1 21 32
M  V30 35 1 22 33
M  V30 36 1 24 34
M  V30 37 1 25 35
M  V30 END BOND
M  V30 END CTAB
M  END
>  <Dataset>  (241) 
ChEMBL_Kinases

>  <Ligand_Instance>  (241) 
nan

>  <PDB_ID>  (241) 
nan

>  <Standardized_SMILES>  (241) 
N#Cc1c(C(F)(F)F)cc(-c2ccco2)nc1SCc1ccncc1

>  <Name>  (241) 
nan

>  <Pocket>  (241) 
nan

>  <ATP_Site>  (241) 
nan

>  <Peripheral>  (241) 
nan

>  <Num_H_Atoms_ProtBoundConf>  (241) 
nan

>  <Num_Resolved_Atoms>  (241) 
nan

>  <Num_Not_Resolved_Atoms>  (241) 
nan

$$$$
CHEMBL1490477
     RDKit          3D

  0  0  0  0  0  0  0  0  0  0999 V3000
M  V30 BEGIN CTAB
M  V30 COUNTS 43 46 0 0 0
M  V30 BEGIN ATOM
M  V30 1 C -1.195412 -5.549153 2.641642 0
M  V30 2 S 0.510408 -5.265829 2.980191 0
M  V30 3 O 1.062746 -6.498500 3.636167 0
M  V30 4 O 1.290020 -5.011483 1.719275 0
M  V30 5 N 0.787895 -3.932689 4.035589 0
M  V30 6 C 0.409220 -2.599989 3.714006 0
M  V30 7 C -0.213451 -1.866979 4.691693 0
M  V30 8 C -0.589592 -0.566653 4.396529 0
M  V30 9 C -0.327701 -0.058253 3.141725 0
M  V30 10 C 0.295808 -0.771614 2.141362 0
M  V30 11 C 0.581626 -0.253972 0.811656 0
M  V30 12 N 0.273455 0.973610 0.396266 0
M  V30 13 C 0.511030 1.502375 -0.808198 0
M  V30 14 N 0.162711 2.817731 -1.206595 0
M  V30 15 C -0.498559 3.890501 -0.524344 0
M  V30 16 C 0.063746 4.468183 0.722840 0
M  V30 17 C -1.143416 3.586066 0.791199 0
M  V30 18 C 1.143142 0.662750 -1.691157 0
M  V30 19 C 1.486478 0.989312 -2.981727 0
M  V30 20 C 2.114549 0.168394 -3.874438 0
M  V30 21 C 2.450606 -1.120216 -3.472973 0
M  V30 22 C 2.124026 -1.489251 -2.185095 0
M  V30 23 C 1.490833 -0.617687 -1.330630 0
M  V30 24 N 1.199583 -1.047275 -0.079888 0
M  V30 25 C 0.649956 -2.058411 2.483855 0
M  V30 26 H -1.395827 -5.432658 1.548448 0
M  V30 27 H -1.513492 -6.599321 2.890702 0
M  V30 28 H -1.887443 -4.851237 3.144667 0
M  V30 29 H 1.257721 -4.052785 4.978807 0
M  V30 30 H -0.442544 -2.218686 5.693250 0
M  V30 31 H -1.090550 0.069688 5.134944 0
M  V30 32 H -0.631791 0.958449 2.939681 0
M  V30 33 H 0.410873 3.138038 -2.163842 0
M  V30 34 H -1.124428 4.556604 -1.189304 0
M  V30 35 H -0.135849 5.549776 0.864791 0
M  V30 36 H 1.045847 4.086664 1.035790 0
M  V30 37 H -2.134555 4.089193 1.014715 0
M  V30 38 H -1.115887 2.591362 1.259401 0
M  V30 39 H 1.263834 1.960600 -3.371562 0
M  V30 40 H 2.372892 0.451585 -4.884266 0
M  V30 41 H 2.944773 -1.865490 -4.072441 0
M  V30 42 H 2.367060 -2.489294 -1.824277 0
M  V30 43 H 1.144623 -2.672839 1.740336 0
M  V30 END ATOM
M  V30 BEGIN BOND
M  V30 1 1 1 2
M  V30 2 2 2 3
M  V30 3 2 2 4
M  V30 4 1 2 5
M  V30 5 1 5 6
M  V30 6 2 6 7
M  V30 7 1 7 8
M  V30 8 2 8 9
M  V30 9 1 9 10
M  V30 10 1 10 11
M  V30 11 2 11 12
M  V30 12 1 12 13
M  V30 13 1 13 14
M  V30 14 1 14 15
M  V30 15 1 15 16
M  V30 16 1 16 17
M  V30 17 2 13 18
M  V30 18 1 18 19
M  V30 19 2 19 20
M  V30 20 1 20 21
M  V30 21 2 21 22
M  V30 22 1 22 23
M  V30 23 2 23 24
M  V30 24 2 10 25
M  V30 25 1 25 6
M  V30 26 1 24 11
M  V30 27 1 17 15
M  V30 28 1 23 18
M  V30 29 1 1 26
M  V30 30 1 1 27
M  V30 31 1 1 28
M  V30 32 1 5 29
M  V30 33 1 7 30
M  V30 34 1 8 31
M  V30 35 1 9 32
M  V30 36 1 14 33
M  V30 37 1 15 34
M  V30 38 1 16 35
M  V30 39 1 16 36
M  V30 40 1 17 37
M  V30 41 1 17 38
M  V30 42 1 19 39
M  V30 43 1 20 40
M  V30 44 1 21 41
M  V30 45 1 22 42
M  V30 46 1 25 43
M  V30 END BOND
M  V30 END CTAB
M  END
>  <Dataset>  (242) 
ChEMBL_Kinases

>  <Ligand_Instance>  (242) 
nan

>  <PDB_ID>  (242) 
nan

>  <Standardized_SMILES>  (242) 
CS(=O)(=O)Nc1cccc(-c2nc(NC3CC3)c3ccccc3n2)c1

>  <Name>  (242) 
nan

>  <Pocket>  (242) 
nan

>  <ATP_Site>  (242) 
nan

>  <Peripheral>  (242) 
nan

>  <Num_H_Atoms_ProtBoundConf>  (242) 
nan

>  <Num_Resolved_Atoms>  (242) 
nan

>  <Num_Not_Resolved_Atoms>  (242) 
nan

$$$$
CHEMBL1488668
     RDKit          3D

  0  0  0  0  0  0  0  0  0  0999 V3000
M  V30 BEGIN CTAB
M  V30 COUNTS 33 34 0 0 0
M  V30 BEGIN ATOM
M  V30 1 N -1.141687 -2.312369 1.768431 0
M  V30 2 C 0.158666 -2.344559 2.342304 0
M  V30 3 C 0.283950 -2.606235 3.693487 0
M  V30 4 C 1.568523 -2.625100 4.195593 0
M  V30 5 C 2.733646 -2.410769 3.491113 0
M  V30 6 C 2.555387 -2.154014 2.147784 0
M  V30 7 C 1.280311 -2.119607 1.570791 0
M  V30 8 C 1.159756 -1.837959 0.120826 0
M  V30 9 O 2.167786 -1.629866 -0.602008 0
M  V30 10 O -0.087638 -1.805770 -0.436712 0
M  V30 11 C -0.437136 -1.562987 -1.762263 0
M  V30 12 C 0.017950 -0.179218 -2.250391 0
M  V30 13 C -0.584766 0.891200 -1.446544 0
M  V30 14 C -0.041178 1.436724 -0.303266 0
M  V30 15 C -0.642925 2.443406 0.422573 0
M  V30 16 C -1.854345 2.953448 0.008600 0
M  V30 17 C -2.416636 2.423450 -1.131605 0
M  V30 18 C -1.795248 1.416870 -1.840384 0
M  V30 19 H -1.718927 -3.107123 1.392572 0
M  V30 20 H -1.558360 -1.357263 1.725972 0
M  V30 21 H -0.555660 -2.790836 4.352211 0
M  V30 22 H 1.667206 -2.831939 5.263382 0
M  V30 23 H 3.696596 -2.446796 3.977184 0
M  V30 24 H 3.427755 -1.973274 1.518728 0
M  V30 25 H -1.553832 -1.480508 -1.773332 0
M  V30 26 H -0.117135 -2.343329 -2.481901 0
M  V30 27 H -0.119998 -0.071527 -3.324557 0
M  V30 28 H 1.108672 -0.143881 -2.050102 0
M  V30 29 H 0.905457 1.051679 0.036950 0
M  V30 30 H -0.138020 2.815267 1.317764 0
M  V30 31 H -2.304244 3.741722 0.595341 0
M  V30 32 H -3.376877 2.880571 -1.394419 0
M  V30 33 H -2.346068 1.098521 -2.709010 0
M  V30 END ATOM
M  V30 BEGIN BOND
M  V30 1 1 1 2
M  V30 2 2 2 3
M  V30 3 1 3 4
M  V30 4 2 4 5
M  V30 5 1 5 6
M  V30 6 2 6 7
M  V30 7 1 7 8
M  V30 8 2 8 9
M  V30 9 1 8 10
M  V30 10 1 10 11
M  V30 11 1 11 12
M  V30 12 1 12 13
M  V30 13 2 13 14
M  V30 14 1 14 15
M  V30 15 2 15 16
M  V30 16 1 16 17
M  V30 17 2 17 18
M  V30 18 1 7 2
M  V30 19 1 18 13
M  V30 20 1 1 19
M  V30 21 1 1 20
M  V30 22 1 3 21
M  V30 23 1 4 22
M  V30 24 1 5 23
M  V30 25 1 6 24
M  V30 26 1 11 25
M  V30 27 1 11 26
M  V30 28 1 12 27
M  V30 29 1 12 28
M  V30 30 1 14 29
M  V30 31 1 15 30
M  V30 32 1 16 31
M  V30 33 1 17 32
M  V30 34 1 18 33
M  V30 END BOND
M  V30 END CTAB
M  END
>  <Dataset>  (243) 
ChEMBL_Kinases

>  <Ligand_Instance>  (243) 
nan

>  <PDB_ID>  (243) 
nan

>  <Standardized_SMILES>  (243) 
Nc1ccccc1C(=O)OCCc1ccccc1

>  <Name>  (243) 
nan

>  <Pocket>  (243) 
nan

>  <ATP_Site>  (243) 
nan

>  <Peripheral>  (243) 
nan

>  <Num_H_Atoms_ProtBoundConf>  (243) 
nan

>  <Num_Resolved_Atoms>  (243) 
nan

>  <Num_Not_Resolved_Atoms>  (243) 
nan

$$$$
CHEMBL1488889
     RDKit          3D

  0  0  0  0  0  0  0  0  0  0999 V3000
M  V30 BEGIN CTAB
M  V30 COUNTS 45 46 0 0 0
M  V30 BEGIN ATOM
M  V30 1 C -0.436340 -3.053878 2.062894 0
M  V30 2 C 0.676381 -2.663505 1.121604 0
M  V30 3 C 0.481606 -1.462915 0.313606 0
M  V30 4 C -0.627260 -1.343356 -0.649440 0
M  V30 5 C -0.716070 -2.306496 -1.749842 0
M  V30 6 C 0.333402 -2.455275 -2.753367 0
M  V30 7 C 1.703971 -2.830961 -2.423837 0
M  V30 8 C -0.653703 0.084038 -1.189082 0
M  V30 9 O -0.520304 0.338552 -2.397032 0
M  V30 10 N -0.843343 1.113048 -0.204963 0
M  V30 11 C -1.523551 0.905815 0.870766 0
M  V30 12 N -1.668159 1.972590 1.798404 0
M  V30 13 C -0.616121 2.950091 2.005225 0
M  V30 14 C 0.640891 2.373400 2.500562 0
M  V30 15 C 0.779999 2.265006 3.879136 0
M  V30 16 C 1.923395 1.739576 4.472974 0
M  V30 17 C 2.984493 1.297467 3.687925 0
M  V30 18 C 2.856685 1.400735 2.318015 0
M  V30 19 C 1.708688 1.926837 1.765497 0
M  V30 20 N -2.105832 -0.397815 1.083815 0
M  V30 21 C -1.911505 -1.406277 0.106023 0
M  V30 22 O -2.846036 -2.250001 -0.022467 0
M  V30 23 H -1.217077 -3.691938 1.601022 0
M  V30 24 H -0.801511 -2.241145 2.694426 0
M  V30 25 H 0.061373 -3.767272 2.796798 0
M  V30 26 H 0.974833 -3.590644 0.602143 0
M  V30 27 H 1.567878 -2.458948 1.795327 0
M  V30 28 H 1.432088 -1.208160 -0.248277 0
M  V30 29 H 0.472102 -0.602389 1.058252 0
M  V30 30 H -1.089595 -3.279854 -1.313747 0
M  V30 31 H -1.629527 -2.006455 -2.357263 0
M  V30 32 H 0.378013 -1.553036 -3.436930 0
M  V30 33 H -0.052079 -3.239220 -3.479685 0
M  V30 34 H 1.913547 -3.457169 -1.568271 0
M  V30 35 H 2.371465 -1.922187 -2.326913 0
M  V30 36 H 2.192861 -3.375668 -3.291824 0
M  V30 37 H -2.594916 1.996886 2.323610 0
M  V30 38 H -0.946540 3.727898 2.719110 0
M  V30 39 H -0.360383 3.423056 1.009893 0
M  V30 40 H -0.024349 2.597844 4.539805 0
M  V30 41 H 2.055174 1.644945 5.539237 0
M  V30 42 H 3.864337 0.893047 4.146771 0
M  V30 43 H 3.663561 1.067143 1.648993 0
M  V30 44 H 1.629308 2.001410 0.701650 0
M  V30 45 H -2.653017 -0.527826 1.969604 0
M  V30 END ATOM
M  V30 BEGIN BOND
M  V30 1 1 1 2
M  V30 2 1 2 3
M  V30 3 1 3 4
M  V30 4 1 4 5
M  V30 5 1 5 6
M  V30 6 1 6 7
M  V30 7 1 4 8
M  V30 8 2 8 9
M  V30 9 1 8 10
M  V30 10 2 10 11
M  V30 11 1 11 12
M  V30 12 1 12 13
M  V30 13 1 13 14
M  V30 14 2 14 15
M  V30 15 1 15 16
M  V30 16 2 16 17
M  V30 17 1 17 18
M  V30 18 2 18 19
M  V30 19 1 11 20
M  V30 20 1 20 21
M  V30 21 2 21 22
M  V30 22 1 21 4
M  V30 23 1 19 14
M  V30 24 1 1 23
M  V30 25 1 1 24
M  V30 26 1 1 25
M  V30 27 1 2 26
M  V30 28 1 2 27
M  V30 29 1 3 28
M  V30 30 1 3 29
M  V30 31 1 5 30
M  V30 32 1 5 31
M  V30 33 1 6 32
M  V30 34 1 6 33
M  V30 35 1 7 34
M  V30 36 1 7 35
M  V30 37 1 7 36
M  V30 38 1 12 37
M  V30 39 1 13 38
M  V30 40 1 13 39
M  V30 41 1 15 40
M  V30 42 1 16 41
M  V30 43 1 17 42
M  V30 44 1 18 43
M  V30 45 1 19 44
M  V30 46 1 20 45
M  V30 END BOND
M  V30 END CTAB
M  END
>  <Dataset>  (244) 
ChEMBL_Kinases

>  <Ligand_Instance>  (244) 
nan

>  <PDB_ID>  (244) 
nan

>  <Standardized_SMILES>  (244) 
CCCC1(CCC)C(=O)N=C(NCc2ccccc2)NC1=O

>  <Name>  (244) 
nan

>  <Pocket>  (244) 
nan

>  <ATP_Site>  (244) 
nan

>  <Peripheral>  (244) 
nan

>  <Num_H_Atoms_ProtBoundConf>  (244) 
nan

>  <Num_Resolved_Atoms>  (244) 
nan

>  <Num_Not_Resolved_Atoms>  (244) 
nan

$$$$
CHEMBL1488940
     RDKit          3D

  0  0  0  0  0  0  0  0  0  0999 V3000
M  V30 BEGIN CTAB
M  V30 COUNTS 54 56 0 0 0
M  V30 BEGIN ATOM
M  V30 1 C 1.694697 1.031631 -5.351739 0
M  V30 2 O 2.786800 0.658495 -4.573171 0
M  V30 3 C 2.839616 0.679230 -3.181717 0
M  V30 4 C 4.069243 0.248084 -2.677668 0
M  V30 5 C 4.274814 0.212600 -1.307784 0
M  V30 6 C 3.292417 0.594490 -0.392008 0
M  V30 7 O 3.377067 0.600513 0.967750 0
M  V30 8 C 4.495897 0.216159 1.700834 0
M  V30 9 C 2.107610 1.008050 -0.955499 0
M  V30 10 C 1.002912 1.413981 -0.124102 0
M  V30 11 O 1.172587 1.345375 1.131589 0
M  V30 12 C -0.322407 1.906863 -0.534055 0
M  V30 13 S -1.491846 0.595853 -0.945753 0
M  V30 14 C -1.830192 -0.436086 0.496926 0
M  V30 15 N -2.831900 0.090518 1.211166 0
M  V30 16 C -3.102831 -0.661250 2.290376 0
M  V30 17 C -2.182047 -1.666045 2.149040 0
M  V30 18 C -2.113429 -2.677096 3.071628 0
M  V30 19 O -1.330788 -3.622984 3.045983 0
M  V30 20 N -2.946875 -2.681450 4.109017 0
M  V30 21 C -2.971758 -3.700258 5.140676 0
M  V30 22 C -3.869083 -1.687466 4.263503 0
M  V30 23 O -4.706748 -1.587212 5.202824 0
M  V30 24 N -3.924322 -0.703276 3.352502 0
M  V30 25 C -4.864678 0.399072 3.446200 0
M  V30 26 N -1.374217 -1.598219 1.084490 0
M  V30 27 C -0.308410 -2.209514 0.372697 0
M  V30 28 C -0.582390 -2.158168 -1.153807 0
M  V30 29 C -0.013473 -3.662116 0.638385 0
M  V30 30 C 1.861185 1.059309 -2.296092 0
M  V30 31 H 0.742495 1.137873 -4.792431 0
M  V30 32 H 1.503583 0.269992 -6.163891 0
M  V30 33 H 1.942997 1.975255 -5.859182 0
M  V30 34 H 4.945048 -0.080121 -3.213925 0
M  V30 35 H 5.213642 -0.114588 -0.836296 0
M  V30 36 H 4.230123 -0.063569 2.746376 0
M  V30 37 H 5.248581 1.027178 1.765569 0
M  V30 38 H 4.991517 -0.638361 1.186514 0
M  V30 39 H -0.727375 2.558804 0.262904 0
M  V30 40 H -0.159314 2.573887 -1.416309 0
M  V30 41 H -2.425792 -4.619792 4.802109 0
M  V30 42 H -2.477357 -3.367050 6.070288 0
M  V30 43 H -4.017371 -4.049769 5.319683 0
M  V30 44 H -4.479713 1.312976 2.951612 0
M  V30 45 H -5.162819 0.569505 4.489398 0
M  V30 46 H -5.784257 0.103339 2.903846 0
M  V30 47 H 0.644144 -1.648345 0.580878 0
M  V30 48 H -0.476343 -3.181811 -1.606463 0
M  V30 49 H -1.614682 -1.874098 -1.376730 0
M  V30 50 H 0.214776 -1.563776 -1.575811 0
M  V30 51 H -0.897158 -4.319239 0.577026 0
M  V30 52 H 0.697971 -3.853463 1.448493 0
M  V30 53 H 0.596122 -4.069221 -0.270309 0
M  V30 54 H 0.934687 1.381859 -2.766843 0
M  V30 END ATOM
M  V30 BEGIN BOND
M  V30 1 1 1 2
M  V30 2 1 2 3
M  V30 3 2 3 4
M  V30 4 1 4 5
M  V30 5 2 5 6
M  V30 6 1 6 7
M  V30 7 1 7 8
M  V30 8 1 6 9
M  V30 9 1 9 10
M  V30 10 2 10 11
M  V30 11 1 10 12
M  V30 12 1 12 13
M  V30 13 1 13 14
M  V30 14 2 14 15
M  V30 15 1 15 16
M  V30 16 2 16 17
M  V30 17 1 17 18
M  V30 18 2 18 19
M  V30 19 1 18 20
M  V30 20 1 20 21
M  V30 21 1 20 22
M  V30 22 2 22 23
M  V30 23 1 22 24
M  V30 24 1 24 25
M  V30 25 1 17 26
M  V30 26 1 26 27
M  V30 27 1 27 28
M  V30 28 1 27 29
M  V30 29 2 9 30
M  V30 30 1 30 3
M  V30 31 1 26 14
M  V30 32 1 24 16
M  V30 33 1 1 31
M  V30 34 1 1 32
M  V30 35 1 1 33
M  V30 36 1 4 34
M  V30 37 1 5 35
M  V30 38 1 8 36
M  V30 39 1 8 37
M  V30 40 1 8 38
M  V30 41 1 12 39
M  V30 42 1 12 40
M  V30 43 1 21 41
M  V30 44 1 21 42
M  V30 45 1 21 43
M  V30 46 1 25 44
M  V30 47 1 25 45
M  V30 48 1 25 46
M  V30 49 1 27 47
M  V30 50 1 28 48
M  V30 51 1 28 49
M  V30 52 1 28 50
M  V30 53 1 29 51
M  V30 54 1 29 52
M  V30 55 1 29 53
M  V30 56 1 30 54
M  V30 END BOND
M  V30 END CTAB
M  END
>  <Dataset>  (245) 
ChEMBL_Kinases

>  <Ligand_Instance>  (245) 
nan

>  <PDB_ID>  (245) 
nan

>  <Standardized_SMILES>  (245) 
COc1ccc(OC)c(C(=O)CSc2nc3c(c(=O)n(C)c(=O)n3C)n2C(C)C)c1

>  <Name>  (245) 
nan

>  <Pocket>  (245) 
nan

>  <ATP_Site>  (245) 
nan

>  <Peripheral>  (245) 
nan

>  <Num_H_Atoms_ProtBoundConf>  (245) 
nan

>  <Num_Resolved_Atoms>  (245) 
nan

>  <Num_Not_Resolved_Atoms>  (245) 
nan

$$$$
CHEMBL1488976
     RDKit          3D

  0  0  0  0  0  0  0  0  0  0999 V3000
M  V30 BEGIN CTAB
M  V30 COUNTS 47 50 0 0 0
M  V30 BEGIN ATOM
M  V30 1 C 0.011819 -8.286959 3.718508 0
M  V30 2 O 1.295664 -8.036658 3.184582 0
M  V30 3 C 1.527696 -6.825079 2.566123 0
M  V30 4 C 2.758789 -6.467665 2.001584 0
M  V30 5 C 3.036987 -5.286974 1.381773 0
M  V30 6 C 2.056898 -4.318169 1.270325 0
M  V30 7 N 2.084039 -3.121508 0.725911 0
M  V30 8 C 1.263241 -2.316368 0.635366 0
M  V30 9 N 1.293426 -0.984852 0.029636 0
M  V30 10 C 1.634638 0.240345 0.656286 0
M  V30 11 O 1.980188 0.449469 1.848403 0
M  V30 12 C 1.581043 1.450431 -0.200087 0
M  V30 13 C 1.981345 2.614688 0.680424 0
M  V30 14 C 0.837542 3.460495 1.132623 0
M  V30 15 C -0.415218 2.650263 1.460745 0
M  V30 16 N -0.709536 1.695857 0.437901 0
M  V30 17 S -2.359310 1.769725 -0.046953 0
M  V30 18 O -2.562398 0.633844 -1.041178 0
M  V30 19 O -3.288484 1.475620 1.088258 0
M  V30 20 C -2.719571 3.292722 -0.689527 0
M  V30 21 C -3.580094 4.313802 -0.401620 0
M  V30 22 C -3.640528 5.456656 -1.129445 0
M  V30 23 C -2.733135 5.535792 -2.240123 0
M  V30 24 S -1.832657 3.880757 -2.131711 0
M  V30 25 C 0.177968 1.738730 -0.684087 0
M  V30 26 S -0.201072 -3.204367 1.513981 0
M  V30 27 C 0.835639 -4.685771 1.836192 0
M  V30 28 C 0.526979 -5.885451 2.474505 0
M  V30 29 H -0.345070 -7.431125 4.327880 0
M  V30 30 H 0.007831 -9.165122 4.402248 0
M  V30 31 H -0.752557 -8.456237 2.905929 0
M  V30 32 H 3.549791 -7.233734 2.084457 0
M  V30 33 H 4.051795 -5.157384 0.990304 0
M  V30 34 H 1.025166 -1.035071 -0.956647 0
M  V30 35 H 2.295732 1.352528 -1.038386 0
M  V30 36 H 2.535593 2.275417 1.584607 0
M  V30 37 H 2.694892 3.277814 0.137642 0
M  V30 38 H 0.613427 4.263543 0.405050 0
M  V30 39 H 1.128588 3.971778 2.073980 0
M  V30 40 H -1.216668 3.353885 1.703853 0
M  V30 41 H -0.177249 2.118915 2.421388 0
M  V30 42 H -4.194265 4.102118 0.460641 0
M  V30 43 H -4.321085 6.258300 -0.897658 0
M  V30 44 H -2.734906 6.479018 -2.896794 0
M  V30 45 H 0.208232 2.794416 -1.060263 0
M  V30 46 H -0.162668 1.052328 -1.456916 0
M  V30 47 H -0.458393 -6.005032 2.851888 0
M  V30 END ATOM
M  V30 BEGIN BOND
M  V30 1 1 1 2
M  V30 2 1 2 3
M  V30 3 2 3 4
M  V30 4 1 4 5
M  V30 5 2 5 6
M  V30 6 1 6 7
M  V30 7 2 7 8
M  V30 8 1 8 9
M  V30 9 1 9 10
M  V30 10 2 10 11
M  V30 11 1 10 12
M  V30 12 1 12 13
M  V30 13 1 13 14
M  V30 14 1 14 15
M  V30 15 1 15 16
M  V30 16 1 16 17
M  V30 17 2 17 18
M  V30 18 2 17 19
M  V30 19 1 17 20
M  V30 20 2 20 21
M  V30 21 1 21 22
M  V30 22 2 22 23
M  V30 23 1 23 24
M  V30 24 1 16 25
M  V30 25 1 8 26
M  V30 26 1 26 27
M  V30 27 2 27 28
M  V30 28 1 28 3
M  V30 29 1 27 6
M  V30 30 1 25 12
M  V30 31 1 24 20
M  V30 32 1 1 29
M  V30 33 1 1 30
M  V30 34 1 1 31
M  V30 35 1 4 32
M  V30 36 1 5 33
M  V30 37 1 9 34
M  V30 38 1 12 35
M  V30 39 1 13 36
M  V30 40 1 13 37
M  V30 41 1 14 38
M  V30 42 1 14 39
M  V30 43 1 15 40
M  V30 44 1 15 41
M  V30 45 1 21 42
M  V30 46 1 22 43
M  V30 47 1 23 44
M  V30 48 1 25 45
M  V30 49 1 25 46
M  V30 50 1 28 47
M  V30 END BOND
M  V30 END CTAB
M  END
>  <Dataset>  (246) 
ChEMBL_Kinases

>  <Ligand_Instance>  (246) 
nan

>  <PDB_ID>  (246) 
nan

>  <Standardized_SMILES>  (246) 
COc1ccc2nc(NC(=O)C3CCCN(S(=O)(=O)c4cccs4)C3)sc2c1

>  <Name>  (246) 
nan

>  <Pocket>  (246) 
nan

>  <ATP_Site>  (246) 
nan

>  <Peripheral>  (246) 
nan

>  <Num_H_Atoms_ProtBoundConf>  (246) 
nan

>  <Num_Resolved_Atoms>  (246) 
nan

>  <Num_Not_Resolved_Atoms>  (246) 
nan

$$$$
CHEMBL1489215
     RDKit          3D

  0  0  0  0  0  0  0  0  0  0999 V3000
M  V30 BEGIN CTAB
M  V30 COUNTS 43 46 0 0 0
M  V30 BEGIN ATOM
M  V30 1 C -0.251491 -6.273304 -0.167671 0
M  V30 2 N -0.515564 -5.249890 0.849035 0
M  V30 3 N -0.143538 -4.007585 0.613733 0
M  V30 4 C -0.334806 -2.981071 1.477703 0
M  V30 5 C 0.140992 -1.686499 1.035394 0
M  V30 6 C 0.941083 -0.760510 1.666106 0
M  V30 7 C 1.258328 0.435055 1.073096 0
M  V30 8 C 0.814984 0.805278 -0.177119 0
M  V30 9 C 1.131191 2.065671 -0.838127 0
M  V30 10 O 0.652571 2.265658 -1.983975 0
M  V30 11 N 1.934358 3.073249 -0.283079 0
M  V30 12 C 2.318336 4.329428 -0.806374 0
M  V30 13 C 1.977842 4.867494 -2.024427 0
M  V30 14 C 2.390790 6.104351 -2.471027 0
M  V30 15 C 3.200296 6.872712 -1.660063 0
M  V30 16 N 3.538633 6.353109 -0.465054 0
M  V30 17 C 3.127075 5.148819 -0.048880 0
M  V30 18 C 0.015919 -0.129085 -0.799148 0
M  V30 19 C -0.326417 -1.340903 -0.238185 0
M  V30 20 C -0.963815 -3.331912 2.652885 0
M  V30 21 C -1.174022 -2.311399 3.527047 0
M  V30 22 C -1.801813 -2.542164 4.731835 0
M  V30 23 C -2.202669 -3.855459 4.999862 0
M  V30 24 C -1.973000 -4.878233 4.081870 0
M  V30 25 C -1.346404 -4.636149 2.883727 0
M  V30 26 C -1.129012 -5.648277 1.972897 0
M  V30 27 O -1.494056 -6.825229 2.223965 0
M  V30 28 H 0.651399 -6.830989 0.203775 0
M  V30 29 H -1.093043 -6.969612 -0.147330 0
M  V30 30 H -0.061955 -5.818999 -1.152192 0
M  V30 31 H 1.302795 -1.054533 2.639765 0
M  V30 32 H 1.885822 1.098283 1.633303 0
M  V30 33 H 2.283117 2.816271 0.665141 0
M  V30 34 H 1.352955 4.307388 -2.684046 0
M  V30 35 H 2.082863 6.464992 -3.444326 0
M  V30 36 H 3.526595 7.847085 -2.009948 0
M  V30 37 H 3.485511 4.863203 0.947440 0
M  V30 38 H -0.364790 0.119159 -1.802541 0
M  V30 39 H -0.971451 -1.991879 -0.845696 0
M  V30 40 H -0.886094 -1.290807 3.338232 0
M  V30 41 H -2.015254 -1.803634 5.492671 0
M  V30 42 H -2.699812 -4.100431 5.928141 0
M  V30 43 H -2.289482 -5.898034 4.300371 0
M  V30 END ATOM
M  V30 BEGIN BOND
M  V30 1 1 1 2
M  V30 2 1 2 3
M  V30 3 2 3 4
M  V30 4 1 4 5
M  V30 5 2 5 6
M  V30 6 1 6 7
M  V30 7 2 7 8
M  V30 8 1 8 9
M  V30 9 2 9 10
M  V30 10 1 9 11
M  V30 11 1 11 12
M  V30 12 2 12 13
M  V30 13 1 13 14
M  V30 14 2 14 15
M  V30 15 1 15 16
M  V30 16 2 16 17
M  V30 17 1 8 18
M  V30 18 2 18 19
M  V30 19 1 4 20
M  V30 20 2 20 21
M  V30 21 1 21 22
M  V30 22 2 22 23
M  V30 23 1 23 24
M  V30 24 2 24 25
M  V30 25 1 25 26
M  V30 26 2 26 27
M  V30 27 1 26 2
M  V30 28 1 19 5
M  V30 29 1 25 20
M  V30 30 1 17 12
M  V30 31 1 1 28
M  V30 32 1 1 29
M  V30 33 1 1 30
M  V30 34 1 6 31
M  V30 35 1 7 32
M  V30 36 1 11 33
M  V30 37 1 13 34
M  V30 38 1 14 35
M  V30 39 1 15 36
M  V30 40 1 17 37
M  V30 41 1 18 38
M  V30 42 1 19 39
M  V30 43 1 21 40
M  V30 44 1 22 41
M  V30 45 1 23 42
M  V30 46 1 24 43
M  V30 END BOND
M  V30 END CTAB
M  END
>  <Dataset>  (247) 
ChEMBL_Kinases

>  <Ligand_Instance>  (247) 
nan

>  <PDB_ID>  (247) 
nan

>  <Standardized_SMILES>  (247) 
Cn1nc(-c2ccc(C(=O)Nc3cccnc3)cc2)c2ccccc2c1=O

>  <Name>  (247) 
nan

>  <Pocket>  (247) 
nan

>  <ATP_Site>  (247) 
nan

>  <Peripheral>  (247) 
nan

>  <Num_H_Atoms_ProtBoundConf>  (247) 
nan

>  <Num_Resolved_Atoms>  (247) 
nan

>  <Num_Not_Resolved_Atoms>  (247) 
nan

$$$$
CHEMBL1489221
     RDKit          3D

  0  0  0  0  0  0  0  0  0  0999 V3000
M  V30 BEGIN CTAB
M  V30 COUNTS 33 36 0 0 0
M  V30 BEGIN ATOM
M  V30 1 F 4.314090 -1.651684 1.924471 0
M  V30 2 C 3.419206 -2.665722 1.774105 0
M  V30 3 C 3.301227 -3.639985 2.739534 0
M  V30 4 C 2.412557 -4.682210 2.631491 0
M  V30 5 C 1.596415 -4.755699 1.496403 0
M  V30 6 C 1.761327 -3.749524 0.564211 0
M  V30 7 Cl 0.743172 -3.815014 -0.882378 0
M  V30 8 C 2.632645 -2.704921 0.643697 0
M  V30 9 C 2.748907 -1.659460 -0.408016 0
M  V30 10 N 2.070388 -0.463657 0.116538 0
M  V30 11 N 2.572883 0.533432 0.830261 0
M  V30 12 N 1.624309 1.415496 1.099669 0
M  V30 13 C 0.467576 0.997624 0.554699 0
M  V30 14 C -0.937875 1.370105 0.406650 0
M  V30 15 C -1.678338 1.420168 1.574332 0
M  V30 16 C -3.009954 1.776482 1.398072 0
M  V30 17 C -3.554706 2.057848 0.167246 0
M  V30 18 C -2.783552 1.997080 -0.975746 0
M  V30 19 C -1.440098 1.643607 -0.849240 0
M  V30 20 O -3.629488 2.332505 -2.021070 0
M  V30 21 C -4.980106 2.188744 -1.615885 0
M  V30 22 O -4.857189 2.430243 -0.210719 0
M  V30 23 N 0.791688 -0.163291 -0.040117 0
M  V30 24 H 3.908545 -3.644276 3.653408 0
M  V30 25 H 2.251508 -5.488817 3.336398 0
M  V30 26 H 0.859957 -5.557486 1.333638 0
M  V30 27 H 2.253832 -1.990231 -1.357512 0
M  V30 28 H 3.795364 -1.390354 -0.628017 0
M  V30 29 H -1.242030 1.198898 2.528805 0
M  V30 30 H -3.649594 1.833088 2.292417 0
M  V30 31 H -0.832902 1.594678 -1.744926 0
M  V30 32 H -5.565429 3.033756 -2.059249 0
M  V30 33 H -5.423356 1.216506 -1.838063 0
M  V30 END ATOM
M  V30 BEGIN BOND
M  V30 1 1 1 2
M  V30 2 2 2 3
M  V30 3 1 3 4
M  V30 4 2 4 5
M  V30 5 1 5 6
M  V30 6 1 6 7
M  V30 7 2 6 8
M  V30 8 1 8 9
M  V30 9 1 9 10
M  V30 10 1 10 11
M  V30 11 2 11 12
M  V30 12 1 12 13
M  V30 13 1 13 14
M  V30 14 2 14 15
M  V30 15 1 15 16
M  V30 16 2 16 17
M  V30 17 1 17 18
M  V30 18 2 18 19
M  V30 19 1 18 20
M  V30 20 1 20 21
M  V30 21 1 21 22
M  V30 22 2 13 23
M  V30 23 1 8 2
M  V30 24 1 23 10
M  V30 25 1 19 14
M  V30 26 1 22 17
M  V30 27 1 3 24
M  V30 28 1 4 25
M  V30 29 1 5 26
M  V30 30 1 9 27
M  V30 31 1 9 28
M  V30 32 1 15 29
M  V30 33 1 16 30
M  V30 34 1 19 31
M  V30 35 1 21 32
M  V30 36 1 21 33
M  V30 END BOND
M  V30 END CTAB
M  END
>  <Dataset>  (248) 
ChEMBL_Kinases

>  <Ligand_Instance>  (248) 
nan

>  <PDB_ID>  (248) 
nan

>  <Standardized_SMILES>  (248) 
Fc1cccc(Cl)c1Cn1nnc(-c2ccc3c(c2)OCO3)n1

>  <Name>  (248) 
nan

>  <Pocket>  (248) 
nan

>  <ATP_Site>  (248) 
nan

>  <Peripheral>  (248) 
nan

>  <Num_H_Atoms_ProtBoundConf>  (248) 
nan

>  <Num_Resolved_Atoms>  (248) 
nan

>  <Num_Not_Resolved_Atoms>  (248) 
nan

$$$$
CHEMBL1489424
     RDKit          3D

  0  0  0  0  0  0  0  0  0  0999 V3000
M  V30 BEGIN CTAB
M  V30 COUNTS 32 33 0 0 0
M  V30 BEGIN ATOM
M  V30 1 O 2.675304 -4.269105 3.566413 0
M  V30 2 N 1.664863 -4.381871 2.846536 0 CHG=1 VAL=4
M  V30 3 O 0.835791 -5.441323 3.088341 0 CHG=-1 VAL=1
M  V30 4 C 1.409437 -3.430653 1.821549 0
M  V30 5 C 2.281859 -2.382015 1.624645 0
M  V30 6 C 2.050322 -1.448967 0.636359 0
M  V30 7 C 0.949902 -1.503411 -0.204488 0
M  V30 8 S 0.701672 -0.303160 -1.411637 0
M  V30 9 O 1.937250 0.547908 -1.524154 0
M  V30 10 O 0.597023 -1.016994 -2.753296 0
M  V30 11 C -0.755105 0.650255 -1.236919 0
M  V30 12 C -0.800043 1.401231 0.056575 0
M  V30 13 C -1.365073 0.832743 1.185078 0
M  V30 14 C -1.424679 1.491315 2.395662 0
M  V30 15 C -0.905156 2.772637 2.510530 0
M  V30 16 C -0.339394 3.358267 1.405528 0
M  V30 17 C -0.283891 2.685110 0.187101 0
M  V30 18 C 0.123856 -2.575077 0.048490 0
M  V30 19 N -1.035473 -2.759423 -0.749476 0 CHG=1 VAL=4
M  V30 20 O -1.540368 -2.613417 -1.874846 0
M  V30 21 O -2.208419 -3.321837 -0.306837 0 CHG=-1 VAL=1
M  V30 22 C 0.295815 -3.541001 1.017250 0
M  V30 23 H 3.141177 -2.334841 2.277489 0
M  V30 24 H 2.787147 -0.653363 0.548087 0
M  V30 25 H -1.671233 0.065635 -1.430040 0
M  V30 26 H -0.737571 1.416006 -2.066728 0
M  V30 27 H -1.766895 -0.161701 1.090222 0
M  V30 28 H -1.865871 1.056711 3.290581 0
M  V30 29 H -0.913672 3.359051 3.430898 0
M  V30 30 H 0.081766 4.364085 1.450103 0
M  V30 31 H 0.164680 3.154079 -0.681832 0
M  V30 32 H -0.387133 -4.361170 1.170192 0
M  V30 END ATOM
M  V30 BEGIN BOND
M  V30 1 2 1 2
M  V30 2 1 2 3
M  V30 3 1 2 4
M  V30 4 2 4 5
M  V30 5 1 5 6
M  V30 6 2 6 7
M  V30 7 1 7 8
M  V30 8 2 8 9
M  V30 9 2 8 10
M  V30 10 1 8 11
M  V30 11 1 11 12
M  V30 12 2 12 13
M  V30 13 1 13 14
M  V30 14 2 14 15
M  V30 15 1 15 16
M  V30 16 2 16 17
M  V30 17 1 7 18
M  V30 18 1 18 19
M  V30 19 2 19 20
M  V30 20 1 19 21
M  V30 21 2 18 22
M  V30 22 1 22 4
M  V30 23 1 17 12
M  V30 24 1 5 23
M  V30 25 1 6 24
M  V30 26 1 11 25
M  V30 27 1 11 26
M  V30 28 1 13 27
M  V30 29 1 14 28
M  V30 30 1 15 29
M  V30 31 1 16 30
M  V30 32 1 17 31
M  V30 33 1 22 32
M  V30 END BOND
M  V30 END CTAB
M  END
>  <Dataset>  (249) 
ChEMBL_Kinases

>  <Ligand_Instance>  (249) 
nan

>  <PDB_ID>  (249) 
nan

>  <Standardized_SMILES>  (249) 
O=[N+]([O-])c1ccc(S(=O)(=O)Cc2ccccc2)c([N+](=O)[O-])c1

>  <Name>  (249) 
nan

>  <Pocket>  (249) 
nan

>  <ATP_Site>  (249) 
nan

>  <Peripheral>  (249) 
nan

>  <Num_H_Atoms_ProtBoundConf>  (249) 
nan

>  <Num_Resolved_Atoms>  (249) 
nan

>  <Num_Not_Resolved_Atoms>  (249) 
nan

$$$$
CHEMBL1489475
     RDKit          3D

  0  0  0  0  0  0  0  0  0  0999 V3000
M  V30 BEGIN CTAB
M  V30 COUNTS 55 57 0 0 0
M  V30 BEGIN ATOM
M  V30 1 C -2.722649 -3.411381 -0.108322 0
M  V30 2 C -2.202350 -1.978063 -0.190865 0
M  V30 3 C -1.607433 -1.576874 1.153220 0
M  V30 4 C -1.339160 -1.696760 -1.364714 0
M  V30 5 N -0.115194 -2.466260 -1.455678 0
M  V30 6 C 1.071980 -1.964690 -0.838916 0
M  V30 7 O 2.162368 -2.643663 -0.825999 0
M  V30 8 C 1.498456 -0.768522 -0.125875 0
M  V30 9 O 0.570599 0.302677 -0.139433 0
M  V30 10 C 0.739235 1.470774 0.517266 0
M  V30 11 O 1.739058 1.721342 1.219646 0
M  V30 12 C -0.121973 2.673620 0.590054 0
M  V30 13 C 0.424289 3.676332 1.540394 0
M  V30 14 N 1.100240 4.831939 1.295320 0
M  V30 15 N 1.507549 5.606634 2.285567 0
M  V30 16 C 1.284607 5.312955 3.577752 0
M  V30 17 O 1.705239 6.119941 4.631267 0
M  V30 18 C 0.601559 4.159096 3.932525 0
M  V30 19 C 0.351221 3.825897 5.253208 0
M  V30 20 C -0.330648 2.668009 5.527596 0
M  V30 21 C -0.774103 1.828169 4.541922 0
M  V30 22 C -0.502027 2.199031 3.215545 0
M  V30 23 C 0.179199 3.353001 2.888528 0
M  V30 24 C -0.046230 -3.712625 -2.162595 0
M  V30 25 C 1.038070 -3.721929 -3.206192 0
M  V30 26 C 0.821657 -5.063690 -3.932429 0
M  V30 27 S 0.597857 -6.127556 -2.526146 0
M  V30 28 O 1.834209 -6.897336 -2.216376 0
M  V30 29 O -0.616544 -6.983741 -2.630513 0
M  V30 30 C 0.305492 -4.872141 -1.261284 0
M  V30 31 H -3.782736 -3.427332 0.276246 0
M  V30 32 H -2.792020 -3.903715 -1.086698 0
M  V30 33 H -2.159177 -3.982504 0.659390 0
M  V30 34 H -3.119184 -1.327189 -0.273734 0
M  V30 35 H -1.630436 -0.481216 1.288582 0
M  V30 36 H -0.624040 -2.044726 1.352916 0
M  V30 37 H -2.268296 -1.968368 1.982966 0
M  V30 38 H -1.108424 -0.625477 -1.423740 0
M  V30 39 H -1.988242 -1.891143 -2.269196 0
M  V30 40 H 1.553650 -1.065057 0.968818 0
M  V30 41 H 2.455003 -0.352864 -0.489202 0
M  V30 42 H -0.001349 3.174327 -0.422048 0
M  V30 43 H -1.180585 2.454897 0.688607 0
M  V30 44 H 1.079833 6.390912 5.382266 0
M  V30 45 H 0.678053 4.451995 6.060178 0
M  V30 46 H -0.534165 2.395774 6.555911 0
M  V30 47 H -1.321377 0.895876 4.752134 0
M  V30 48 H -0.870098 1.507494 2.478421 0
M  V30 49 H -1.032184 -3.991906 -2.610890 0
M  V30 50 H 1.004122 -2.886570 -3.912440 0
M  V30 51 H 2.028324 -3.850618 -2.718796 0
M  V30 52 H 1.782880 -5.288887 -4.443524 0
M  V30 53 H -0.051529 -5.055281 -4.585398 0
M  V30 54 H -0.543385 -5.205314 -0.623504 0
M  V30 55 H 1.215871 -4.728230 -0.664489 0
M  V30 END ATOM
M  V30 BEGIN BOND
M  V30 1 1 1 2
M  V30 2 1 2 3
M  V30 3 1 2 4
M  V30 4 1 4 5
M  V30 5 1 5 6
M  V30 6 2 6 7
M  V30 7 1 6 8
M  V30 8 1 8 9
M  V30 9 1 9 10
M  V30 10 2 10 11
M  V30 11 1 10 12
M  V30 12 1 12 13
M  V30 13 2 13 14
M  V30 14 1 14 15
M  V30 15 2 15 16
M  V30 16 1 16 17
M  V30 17 1 16 18
M  V30 18 2 18 19
M  V30 19 1 19 20
M  V30 20 2 20 21
M  V30 21 1 21 22
M  V30 22 2 22 23
M  V30 23 1 5 24
M  V30 24 1 24 25
M  V30 25 1 25 26
M  V30 26 1 26 27
M  V30 27 2 27 28
M  V30 28 2 27 29
M  V30 29 1 27 30
M  V30 30 1 23 13
M  V30 31 1 30 24
M  V30 32 1 23 18
M  V30 33 1 1 31
M  V30 34 1 1 32
M  V30 35 1 1 33
M  V30 36 1 2 34
M  V30 37 1 3 35
M  V30 38 1 3 36
M  V30 39 1 3 37
M  V30 40 1 4 38
M  V30 41 1 4 39
M  V30 42 1 8 40
M  V30 43 1 8 41
M  V30 44 1 12 42
M  V30 45 1 12 43
M  V30 46 1 17 44
M  V30 47 1 19 45
M  V30 48 1 20 46
M  V30 49 1 21 47
M  V30 50 1 22 48
M  V30 51 1 24 49
M  V30 52 1 25 50
M  V30 53 1 25 51
M  V30 54 1 26 52
M  V30 55 1 26 53
M  V30 56 1 30 54
M  V30 57 1 30 55
M  V30 END BOND
M  V30 END CTAB
M  END
>  <Dataset>  (250) 
ChEMBL_Kinases

>  <Ligand_Instance>  (250) 
nan

>  <PDB_ID>  (250) 
nan

>  <Standardized_SMILES>  (250) 
CC(C)CN(C(=O)COC(=O)Cc1nnc(O)c2ccccc12)C1CCS(=O)(=O)C1

>  <Name>  (250) 
nan

>  <Pocket>  (250) 
nan

>  <ATP_Site>  (250) 
nan

>  <Peripheral>  (250) 
nan

>  <Num_H_Atoms_ProtBoundConf>  (250) 
nan

>  <Num_Resolved_Atoms>  (250) 
nan

>  <Num_Not_Resolved_Atoms>  (250) 
nan

$$$$
CHEMBL1490371
     RDKit          3D

  0  0  0  0  0  0  0  0  0  0999 V3000
M  V30 BEGIN CTAB
M  V30 COUNTS 52 55 0 0 0
M  V30 BEGIN ATOM
M  V30 1 O 1.807849 -3.390581 2.615880 0
M  V30 2 C 1.890324 -2.142982 2.354602 0
M  V30 3 N 3.075079 -1.461230 2.717853 0
M  V30 4 C 4.231656 -2.029526 3.367100 0
M  V30 5 C 4.349644 -1.322103 4.719743 0
M  V30 6 C 4.514615 0.162839 4.531220 0
M  V30 7 C 5.633304 0.529284 3.606946 0
M  V30 8 C 5.741038 -0.319450 2.381646 0
M  V30 9 C 5.523953 -1.777573 2.650630 0
M  V30 10 C 0.784158 -1.449939 1.697966 0
M  V30 11 C 0.783287 -0.097868 1.375297 0
M  V30 12 C -0.300845 0.487463 0.754074 0
M  V30 13 C -1.427979 -0.237834 0.426143 0
M  V30 14 C -2.537212 0.301567 -0.195434 0
M  V30 15 O -2.415677 1.529611 -0.434148 0
M  V30 16 N -3.625577 -0.451134 -0.499736 0
M  V30 17 C -4.662475 0.329611 -1.144322 0
M  V30 18 C -4.542060 0.369572 -2.640280 0
M  V30 19 C -4.615082 -0.973675 -3.303791 0
M  V30 20 C -4.930236 -0.582694 -4.738775 0
M  V30 21 C -5.636716 0.741901 -4.544139 0
M  V30 22 O -5.627466 1.022845 -3.179851 0
M  V30 23 C -3.611520 -1.756106 -0.182336 0
M  V30 24 O -4.645863 -2.366232 -0.496319 0
M  V30 25 N -2.532367 -2.284029 0.423098 0
M  V30 26 C -1.428479 -1.585360 0.747121 0
M  V30 27 C -0.349693 -2.164695 1.364541 0
M  V30 28 H 3.211173 -0.453457 2.537615 0
M  V30 29 H 4.128029 -3.100169 3.576775 0
M  V30 30 H 5.153254 -1.734579 5.345948 0
M  V30 31 H 3.366187 -1.470233 5.222056 0
M  V30 32 H 3.563574 0.656921 4.303876 0
M  V30 33 H 4.807749 0.557815 5.546718 0
M  V30 34 H 5.437783 1.585764 3.275223 0
M  V30 35 H 6.607794 0.601643 4.151802 0
M  V30 36 H 6.812117 -0.230565 2.035167 0
M  V30 37 H 5.127667 0.041363 1.533448 0
M  V30 38 H 6.332246 -2.084493 3.361979 0
M  V30 39 H 5.615621 -2.347495 1.727512 0
M  V30 40 H 1.642547 0.473945 1.620798 0
M  V30 41 H -0.286786 1.549881 0.507076 0
M  V30 42 H -4.738731 1.346599 -0.729149 0
M  V30 43 H -5.672107 -0.132618 -0.938697 0
M  V30 44 H -3.576309 0.887610 -2.857536 0
M  V30 45 H -5.531280 -1.489686 -2.937542 0
M  V30 46 H -3.704831 -1.573752 -3.241100 0
M  V30 47 H -5.556897 -1.321480 -5.259702 0
M  V30 48 H -4.014162 -0.429202 -5.343633 0
M  V30 49 H -5.107319 1.540670 -5.112447 0
M  V30 50 H -6.671952 0.688181 -4.939323 0
M  V30 51 H -2.577410 -3.313258 0.648436 0
M  V30 52 H -0.449275 -3.227629 1.573661 0
M  V30 END ATOM
M  V30 BEGIN BOND
M  V30 1 2 1 2
M  V30 2 1 2 3
M  V30 3 1 3 4
M  V30 4 1 4 5
M  V30 5 1 5 6
M  V30 6 1 6 7
M  V30 7 1 7 8
M  V30 8 1 8 9
M  V30 9 1 2 10
M  V30 10 2 10 11
M  V30 11 1 11 12
M  V30 12 2 12 13
M  V30 13 1 13 14
M  V30 14 2 14 15
M  V30 15 1 14 16
M  V30 16 1 16 17
M  V30 17 1 17 18
M  V30 18 1 18 19
M  V30 19 1 19 20
M  V30 20 1 20 21
M  V30 21 1 21 22
M  V30 22 1 16 23
M  V30 23 2 23 24
M  V30 24 1 23 25
M  V30 25 1 25 26
M  V30 26 2 26 27
M  V30 27 1 9 4
M  V30 28 1 27 10
M  V30 29 1 26 13
M  V30 30 1 22 18
M  V30 31 1 3 28
M  V30 32 1 4 29
M  V30 33 1 5 30
M  V30 34 1 5 31
M  V30 35 1 6 32
M  V30 36 1 6 33
M  V30 37 1 7 34
M  V30 38 1 7 35
M  V30 39 1 8 36
M  V30 40 1 8 37
M  V30 41 1 9 38
M  V30 42 1 9 39
M  V30 43 1 11 40
M  V30 44 1 12 41
M  V30 45 1 17 42
M  V30 46 1 17 43
M  V30 47 1 18 44
M  V30 48 1 19 45
M  V30 49 1 19 46
M  V30 50 1 20 47
M  V30 51 1 20 48
M  V30 52 1 21 49
M  V30 53 1 21 50
M  V30 54 1 25 51
M  V30 55 1 27 52
M  V30 END BOND
M  V30 END CTAB
M  END
>  <Dataset>  (251) 
ChEMBL_Kinases

>  <Ligand_Instance>  (251) 
nan

>  <PDB_ID>  (251) 
nan

>  <Standardized_SMILES>  (251) 
O=C(NC1CCCCC1)c1ccc2c(=O)n(CC3CCCO3)c(=O)[nH]c2c1

>  <Name>  (251) 
nan

>  <Pocket>  (251) 
nan

>  <ATP_Site>  (251) 
nan

>  <Peripheral>  (251) 
nan

>  <Num_H_Atoms_ProtBoundConf>  (251) 
nan

>  <Num_Resolved_Atoms>  (251) 
nan

>  <Num_Not_Resolved_Atoms>  (251) 
nan

$$$$
CHEMBL1489479
     RDKit          3D

  0  0  0  0  0  0  0  0  0  0999 V3000
M  V30 BEGIN CTAB
M  V30 COUNTS 53 54 0 0 0
M  V30 BEGIN ATOM
M  V30 1 C 3.738859 -5.201808 1.527113 0
M  V30 2 C 4.229772 -4.004806 2.308831 0
M  V30 3 C 5.269113 -3.217204 1.538593 0
M  V30 4 C 3.200552 -3.237685 2.988773 0
M  V30 5 N 2.128072 -2.611680 2.305891 0
M  V30 6 C 2.222588 -1.325919 1.838293 0
M  V30 7 N 3.481984 -0.690578 2.101613 0
M  V30 8 C 1.149470 -0.804147 1.196400 0
M  V30 9 C 1.305269 0.562833 0.721057 0
M  V30 10 O 2.444309 1.098851 0.970011 0
M  V30 11 C 0.571219 1.619469 0.008509 0
M  V30 12 O -0.740667 1.262859 -0.381215 0
M  V30 13 C -1.548724 2.137824 -1.050027 0
M  V30 14 O -0.768124 3.137122 -1.126704 0
M  V30 15 C -2.931880 1.679796 -1.428343 0
M  V30 16 C -3.681407 1.313839 -0.200486 0
M  V30 17 C -4.650586 2.413812 0.129504 0
M  V30 18 C -5.669741 2.427798 -0.986736 0
M  V30 19 C -5.074872 2.652308 -2.328744 0
M  V30 20 C -3.575085 2.627500 -2.360302 0
M  V30 21 C 0.042062 -1.585066 1.053126 0
M  V30 22 O -0.961835 -1.128812 0.465118 0
M  V30 23 N -0.064961 -2.843674 1.504886 0
M  V30 24 C -1.270006 -3.631932 1.324372 0
M  V30 25 C 1.008037 -3.329622 2.132737 0
M  V30 26 O 0.933207 -4.506359 2.565507 0
M  V30 27 H 2.972424 -4.932653 0.759842 0
M  V30 28 H 4.545061 -5.678050 0.929642 0
M  V30 29 H 3.384467 -6.019866 2.191623 0
M  V30 30 H 4.833300 -4.462885 3.142443 0
M  V30 31 H 6.120577 -3.877119 1.240329 0
M  V30 32 H 5.762328 -2.448790 2.170953 0
M  V30 33 H 4.855729 -2.661759 0.671686 0
M  V30 34 H 2.773088 -3.849320 3.819848 0
M  V30 35 H 3.715011 -2.396504 3.543313 0
M  V30 36 H 4.270908 -0.404895 1.466715 0
M  V30 37 H 3.912281 -0.359636 3.002036 0
M  V30 38 H 1.157660 1.977761 -0.892311 0
M  V30 39 H 0.496147 2.515432 0.696029 0
M  V30 40 H -2.741991 0.726277 -2.004318 0
M  V30 41 H -4.238724 0.361361 -0.292608 0
M  V30 42 H -2.967140 1.160533 0.630438 0
M  V30 43 H -4.090347 3.362395 0.201921 0
M  V30 44 H -5.183810 2.226928 1.069920 0
M  V30 45 H -6.251523 1.491318 -0.921450 0
M  V30 46 H -6.358472 3.263304 -0.749149 0
M  V30 47 H -5.425812 1.820676 -2.998024 0
M  V30 48 H -5.472497 3.575657 -2.796140 0
M  V30 49 H -3.192960 2.470572 -3.387180 0
M  V30 50 H -3.249168 3.660173 -2.065006 0
M  V30 51 H -1.960042 -3.433745 2.187155 0
M  V30 52 H -1.825374 -3.222148 0.430657 0
M  V30 53 H -1.041682 -4.693719 1.201461 0
M  V30 END ATOM
M  V30 BEGIN BOND
M  V30 1 1 1 2
M  V30 2 1 2 3
M  V30 3 1 2 4
M  V30 4 1 4 5
M  V30 5 1 5 6
M  V30 6 1 6 7
M  V30 7 2 6 8
M  V30 8 1 8 9
M  V30 9 2 9 10
M  V30 10 1 9 11
M  V30 11 1 11 12
M  V30 12 1 12 13
M  V30 13 2 13 14
M  V30 14 1 13 15
M  V30 15 1 15 16
M  V30 16 1 16 17
M  V30 17 1 17 18
M  V30 18 1 18 19
M  V30 19 1 19 20
M  V30 20 1 8 21
M  V30 21 2 21 22
M  V30 22 1 21 23
M  V30 23 1 23 24
M  V30 24 1 23 25
M  V30 25 2 25 26
M  V30 26 1 25 5
M  V30 27 1 20 15
M  V30 28 1 1 27
M  V30 29 1 1 28
M  V30 30 1 1 29
M  V30 31 1 2 30
M  V30 32 1 3 31
M  V30 33 1 3 32
M  V30 34 1 3 33
M  V30 35 1 4 34
M  V30 36 1 4 35
M  V30 37 1 7 36
M  V30 38 1 7 37
M  V30 39 1 11 38
M  V30 40 1 11 39
M  V30 41 1 15 40
M  V30 42 1 16 41
M  V30 43 1 16 42
M  V30 44 1 17 43
M  V30 45 1 17 44
M  V30 46 1 18 45
M  V30 47 1 18 46
M  V30 48 1 19 47
M  V30 49 1 19 48
M  V30 50 1 20 49
M  V30 51 1 20 50
M  V30 52 1 24 51
M  V30 53 1 24 52
M  V30 54 1 24 53
M  V30 END BOND
M  V30 END CTAB
M  END
>  <Dataset>  (252) 
ChEMBL_Kinases

>  <Ligand_Instance>  (252) 
nan

>  <PDB_ID>  (252) 
nan

>  <Standardized_SMILES>  (252) 
CC(C)Cn1c(N)c(C(=O)COC(=O)C2CCCCC2)c(=O)n(C)c1=O

>  <Name>  (252) 
nan

>  <Pocket>  (252) 
nan

>  <ATP_Site>  (252) 
nan

>  <Peripheral>  (252) 
nan

>  <Num_H_Atoms_ProtBoundConf>  (252) 
nan

>  <Num_Resolved_Atoms>  (252) 
nan

>  <Num_Not_Resolved_Atoms>  (252) 
nan

$$$$
CHEMBL1489518
     RDKit          3D

  0  0  0  0  0  0  0  0  0  0999 V3000
M  V30 BEGIN CTAB
M  V30 COUNTS 38 39 0 0 0
M  V30 BEGIN ATOM
M  V30 1 C -1.027498 -3.946381 2.804886 0
M  V30 2 O -0.243317 -3.033711 3.512378 0
M  V30 3 C 0.166673 -1.812246 3.050067 0
M  V30 4 C -0.186370 -1.387339 1.797015 0
M  V30 5 C 0.188848 -0.174183 1.267372 0
M  V30 6 N -0.158353 0.295724 -0.023183 0
M  V30 7 C 0.649646 0.044946 -1.174003 0
M  V30 8 O 1.719720 -0.613603 -1.089016 0
M  V30 9 C 0.308362 0.524696 -2.530618 0
M  V30 10 C 0.222321 -0.578199 -3.537503 0
M  V30 11 C -1.262527 -0.828806 -3.643538 0
M  V30 12 C -1.847020 0.472675 -3.170974 0
M  V30 13 O -0.856356 1.239753 -2.614756 0
M  V30 14 C 0.962867 0.644099 2.058032 0
M  V30 15 C 1.450277 1.959115 1.661643 0
M  V30 16 O 2.148667 2.807298 2.252306 0
M  V30 17 O 1.078919 2.374242 0.378938 0
M  V30 18 C 1.332291 0.228336 3.336959 0
M  V30 19 C 0.935032 -1.000746 3.835835 0
M  V30 20 O 1.281037 -1.441391 5.090962 0
M  V30 21 C 2.071783 -0.655631 5.954844 0
M  V30 22 H -1.559257 -4.586553 3.539403 0
M  V30 23 H -1.781161 -3.482983 2.157100 0
M  V30 24 H -0.360316 -4.620490 2.222909 0
M  V30 25 H -0.795002 -2.008228 1.150091 0
M  V30 26 H -1.039177 0.844727 -0.127247 0
M  V30 27 H 1.131771 1.230752 -2.812840 0
M  V30 28 H 0.596139 -0.208567 -4.510664 0
M  V30 29 H 0.791073 -1.473669 -3.264394 0
M  V30 30 H -1.615676 -1.659846 -3.006182 0
M  V30 31 H -1.549262 -1.100899 -4.680210 0
M  V30 32 H -2.325156 1.024307 -4.020859 0
M  V30 33 H -2.661392 0.330570 -2.435937 0
M  V30 34 H 1.033375 3.338778 0.109028 0
M  V30 35 H 1.943513 0.849439 3.989349 0
M  V30 36 H 1.497813 0.267411 6.158614 0
M  V30 37 H 2.192525 -1.194601 6.931487 0
M  V30 38 H 3.039909 -0.489929 5.464889 0
M  V30 END ATOM
M  V30 BEGIN BOND
M  V30 1 1 1 2
M  V30 2 1 2 3
M  V30 3 2 3 4
M  V30 4 1 4 5
M  V30 5 1 5 6
M  V30 6 1 6 7
M  V30 7 2 7 8
M  V30 8 1 7 9
M  V30 9 1 9 10
M  V30 10 1 10 11
M  V30 11 1 11 12
M  V30 12 1 12 13
M  V30 13 2 5 14
M  V30 14 1 14 15
M  V30 15 2 15 16
M  V30 16 1 15 17
M  V30 17 1 14 18
M  V30 18 2 18 19
M  V30 19 1 19 20
M  V30 20 1 20 21
M  V30 21 1 19 3
M  V30 22 1 13 9
M  V30 23 1 1 22
M  V30 24 1 1 23
M  V30 25 1 1 24
M  V30 26 1 4 25
M  V30 27 1 6 26
M  V30 28 1 9 27
M  V30 29 1 10 28
M  V30 30 1 10 29
M  V30 31 1 11 30
M  V30 32 1 11 31
M  V30 33 1 12 32
M  V30 34 1 12 33
M  V30 35 1 17 34
M  V30 36 1 18 35
M  V30 37 1 21 36
M  V30 38 1 21 37
M  V30 39 1 21 38
M  V30 END BOND
M  V30 END CTAB
M  END
>  <Dataset>  (253) 
ChEMBL_Kinases

>  <Ligand_Instance>  (253) 
nan

>  <PDB_ID>  (253) 
nan

>  <Standardized_SMILES>  (253) 
COc1cc(NC(=O)C2CCCO2)c(C(=O)O)cc1OC

>  <Name>  (253) 
nan

>  <Pocket>  (253) 
nan

>  <ATP_Site>  (253) 
nan

>  <Peripheral>  (253) 
nan

>  <Num_H_Atoms_ProtBoundConf>  (253) 
nan

>  <Num_Resolved_Atoms>  (253) 
nan

>  <Num_Not_Resolved_Atoms>  (253) 
nan

$$$$
CHEMBL1489690
     RDKit          3D

  0  0  0  0  0  0  0  0  0  0999 V3000
M  V30 BEGIN CTAB
M  V30 COUNTS 37 38 0 0 0
M  V30 BEGIN ATOM
M  V30 1 C -0.152804 -2.821740 4.353038 0
M  V30 2 C -0.367418 -3.312980 2.980347 0
M  V30 3 O -1.398384 -4.018557 2.721270 0
M  V30 4 C 0.550266 -3.024648 1.909959 0
M  V30 5 C 1.701135 -2.261897 2.103847 0
M  V30 6 C 2.601318 -1.966436 1.102217 0
M  V30 7 C 2.304992 -2.478426 -0.156321 0
M  V30 8 N 3.255276 -2.159051 -1.185095 0
M  V30 9 N 3.089030 -1.021275 -1.760561 0
M  V30 10 C 1.981709 -0.218355 -1.305460 0
M  V30 11 C 0.768716 -0.480319 -1.917243 0
M  V30 12 C -0.305972 0.278035 -1.495872 0
M  V30 13 C -0.263625 1.254562 -0.533556 0
M  V30 14 N -1.388215 2.011181 -0.128556 0
M  V30 15 C -1.250214 3.021788 0.895053 0
M  V30 16 C -2.699807 1.829540 -0.691206 0
M  V30 17 C 0.958830 1.464748 0.030648 0
M  V30 18 C 2.097247 0.743166 -0.336198 0
M  V30 19 C 1.190567 -3.241554 -0.438007 0
M  V30 20 C 0.355248 -3.478287 0.634817 0
M  V30 21 H 0.335512 -1.834274 4.350641 0
M  V30 22 H -1.160889 -2.771928 4.858640 0
M  V30 23 H 0.450064 -3.530177 4.968885 0
M  V30 24 H 1.938518 -1.857734 3.089118 0
M  V30 25 H 3.485222 -1.373932 1.276697 0
M  V30 26 H 0.663137 -1.238720 -2.686009 0
M  V30 27 H -1.253705 0.056444 -1.990312 0
M  V30 28 H -0.346586 3.630146 0.629395 0
M  V30 29 H -0.992921 2.458981 1.829996 0
M  V30 30 H -2.122974 3.664426 0.990115 0
M  V30 31 H -2.848266 0.774669 -0.939980 0
M  V30 32 H -3.492776 2.151023 0.013962 0
M  V30 33 H -2.769345 2.428630 -1.622043 0
M  V30 34 H 1.126930 2.195537 0.790946 0
M  V30 35 H 3.087693 0.861186 0.070081 0
M  V30 36 H 1.002453 -3.618183 -1.434605 0
M  V30 37 H -0.532317 -4.072012 0.464320 0
M  V30 END ATOM
M  V30 BEGIN BOND
M  V30 1 1 1 2
M  V30 2 2 2 3
M  V30 3 1 2 4
M  V30 4 2 4 5
M  V30 5 1 5 6
M  V30 6 2 6 7
M  V30 7 1 7 8
M  V30 8 2 8 9 CFG=2
M  V30 9 1 9 10
M  V30 10 2 10 11
M  V30 11 1 11 12
M  V30 12 2 12 13
M  V30 13 1 13 14
M  V30 14 1 14 15
M  V30 15 1 14 16
M  V30 16 1 13 17
M  V30 17 2 17 18
M  V30 18 1 7 19
M  V30 19 2 19 20
M  V30 20 1 20 4
M  V30 21 1 18 10
M  V30 22 1 1 21
M  V30 23 1 1 22
M  V30 24 1 1 23
M  V30 25 1 5 24
M  V30 26 1 6 25
M  V30 27 1 11 26
M  V30 28 1 12 27
M  V30 29 1 15 28
M  V30 30 1 15 29
M  V30 31 1 15 30
M  V30 32 1 16 31
M  V30 33 1 16 32
M  V30 34 1 16 33
M  V30 35 1 17 34
M  V30 36 1 18 35
M  V30 37 1 19 36
M  V30 38 1 20 37
M  V30 END BOND
M  V30 END CTAB
M  END
>  <Dataset>  (254) 
ChEMBL_Kinases

>  <Ligand_Instance>  (254) 
nan

>  <PDB_ID>  (254) 
nan

>  <Standardized_SMILES>  (254) 
CC(=O)c1ccc(N=Nc2ccc(N(C)C)cc2)cc1

>  <Name>  (254) 
nan

>  <Pocket>  (254) 
nan

>  <ATP_Site>  (254) 
nan

>  <Peripheral>  (254) 
nan

>  <Num_H_Atoms_ProtBoundConf>  (254) 
nan

>  <Num_Resolved_Atoms>  (254) 
nan

>  <Num_Not_Resolved_Atoms>  (254) 
nan

$$$$
CHEMBL1489704
     RDKit          3D

  0  0  0  0  0  0  0  0  0  0999 V3000
M  V30 BEGIN CTAB
M  V30 COUNTS 41 43 0 0 0
M  V30 BEGIN ATOM
M  V30 1 C 1.060708 -5.083259 1.152714 0
M  V30 2 C 1.326215 -3.806571 1.936087 0
M  V30 3 N 0.345062 -2.795974 1.570977 0
M  V30 4 C 0.495595 -1.885065 0.559507 0
M  V30 5 S 2.068937 -2.072449 -0.270941 0
M  V30 6 C 3.371226 -1.088263 0.466352 0
M  V30 7 C 3.279427 0.350962 0.304730 0
M  V30 8 O 4.220039 0.838948 1.034192 0
M  V30 9 C 2.455426 1.274614 -0.417110 0
M  V30 10 C 1.441992 1.002744 -1.310897 0
M  V30 11 C 0.664260 1.909274 -1.972558 0
M  V30 12 C 0.916590 3.226623 -1.723720 0
M  V30 13 C 1.902229 3.590701 -0.853289 0
M  V30 14 C 2.649693 2.643336 -0.218323 0
M  V30 15 N -0.497735 -1.047669 0.367966 0
M  V30 16 C -1.653180 -0.969569 1.043680 0
M  V30 17 C -1.801069 -1.888621 2.061946 0
M  V30 18 C -0.783836 -2.783452 2.294839 0
M  V30 19 O -1.046276 -3.576538 3.261107 0
M  V30 20 S -3.439131 -1.470190 2.720232 0
M  V30 21 C -3.381255 0.282347 2.157142 0
M  V30 22 C -2.362540 0.987185 2.990439 0
M  V30 23 C -2.745582 -0.004893 0.786376 0
M  V30 24 H 0.089543 -5.034914 0.620430 0
M  V30 25 H 1.062340 -5.987667 1.801965 0
M  V30 26 H 1.841868 -5.227038 0.376684 0
M  V30 27 H 2.360357 -3.468957 1.706468 0
M  V30 28 H 1.246091 -3.985663 3.020056 0
M  V30 29 H 3.570861 -1.404811 1.536488 0
M  V30 30 H 4.321709 -1.411942 -0.055519 0
M  V30 31 H 1.253110 -0.036322 -1.512861 0
M  V30 32 H -0.114910 1.561539 -2.661651 0
M  V30 33 H 0.303830 3.967681 -2.241109 0
M  V30 34 H 2.084038 4.648807 -0.671783 0
M  V30 35 H 3.416479 3.008544 0.460908 0
M  V30 36 H -4.355641 0.735058 2.068374 0
M  V30 37 H -1.590410 0.220688 3.296532 0
M  V30 38 H -2.783959 1.427919 3.893835 0
M  V30 39 H -1.768195 1.727936 2.388394 0
M  V30 40 H -3.528681 -0.421657 0.123028 0
M  V30 41 H -2.342389 0.950528 0.463392 0
M  V30 END ATOM
M  V30 BEGIN BOND
M  V30 1 1 1 2
M  V30 2 1 2 3
M  V30 3 1 3 4
M  V30 4 1 4 5
M  V30 5 1 5 6
M  V30 6 1 6 7
M  V30 7 2 7 8
M  V30 8 1 7 9
M  V30 9 2 9 10
M  V30 10 1 10 11
M  V30 11 2 11 12
M  V30 12 1 12 13
M  V30 13 2 13 14
M  V30 14 2 4 15
M  V30 15 1 15 16
M  V30 16 2 16 17
M  V30 17 1 17 18
M  V30 18 2 18 19
M  V30 19 1 17 20
M  V30 20 1 20 21
M  V30 21 1 21 22
M  V30 22 1 21 23
M  V30 23 1 18 3
M  V30 24 1 14 9
M  V30 25 1 23 16
M  V30 26 1 1 24
M  V30 27 1 1 25
M  V30 28 1 1 26
M  V30 29 1 2 27
M  V30 30 1 2 28
M  V30 31 1 6 29
M  V30 32 1 6 30
M  V30 33 1 10 31
M  V30 34 1 11 32
M  V30 35 1 12 33
M  V30 36 1 13 34
M  V30 37 1 14 35
M  V30 38 1 21 36
M  V30 39 1 22 37
M  V30 40 1 22 38
M  V30 41 1 22 39
M  V30 42 1 23 40
M  V30 43 1 23 41
M  V30 END BOND
M  V30 END CTAB
M  END
>  <Dataset>  (255) 
ChEMBL_Kinases

>  <Ligand_Instance>  (255) 
nan

>  <PDB_ID>  (255) 
nan

>  <Standardized_SMILES>  (255) 
CCn1c(SCC(=O)c2ccccc2)nc2c(c1=O)SC(C)C2

>  <Name>  (255) 
nan

>  <Pocket>  (255) 
nan

>  <ATP_Site>  (255) 
nan

>  <Peripheral>  (255) 
nan

>  <Num_H_Atoms_ProtBoundConf>  (255) 
nan

>  <Num_Resolved_Atoms>  (255) 
nan

>  <Num_Not_Resolved_Atoms>  (255) 
nan

$$$$
CHEMBL1489733
     RDKit          3D

  0  0  0  0  0  0  0  0  0  0999 V3000
M  V30 BEGIN CTAB
M  V30 COUNTS 49 53 0 0 0
M  V30 BEGIN ATOM
M  V30 1 O 3.296738 -3.388905 -2.727322 0
M  V30 2 S 2.962809 -3.417743 -1.247148 0
M  V30 3 O 3.082434 -4.832406 -0.739591 0
M  V30 4 N 1.361582 -2.900513 -1.028590 0
M  V30 5 C 1.012806 -1.582774 -1.426502 0
M  V30 6 C -0.493070 -1.314426 -1.160861 0
M  V30 7 O -0.781052 -0.029936 -1.561575 0
M  V30 8 C -2.072127 0.365121 -1.395863 0
M  V30 9 C -3.083776 -0.461460 -2.144563 0
M  V30 10 C -4.443829 0.174231 -2.022614 0
M  V30 11 C -4.891472 0.117987 -0.582458 0
M  V30 12 C -3.875122 0.906444 0.224356 0
M  V30 13 C -3.957377 2.333131 -0.256271 0
M  V30 14 C -3.510077 2.400647 -1.686576 0
M  V30 15 C -4.411444 1.583776 -2.565229 0
M  V30 16 C -2.129223 1.824484 -1.807262 0
M  V30 17 C -2.501548 0.327539 0.072662 0
M  V30 18 C 4.066194 -2.435641 -0.341749 0
M  V30 19 C 4.614175 -2.934081 0.814979 0
M  V30 20 C 5.453621 -2.154194 1.568013 0
M  V30 21 C 5.743923 -0.875441 1.161674 0
M  V30 22 C 5.164264 -0.449759 0.002948 0
M  V30 23 N 5.575146 0.928220 -0.341529 0
M  V30 24 S 4.637079 1.081405 -1.916823 0
M  V30 25 N 3.900062 -0.469848 -1.957029 0
M  V30 26 C 4.348592 -1.176002 -0.749907 0
M  V30 27 H 1.083402 -3.070677 -0.046255 0
M  V30 28 H 1.589494 -0.886156 -0.742037 0
M  V30 29 H 1.297460 -1.310233 -2.451916 0
M  V30 30 H -0.602499 -1.348862 -0.055818 0
M  V30 31 H -1.114403 -2.107452 -1.575878 0
M  V30 32 H -3.163803 -1.449896 -1.644404 0
M  V30 33 H -2.863714 -0.536656 -3.231324 0
M  V30 34 H -5.177624 -0.429262 -2.598822 0
M  V30 35 H -4.907461 -0.954048 -0.299103 0
M  V30 36 H -5.864836 0.634560 -0.458671 0
M  V30 37 H -4.141180 0.910268 1.294933 0
M  V30 38 H -5.023662 2.648658 -0.175122 0
M  V30 39 H -3.362695 3.017981 0.375032 0
M  V30 40 H -3.461629 3.450000 -2.007501 0
M  V30 41 H -3.937895 1.525849 -3.553993 0
M  V30 42 H -5.403468 2.017530 -2.686564 0
M  V30 43 H -1.702662 1.890471 -2.812417 0
M  V30 44 H -1.442705 2.374697 -1.109894 0
M  V30 45 H -1.807278 0.950349 0.678702 0
M  V30 46 H -2.532531 -0.705715 0.475453 0
M  V30 47 H 4.368105 -3.961495 1.121696 0
M  V30 48 H 5.841879 -2.619086 2.461723 0
M  V30 49 H 6.407902 -0.376951 1.837037 0
M  V30 END ATOM
M  V30 BEGIN BOND
M  V30 1 2 1 2
M  V30 2 2 2 3
M  V30 3 1 2 4
M  V30 4 1 4 5
M  V30 5 1 5 6
M  V30 6 1 6 7
M  V30 7 1 7 8
M  V30 8 1 8 9
M  V30 9 1 9 10
M  V30 10 1 10 11
M  V30 11 1 11 12
M  V30 12 1 12 13
M  V30 13 1 13 14
M  V30 14 1 14 15
M  V30 15 1 14 16
M  V30 16 1 12 17
M  V30 17 1 2 18
M  V30 18 2 18 19
M  V30 19 1 19 20
M  V30 20 2 20 21
M  V30 21 1 21 22
M  V30 22 2 22 23
M  V30 23 1 23 24
M  V30 24 1 24 25
M  V30 25 2 25 26
M  V30 26 1 16 8
M  V30 27 1 26 18
M  V30 28 1 17 8
M  V30 29 1 26 22
M  V30 30 1 15 10
M  V30 31 1 4 27
M  V30 32 1 5 28
M  V30 33 1 5 29
M  V30 34 1 6 30
M  V30 35 1 6 31
M  V30 36 1 9 32
M  V30 37 1 9 33
M  V30 38 1 10 34
M  V30 39 1 11 35
M  V30 40 1 11 36
M  V30 41 1 12 37
M  V30 42 1 13 38
M  V30 43 1 13 39
M  V30 44 1 14 40
M  V30 45 1 15 41
M  V30 46 1 15 42
M  V30 47 1 16 43
M  V30 48 1 16 44
M  V30 49 1 17 45
M  V30 50 1 17 46
M  V30 51 1 19 47
M  V30 52 1 20 48
M  V30 53 1 21 49
M  V30 END BOND
M  V30 END CTAB
M  END
>  <Dataset>  (256) 
ChEMBL_Kinases

>  <Ligand_Instance>  (256) 
nan

>  <PDB_ID>  (256) 
nan

>  <Standardized_SMILES>  (256) 
O=S(=O)(NCCOC12CC3CC(CC(C3)C1)C2)c1cccc2nsnc12

>  <Name>  (256) 
nan

>  <Pocket>  (256) 
nan

>  <ATP_Site>  (256) 
nan

>  <Peripheral>  (256) 
nan

>  <Num_H_Atoms_ProtBoundConf>  (256) 
nan

>  <Num_Resolved_Atoms>  (256) 
nan

>  <Num_Not_Resolved_Atoms>  (256) 
nan

$$$$
CHEMBL1489737
     RDKit          3D

  0  0  0  0  0  0  0  0  0  0999 V3000
M  V30 BEGIN CTAB
M  V30 COUNTS 26 29 0 0 0
M  V30 BEGIN ATOM
M  V30 1 C -2.859996 -2.564136 1.832023 0
M  V30 2 C -1.899003 -2.602924 2.818455 0
M  V30 3 C -0.662561 -2.134029 2.435591 0
M  V30 4 C -0.306502 -1.638240 1.176643 0
M  V30 5 C 1.057130 -1.190387 0.929494 0
M  V30 6 C 2.037941 -2.140349 1.271831 0
M  V30 7 S 3.582610 -1.312059 0.827143 0
M  V30 8 C 2.854529 0.166834 0.246117 0
M  V30 9 N 3.421897 1.272832 -0.250896 0
M  V30 10 C 2.650831 2.320695 -0.640202 0
M  V30 11 N 1.344101 2.125992 -0.477284 0
M  V30 12 C 0.404127 3.057957 -0.802351 0
M  V30 13 N -0.792662 2.534082 -0.505945 0
M  V30 14 N -0.626875 1.321112 -0.013284 0
M  V30 15 C 0.699931 1.052922 0.010475 0
M  V30 16 C 1.495410 -0.003281 0.401082 0
M  V30 17 C -1.345406 -1.647415 0.271471 0
M  V30 18 C -2.612232 -2.096730 0.565385 0
M  V30 19 H -3.856718 -2.926173 2.090504 0
M  V30 20 H -2.032815 -2.958366 3.830144 0
M  V30 21 H 0.133080 -2.146256 3.188874 0
M  V30 22 H 2.010242 -3.118840 1.687718 0
M  V30 23 H 3.104805 3.212078 -1.040715 0
M  V30 24 H 0.495339 4.040529 -1.216377 0
M  V30 25 H -1.137885 -1.286068 -0.726919 0
M  V30 26 H -3.383360 -2.076708 -0.190832 0
M  V30 END ATOM
M  V30 BEGIN BOND
M  V30 1 2 1 2
M  V30 2 1 2 3
M  V30 3 2 3 4
M  V30 4 1 4 5
M  V30 5 2 5 6
M  V30 6 1 6 7
M  V30 7 1 7 8
M  V30 8 1 8 9
M  V30 9 2 9 10
M  V30 10 1 10 11
M  V30 11 1 11 12
M  V30 12 2 12 13
M  V30 13 1 13 14
M  V30 14 2 14 15
M  V30 15 1 15 16
M  V30 16 1 4 17
M  V30 17 2 17 18
M  V30 18 1 18 1
M  V30 19 1 16 5
M  V30 20 2 16 8
M  V30 21 1 15 11
M  V30 22 1 1 19
M  V30 23 1 2 20
M  V30 24 1 3 21
M  V30 25 1 6 22
M  V30 26 1 10 23
M  V30 27 1 12 24
M  V30 28 1 17 25
M  V30 29 1 18 26
M  V30 END BOND
M  V30 END CTAB
M  END
>  <Dataset>  (257) 
ChEMBL_Kinases

>  <Ligand_Instance>  (257) 
nan

>  <PDB_ID>  (257) 
nan

>  <Standardized_SMILES>  (257) 
c1ccc(-c2csc3ncn4cnnc4c23)cc1

>  <Name>  (257) 
nan

>  <Pocket>  (257) 
nan

>  <ATP_Site>  (257) 
nan

>  <Peripheral>  (257) 
nan

>  <Num_H_Atoms_ProtBoundConf>  (257) 
nan

>  <Num_Resolved_Atoms>  (257) 
nan

>  <Num_Not_Resolved_Atoms>  (257) 
nan

$$$$
CHEMBL1489767
     RDKit          3D

  0  0  0  0  0  0  0  0  0  0999 V3000
M  V30 BEGIN CTAB
M  V30 COUNTS 40 43 0 0 0
M  V30 BEGIN ATOM
M  V30 1 Cl 1.225881 -4.435110 4.530386 0
M  V30 2 C 2.453387 -3.925141 3.369862 0
M  V30 3 C 3.779008 -4.368981 3.403648 0
M  V30 4 C 4.669393 -3.914699 2.452920 0
M  V30 5 C 4.307056 -3.025029 1.449557 0
M  V30 6 C 3.010536 -2.576226 1.397335 0
M  V30 7 C 2.506638 -1.642536 0.393872 0
M  V30 8 C 3.091702 -1.711468 -0.864657 0
M  V30 9 C 2.620832 -0.836686 -1.806048 0
M  V30 10 C 1.627863 0.063057 -1.536821 0
M  V30 11 N 1.167142 0.925989 -2.474733 0
M  V30 12 C 0.186874 1.796650 -2.166982 0
M  V30 13 N -0.372517 1.857709 -0.951928 0
M  V30 14 C 0.032854 1.042632 0.006142 0
M  V30 15 N -0.570470 1.126485 1.284687 0
M  V30 16 C -1.628073 2.040466 1.668088 0
M  V30 17 C -2.879639 1.873785 0.913960 0
M  V30 18 C -3.755160 0.908559 1.390970 0
M  V30 19 C -4.993312 0.595025 0.841837 0
M  V30 20 C -5.371019 1.326900 -0.288723 0
M  V30 21 N -4.529457 2.262394 -0.755773 0
M  V30 22 C -3.338792 2.554015 -0.215827 0
M  V30 23 C 1.033787 0.151246 -0.302188 0
M  V30 24 C 1.506848 -0.728643 0.645757 0
M  V30 25 C 2.112258 -3.031711 2.352895 0
M  V30 26 H 4.048319 -5.064881 4.194078 0
M  V30 27 H 5.688977 -4.268843 2.495630 0
M  V30 28 H 5.004186 -2.671999 0.709412 0
M  V30 29 H 3.878435 -2.404352 -1.126975 0
M  V30 30 H 3.037061 -0.840949 -2.808077 0
M  V30 31 H -0.102197 2.440145 -2.998405 0
M  V30 32 H -0.255936 0.491319 2.048624 0
M  V30 33 H -1.236535 3.099322 1.567669 0
M  V30 34 H -1.853384 1.903621 2.741918 0
M  V30 35 H -3.509239 0.313134 2.265032 0
M  V30 36 H -5.628426 -0.162637 1.254168 0
M  V30 37 H -6.305928 1.152219 -0.775948 0
M  V30 38 H -2.669761 3.308063 -0.583352 0
M  V30 39 H 1.143519 -0.775136 1.640826 0
M  V30 40 H 1.070771 -2.696152 2.342989 0
M  V30 END ATOM
M  V30 BEGIN BOND
M  V30 1 1 1 2
M  V30 2 2 2 3
M  V30 3 1 3 4
M  V30 4 2 4 5
M  V30 5 1 5 6
M  V30 6 1 6 7
M  V30 7 2 7 8
M  V30 8 1 8 9
M  V30 9 2 9 10
M  V30 10 1 10 11
M  V30 11 2 11 12
M  V30 12 1 12 13
M  V30 13 2 13 14
M  V30 14 1 14 15
M  V30 15 1 15 16
M  V30 16 1 16 17
M  V30 17 2 17 18
M  V30 18 1 18 19
M  V30 19 2 19 20
M  V30 20 1 20 21
M  V30 21 2 21 22
M  V30 22 1 14 23
M  V30 23 2 23 24
M  V30 24 2 6 25
M  V30 25 1 25 2
M  V30 26 1 24 7
M  V30 27 1 23 10
M  V30 28 1 22 17
M  V30 29 1 3 26
M  V30 30 1 4 27
M  V30 31 1 5 28
M  V30 32 1 8 29
M  V30 33 1 9 30
M  V30 34 1 12 31
M  V30 35 1 15 32
M  V30 36 1 16 33
M  V30 37 1 16 34
M  V30 38 1 18 35
M  V30 39 1 19 36
M  V30 40 1 20 37
M  V30 41 1 22 38
M  V30 42 1 24 39
M  V30 43 1 25 40
M  V30 END BOND
M  V30 END CTAB
M  END
>  <Dataset>  (258) 
ChEMBL_Kinases

>  <Ligand_Instance>  (258) 
nan

>  <PDB_ID>  (258) 
nan

>  <Standardized_SMILES>  (258) 
Clc1cccc(-c2ccc3ncnc(NCc4cccnc4)c3c2)c1

>  <Name>  (258) 
nan

>  <Pocket>  (258) 
nan

>  <ATP_Site>  (258) 
nan

>  <Peripheral>  (258) 
nan

>  <Num_H_Atoms_ProtBoundConf>  (258) 
nan

>  <Num_Resolved_Atoms>  (258) 
nan

>  <Num_Not_Resolved_Atoms>  (258) 
nan

$$$$
CHEMBL1490024
     RDKit          3D

  0  0  0  0  0  0  0  0  0  0999 V3000
M  V30 BEGIN CTAB
M  V30 COUNTS 38 41 0 0 0
M  V30 BEGIN ATOM
M  V30 1 O 0.253734 -1.320701 2.433255 0
M  V30 2 C 0.153401 -0.344277 1.685084 0
M  V30 3 C 1.190146 0.517256 1.868361 0
M  V30 4 C 2.283940 0.328303 2.809347 0
M  V30 5 C 2.759977 1.294578 3.652316 0
M  V30 6 C 3.824533 0.983911 4.506492 0
M  V30 7 C 4.393712 -0.279189 4.505507 0
M  V30 8 F 5.414741 -0.449517 5.378031 0
M  V30 9 C 3.886920 -1.238741 3.636993 0
M  V30 10 F 4.544467 -2.432330 3.745552 0
M  V30 11 C 2.843302 -0.951266 2.792674 0
M  V30 12 N 1.221847 1.657713 1.115854 0
M  V30 13 C 0.210336 1.861293 0.226357 0
M  V30 14 C 0.315204 3.029866 -0.484702 0
M  V30 15 N -0.674238 3.280780 -1.384191 0
M  V30 16 C -1.688505 2.384247 -1.526777 0
M  V30 17 N -1.712261 1.264069 -0.787820 0
M  V30 18 C -0.790335 0.920746 0.123172 0
M  V30 19 N -0.881399 -0.240892 0.845133 0
M  V30 20 C -2.007338 -1.117520 0.664055 0
M  V30 21 C -1.905321 -2.073614 -0.450960 0
M  V30 22 C -2.542735 -1.706134 -1.632560 0
M  V30 23 C -2.574617 -2.424290 -2.830353 0
M  V30 24 C -1.903657 -3.630448 -2.852941 0
M  V30 25 C -1.258093 -4.045551 -1.719438 0
M  V30 26 C -1.261756 -3.281202 -0.546085 0
M  V30 27 Cl -0.458532 -3.928159 0.845647 0
M  V30 28 H 2.294675 2.267220 3.629463 0
M  V30 29 H 4.189277 1.770165 5.172236 0
M  V30 30 H 2.563782 -1.798381 2.180413 0
M  V30 31 H 1.118686 3.716413 -0.355700 0
M  V30 32 H -2.465561 2.623177 -2.262197 0
M  V30 33 H -2.218282 -1.698276 1.609109 0
M  V30 34 H -2.909239 -0.475168 0.481910 0
M  V30 35 H -3.137671 -0.802132 -1.829144 0
M  V30 36 H -3.051943 -2.178961 -3.764462 0
M  V30 37 H -1.831138 -4.306364 -3.699985 0
M  V30 38 H -0.715339 -4.997759 -1.697466 0
M  V30 END ATOM
M  V30 BEGIN BOND
M  V30 1 2 1 2
M  V30 2 1 2 3
M  V30 3 1 3 4
M  V30 4 2 4 5
M  V30 5 1 5 6
M  V30 6 2 6 7
M  V30 7 1 7 8
M  V30 8 1 7 9
M  V30 9 1 9 10
M  V30 10 2 9 11
M  V30 11 2 3 12
M  V30 12 1 12 13
M  V30 13 2 13 14
M  V30 14 1 14 15
M  V30 15 2 15 16
M  V30 16 1 16 17
M  V30 17 2 17 18
M  V30 18 1 18 19
M  V30 19 1 19 20
M  V30 20 1 20 21
M  V30 21 2 21 22
M  V30 22 1 22 23
M  V30 23 2 23 24
M  V30 24 1 24 25
M  V30 25 2 25 26
M  V30 26 1 26 27
M  V30 27 1 19 2
M  V30 28 1 26 21
M  V30 29 1 11 4
M  V30 30 1 18 13
M  V30 31 1 5 28
M  V30 32 1 6 29
M  V30 33 1 11 30
M  V30 34 1 14 31
M  V30 35 1 16 32
M  V30 36 1 20 33
M  V30 37 1 20 34
M  V30 38 1 22 35
M  V30 39 1 23 36
M  V30 40 1 24 37
M  V30 41 1 25 38
M  V30 END BOND
M  V30 END CTAB
M  END
>  <Dataset>  (259) 
ChEMBL_Kinases

>  <Ligand_Instance>  (259) 
nan

>  <PDB_ID>  (259) 
nan

>  <Standardized_SMILES>  (259) 
O=c1c(-c2ccc(F)c(F)c2)nc2cncnc2n1Cc1ccccc1Cl

>  <Name>  (259) 
nan

>  <Pocket>  (259) 
nan

>  <ATP_Site>  (259) 
nan

>  <Peripheral>  (259) 
nan

>  <Num_H_Atoms_ProtBoundConf>  (259) 
nan

>  <Num_Resolved_Atoms>  (259) 
nan

>  <Num_Not_Resolved_Atoms>  (259) 
nan

$$$$
CHEMBL1489478
     RDKit          3D

  0  0  0  0  0  0  0  0  0  0999 V3000
M  V30 BEGIN CTAB
M  V30 COUNTS 54 57 0 0 0
M  V30 BEGIN ATOM
M  V30 1 C 3.081769 -1.751886 2.119829 0
M  V30 2 C 4.450721 -1.135507 2.025034 0
M  V30 3 N 4.498680 0.226995 2.444753 0
M  V30 4 C 3.764580 0.514635 3.631654 0
M  V30 5 C 4.619965 1.438135 4.505182 0
M  V30 6 S 4.213096 1.346735 1.164860 0
M  V30 7 O 5.237159 1.176955 0.094469 0
M  V30 8 O 4.236215 2.740138 1.685656 0
M  V30 9 C 2.599822 1.036930 0.559225 0
M  V30 10 C 2.548475 0.110256 -0.482574 0
M  V30 11 C 1.326544 -0.201848 -1.026474 0
M  V30 12 C 0.161023 0.395665 -0.546713 0
M  V30 13 C 0.239988 1.307085 0.482599 0
M  V30 14 C 1.448255 1.629318 1.035556 0
M  V30 15 N -1.022568 1.704305 0.723795 0
M  V30 16 C -1.860328 1.058305 -0.130815 0
M  V30 17 S -3.612907 1.235046 -0.215860 0
M  V30 18 C -4.486219 0.087033 0.864105 0
M  V30 19 C -4.328105 -1.339956 0.458680 0
M  V30 20 N -3.304503 -2.063276 0.949569 0
M  V30 21 C -3.194202 -3.344857 0.564980 0
M  V30 22 O -2.236897 -4.279382 0.930276 0
M  V30 23 C -4.132446 -3.806849 -0.293931 0
M  V30 24 S -4.336124 -5.519965 -1.065933 0
M  V30 25 C -5.894402 -5.031892 -2.035942 0
M  V30 26 C -6.097858 -3.702169 -1.702961 0
M  V30 27 C -5.262622 -3.055906 -0.853380 0
M  V30 28 N -5.246194 -1.803299 -0.385945 0
M  V30 29 N -1.132095 0.235270 -0.932508 0
M  V30 30 C -1.544048 -0.658662 -1.997531 0
M  V30 31 C -1.530447 0.101438 -3.310364 0
M  V30 32 H 2.892694 -2.303861 1.176544 0
M  V30 33 H 3.023556 -2.495721 2.941403 0
M  V30 34 H 2.275269 -0.994940 2.182461 0
M  V30 35 H 5.130096 -1.735435 2.683293 0
M  V30 36 H 4.870050 -1.242017 1.008121 0
M  V30 37 H 3.624495 -0.411033 4.189022 0
M  V30 38 H 2.785715 1.009121 3.476789 0
M  V30 39 H 4.383656 1.336781 5.581763 0
M  V30 40 H 4.414890 2.493362 4.230641 0
M  V30 41 H 5.702140 1.187080 4.416743 0
M  V30 42 H 3.420640 -0.385375 -0.895960 0
M  V30 43 H 1.280493 -0.926613 -1.842216 0
M  V30 44 H 1.556906 2.336575 1.841739 0
M  V30 45 H -4.053499 0.178287 1.885267 0
M  V30 46 H -5.547489 0.382619 0.974740 0
M  V30 47 H -1.776972 -4.100426 1.813531 0
M  V30 48 H -6.357641 -5.689759 -2.615638 0
M  V30 49 H -6.943128 -3.217418 -2.149047 0
M  V30 50 H -0.817015 -1.492500 -2.061924 0
M  V30 51 H -2.564707 -0.994824 -1.812072 0
M  V30 52 H -2.266237 -0.394775 -3.979317 0
M  V30 53 H -1.846052 1.155418 -3.165233 0
M  V30 54 H -0.501227 0.133214 -3.731245 0
M  V30 END ATOM
M  V30 BEGIN BOND
M  V30 1 1 1 2
M  V30 2 1 2 3
M  V30 3 1 3 4
M  V30 4 1 4 5
M  V30 5 1 3 6
M  V30 6 2 6 7
M  V30 7 2 6 8
M  V30 8 1 6 9
M  V30 9 2 9 10
M  V30 10 1 10 11
M  V30 11 2 11 12
M  V30 12 1 12 13
M  V30 13 2 13 14
M  V30 14 1 13 15
M  V30 15 2 15 16
M  V30 16 1 16 17
M  V30 17 1 17 18
M  V30 18 1 18 19
M  V30 19 2 19 20
M  V30 20 1 20 21
M  V30 21 1 21 22
M  V30 22 2 21 23
M  V30 23 1 23 24
M  V30 24 1 24 25
M  V30 25 2 25 26
M  V30 26 1 26 27
M  V30 27 2 27 28
M  V30 28 1 16 29
M  V30 29 1 29 30
M  V30 30 1 30 31
M  V30 31 1 14 9
M  V30 32 1 28 19
M  V30 33 1 29 12
M  V30 34 1 27 23
M  V30 35 1 1 32
M  V30 36 1 1 33
M  V30 37 1 1 34
M  V30 38 1 2 35
M  V30 39 1 2 36
M  V30 40 1 4 37
M  V30 41 1 4 38
M  V30 42 1 5 39
M  V30 43 1 5 40
M  V30 44 1 5 41
M  V30 45 1 10 42
M  V30 46 1 11 43
M  V30 47 1 14 44
M  V30 48 1 18 45
M  V30 49 1 18 46
M  V30 50 1 22 47
M  V30 51 1 25 48
M  V30 52 1 26 49
M  V30 53 1 30 50
M  V30 54 1 30 51
M  V30 55 1 31 52
M  V30 56 1 31 53
M  V30 57 1 31 54
M  V30 END BOND
M  V30 END CTAB
M  END
>  <Dataset>  (260) 
ChEMBL_Kinases

>  <Ligand_Instance>  (260) 
nan

>  <PDB_ID>  (260) 
nan

>  <Standardized_SMILES>  (260) 
CCN(CC)S(=O)(=O)c1ccc2c(c1)nc(SCc1nc(O)c3sccc3n1)n2CC

>  <Name>  (260) 
nan

>  <Pocket>  (260) 
nan

>  <ATP_Site>  (260) 
nan

>  <Peripheral>  (260) 
nan

>  <Num_H_Atoms_ProtBoundConf>  (260) 
nan

>  <Num_Resolved_Atoms>  (260) 
nan

>  <Num_Not_Resolved_Atoms>  (260) 
nan

$$$$
CHEMBL1483977
     RDKit          3D

  0  0  0  0  0  0  0  0  0  0999 V3000
M  V30 BEGIN CTAB
M  V30 COUNTS 52 54 0 0 0
M  V30 BEGIN ATOM
M  V30 1 C 2.624610 -4.164425 6.114265 0
M  V30 2 O 3.080243 -3.078544 5.329649 0
M  V30 3 C 2.690232 -2.913741 4.008947 0
M  V30 4 O 1.920437 -3.726361 3.473918 0
M  V30 5 C 3.293126 -1.706219 3.388198 0
M  V30 6 C 2.840014 -1.572216 1.958314 0
M  V30 7 C 3.583614 -2.182422 0.978155 0
M  V30 8 C 3.214264 -2.090761 -0.337520 0
M  V30 9 O 3.894066 -2.668586 -1.403881 0
M  V30 10 N 2.112900 -1.391026 -0.625450 0
M  V30 11 C 1.352435 -0.780306 0.263330 0
M  V30 12 N 0.210362 -0.022151 0.242604 0
M  V30 13 C -0.626470 0.417118 -0.547947 0
M  V30 14 N -1.676032 1.215210 0.059378 0
M  V30 15 C -1.715468 1.428786 1.463257 0
M  V30 16 O -0.824162 0.916102 2.189146 0
M  V30 17 C -2.748875 2.222535 2.121080 0
M  V30 18 C -2.675451 2.354661 3.491527 0
M  V30 19 C -3.631650 3.099714 4.180071 0
M  V30 20 C -4.648905 3.701781 3.480091 0
M  V30 21 C -4.752537 3.587865 2.091328 0
M  V30 22 C -3.777118 2.837063 1.458292 0
M  V30 23 N -0.612711 0.177565 -1.947047 0
M  V30 24 C -0.555322 -1.141344 -2.476207 0
M  V30 25 C -0.691872 -2.337967 -1.834240 0
M  V30 26 C -0.649446 -3.547509 -2.482879 0
M  V30 27 C -0.462949 -3.618120 -3.846541 0
M  V30 28 C -0.329700 -2.409262 -4.464275 0
M  V30 29 C -0.367453 -1.164662 -3.838753 0
M  V30 30 C -0.202443 0.076907 -4.677018 0
M  V30 31 N 1.749015 -0.893316 1.551629 0
M  V30 32 H 1.974204 -3.715850 6.913204 0
M  V30 33 H 2.046889 -4.914856 5.545971 0
M  V30 34 H 3.473754 -4.640955 6.614874 0
M  V30 35 H 3.014369 -0.780147 3.937950 0
M  V30 36 H 4.385101 -1.858064 3.355531 0
M  V30 37 H 4.464595 -2.740872 1.219324 0
M  V30 38 H 4.399464 -2.145918 -2.104287 0
M  V30 39 H -2.421198 1.659003 -0.558020 0
M  V30 40 H -1.883686 1.894339 4.098642 0
M  V30 41 H -3.539191 3.181313 5.268498 0
M  V30 42 H -5.381097 4.274821 4.026387 0
M  V30 43 H -5.544324 4.053072 1.520791 0
M  V30 44 H -3.854574 2.749009 0.398561 0
M  V30 45 H -0.674082 1.067066 -2.490896 0
M  V30 46 H -0.846556 -2.275717 -0.764048 0
M  V30 47 H -0.766895 -4.444902 -1.891313 0
M  V30 48 H -0.424562 -4.551570 -4.387433 0
M  V30 49 H -0.178718 -2.423124 -5.552494 0
M  V30 50 H 0.159793 -0.226588 -5.656977 0
M  V30 51 H 0.507587 0.716752 -4.114174 0
M  V30 52 H -1.163284 0.600277 -4.757821 0
M  V30 END ATOM
M  V30 BEGIN BOND
M  V30 1 1 1 2
M  V30 2 1 2 3
M  V30 3 2 3 4
M  V30 4 1 3 5
M  V30 5 1 5 6
M  V30 6 2 6 7
M  V30 7 1 7 8
M  V30 8 1 8 9
M  V30 9 2 8 10
M  V30 10 1 10 11
M  V30 11 1 11 12
M  V30 12 2 12 13 CFG=2
M  V30 13 1 13 14
M  V30 14 1 14 15
M  V30 15 2 15 16
M  V30 16 1 15 17
M  V30 17 2 17 18
M  V30 18 1 18 19
M  V30 19 2 19 20
M  V30 20 1 20 21
M  V30 21 2 21 22
M  V30 22 1 13 23
M  V30 23 1 23 24
M  V30 24 2 24 25
M  V30 25 1 25 26
M  V30 26 2 26 27
M  V30 27 1 27 28
M  V30 28 2 28 29
M  V30 29 1 29 30
M  V30 30 2 11 31
M  V30 31 1 31 6
M  V30 32 1 22 17
M  V30 33 1 29 24
M  V30 34 1 1 32
M  V30 35 1 1 33
M  V30 36 1 1 34
M  V30 37 1 5 35
M  V30 38 1 5 36
M  V30 39 1 7 37
M  V30 40 1 9 38
M  V30 41 1 14 39
M  V30 42 1 18 40
M  V30 43 1 19 41
M  V30 44 1 20 42
M  V30 45 1 21 43
M  V30 46 1 22 44
M  V30 47 1 23 45
M  V30 48 1 25 46
M  V30 49 1 26 47
M  V30 50 1 27 48
M  V30 51 1 28 49
M  V30 52 1 30 50
M  V30 53 1 30 51
M  V30 54 1 30 52
M  V30 END BOND
M  V30 END CTAB
M  END
>  <Dataset>  (261) 
ChEMBL_Kinases

>  <Ligand_Instance>  (261) 
nan

>  <PDB_ID>  (261) 
nan

>  <Standardized_SMILES>  (261) 
COC(=O)Cc1cc(O)nc(N=C(NC(=O)c2ccccc2)Nc2ccccc2C)n1

>  <Name>  (261) 
nan

>  <Pocket>  (261) 
nan

>  <ATP_Site>  (261) 
nan

>  <Peripheral>  (261) 
nan

>  <Num_H_Atoms_ProtBoundConf>  (261) 
nan

>  <Num_Resolved_Atoms>  (261) 
nan

>  <Num_Not_Resolved_Atoms>  (261) 
nan

$$$$
CHEMBL1483943
     RDKit          3D

  0  0  0  0  0  0  0  0  0  0999 V3000
M  V30 BEGIN CTAB
M  V30 COUNTS 45 46 0 0 0
M  V30 BEGIN ATOM
M  V30 1 C -2.787971 -3.778349 -0.614896 0
M  V30 2 C -2.283595 -5.167335 -0.485251 0
M  V30 3 C -0.812152 -5.327182 -0.311526 0
M  V30 4 C -0.215295 -4.678815 0.879757 0
M  V30 5 N -0.404432 -3.240328 0.913862 0
M  V30 6 C 0.117178 -2.459284 -0.136156 0
M  V30 7 O 0.747136 -2.922784 -1.121076 0
M  V30 8 N -0.017031 -1.042919 -0.191570 0
M  V30 9 C 0.574817 -0.371085 -1.339910 0
M  V30 10 C 0.858976 1.061682 -1.131084 0
M  V30 11 N 0.779427 1.610997 0.167398 0
M  V30 12 C 1.999631 2.333336 0.507999 0
M  V30 13 C 1.973923 2.926283 1.847338 0
M  V30 14 C 1.484479 4.220878 1.992229 0
M  V30 15 C 1.411127 4.882779 3.200960 0
M  V30 16 C 1.844725 4.234306 4.337072 0
M  V30 17 F 1.795449 4.837459 5.551194 0
M  V30 18 C 2.337476 2.949070 4.237138 0
M  V30 19 C 2.400049 2.308173 3.012548 0
M  V30 20 C 0.485212 0.715006 1.237676 0
M  V30 21 C -0.678488 -0.163785 0.763735 0
M  V30 22 H -3.871342 -3.868673 -0.926277 0
M  V30 23 H -2.319077 -3.262879 -1.486301 0
M  V30 24 H -2.823307 -3.179490 0.303866 0
M  V30 25 H -2.860235 -5.734234 0.272134 0
M  V30 26 H -2.533659 -5.684806 -1.457471 0
M  V30 27 H -0.231247 -5.053742 -1.213426 0
M  V30 28 H -0.632850 -6.433947 -0.197087 0
M  V30 29 H -0.586614 -5.142152 1.839594 0
M  V30 30 H 0.868605 -4.918618 0.882386 0
M  V30 31 H -0.918902 -2.736112 1.693338 0
M  V30 32 H -0.125103 -0.558038 -2.184029 0
M  V30 33 H 1.510673 -0.919639 -1.656030 0
M  V30 34 H 1.852422 1.309053 -1.577856 0
M  V30 35 H 0.128458 1.643149 -1.767250 0
M  V30 36 H 2.132584 3.145757 -0.251332 0
M  V30 37 H 2.873364 1.634072 0.432775 0
M  V30 38 H 1.143017 4.743042 1.126660 0
M  V30 39 H 1.019573 5.897828 3.264556 0
M  V30 40 H 2.697075 2.371826 5.079294 0
M  V30 41 H 2.780015 1.307679 2.911528 0
M  V30 42 H 0.258300 1.271166 2.143766 0
M  V30 43 H 1.398503 0.070578 1.380947 0
M  V30 44 H -1.375388 0.497901 0.215318 0
M  V30 45 H -1.166674 -0.700827 1.573605 0
M  V30 END ATOM
M  V30 BEGIN BOND
M  V30 1 1 1 2
M  V30 2 1 2 3
M  V30 3 1 3 4
M  V30 4 1 4 5
M  V30 5 1 5 6
M  V30 6 2 6 7
M  V30 7 1 6 8
M  V30 8 1 8 9
M  V30 9 1 9 10
M  V30 10 1 10 11
M  V30 11 1 11 12
M  V30 12 1 12 13
M  V30 13 2 13 14
M  V30 14 1 14 15
M  V30 15 2 15 16
M  V30 16 1 16 17
M  V30 17 1 16 18
M  V30 18 2 18 19
M  V30 19 1 11 20
M  V30 20 1 20 21
M  V30 21 1 21 8
M  V30 22 1 19 13
M  V30 23 1 1 22
M  V30 24 1 1 23
M  V30 25 1 1 24
M  V30 26 1 2 25
M  V30 27 1 2 26
M  V30 28 1 3 27
M  V30 29 1 3 28
M  V30 30 1 4 29
M  V30 31 1 4 30
M  V30 32 1 5 31
M  V30 33 1 9 32
M  V30 34 1 9 33
M  V30 35 1 10 34
M  V30 36 1 10 35
M  V30 37 1 12 36
M  V30 38 1 12 37
M  V30 39 1 14 38
M  V30 40 1 15 39
M  V30 41 1 18 40
M  V30 42 1 19 41
M  V30 43 1 20 42
M  V30 44 1 20 43
M  V30 45 1 21 44
M  V30 46 1 21 45
M  V30 END BOND
M  V30 END CTAB
M  END
>  <Dataset>  (262) 
ChEMBL_Kinases

>  <Ligand_Instance>  (262) 
nan

>  <PDB_ID>  (262) 
nan

>  <Standardized_SMILES>  (262) 
CCCCNC(=O)N1CCN(Cc2ccc(F)cc2)CC1

>  <Name>  (262) 
nan

>  <Pocket>  (262) 
nan

>  <ATP_Site>  (262) 
nan

>  <Peripheral>  (262) 
nan

>  <Num_H_Atoms_ProtBoundConf>  (262) 
nan

>  <Num_Resolved_Atoms>  (262) 
nan

>  <Num_Not_Resolved_Atoms>  (262) 
nan

$$$$
CHEMBL1483933
     RDKit          3D

  0  0  0  0  0  0  0  0  0  0999 V3000
M  V30 BEGIN CTAB
M  V30 COUNTS 34 35 0 0 0
M  V30 BEGIN ATOM
M  V30 1 C -2.386742 -2.255797 2.340167 0
M  V30 2 O -1.456121 -2.293107 1.312241 0
M  V30 3 C -0.158339 -2.721238 1.340568 0
M  V30 4 C 0.552376 -3.228322 2.405208 0
M  V30 5 C 1.864385 -3.600111 2.203555 0
M  V30 6 C 2.499905 -3.486950 0.983155 0
M  V30 7 C 1.808749 -2.976513 -0.114357 0
M  V30 8 C 0.482193 -2.605419 0.100670 0
M  V30 9 N -0.218438 -2.089849 -1.054408 0
M  V30 10 C -0.375164 -0.665603 -0.993970 0
M  V30 11 N 0.283243 0.189026 -0.319047 0
M  V30 12 C -0.060920 1.546332 -0.425526 0
M  V30 13 C 1.177324 2.385552 -0.215392 0
M  V30 14 O 0.807925 3.715963 -0.356211 0
M  V30 15 C -0.985642 1.876821 0.763601 0
M  V30 16 O -0.308901 1.632637 1.951630 0
M  V30 17 C -0.806149 1.885139 -1.662239 0
M  V30 18 S -1.627199 0.257918 -1.928310 0
M  V30 19 H -2.439433 -3.246737 2.859421 0
M  V30 20 H -2.181046 -1.502920 3.133643 0
M  V30 21 H -3.429472 -2.092013 1.943694 0
M  V30 22 H -0.007292 -3.287637 3.341781 0
M  V30 23 H 2.374420 -3.995084 3.086422 0
M  V30 24 H 3.551167 -3.809218 0.908629 0
M  V30 25 H 2.293619 -2.881883 -1.076549 0
M  V30 26 H -0.591347 -2.611640 -1.869059 0
M  V30 27 H 1.472636 2.281000 0.866399 0
M  V30 28 H 2.019994 2.151981 -0.850609 0
M  V30 29 H 0.673427 4.180711 0.502469 0
M  V30 30 H -1.241593 2.937555 0.671932 0
M  V30 31 H -1.878904 1.242059 0.670197 0
M  V30 32 H 0.124949 0.730553 1.902007 0
M  V30 33 H -1.616175 2.622528 -1.426646 0
M  V30 34 H -0.219043 2.170780 -2.536822 0
M  V30 END ATOM
M  V30 BEGIN BOND
M  V30 1 1 1 2
M  V30 2 1 2 3
M  V30 3 2 3 4
M  V30 4 1 4 5
M  V30 5 2 5 6
M  V30 6 1 6 7
M  V30 7 2 7 8
M  V30 8 1 8 9
M  V30 9 1 9 10
M  V30 10 2 10 11
M  V30 11 1 11 12
M  V30 12 1 12 13
M  V30 13 1 13 14
M  V30 14 1 12 15
M  V30 15 1 15 16
M  V30 16 1 12 17
M  V30 17 1 17 18
M  V30 18 1 8 3
M  V30 19 1 18 10
M  V30 20 1 1 19
M  V30 21 1 1 20
M  V30 22 1 1 21
M  V30 23 1 4 22
M  V30 24 1 5 23
M  V30 25 1 6 24
M  V30 26 1 7 25
M  V30 27 1 9 26
M  V30 28 1 13 27
M  V30 29 1 13 28
M  V30 30 1 14 29
M  V30 31 1 15 30
M  V30 32 1 15 31
M  V30 33 1 16 32
M  V30 34 1 17 33
M  V30 35 1 17 34
M  V30 END BOND
M  V30 END CTAB
M  END
>  <Dataset>  (263) 
ChEMBL_Kinases

>  <Ligand_Instance>  (263) 
nan

>  <PDB_ID>  (263) 
nan

>  <Standardized_SMILES>  (263) 
COc1ccccc1NC1=NC(CO)(CO)CS1

>  <Name>  (263) 
nan

>  <Pocket>  (263) 
nan

>  <ATP_Site>  (263) 
nan

>  <Peripheral>  (263) 
nan

>  <Num_H_Atoms_ProtBoundConf>  (263) 
nan

>  <Num_Resolved_Atoms>  (263) 
nan

>  <Num_Not_Resolved_Atoms>  (263) 
nan

$$$$
CHEMBL1483855
     RDKit          3D

  0  0  0  0  0  0  0  0  0  0999 V3000
M  V30 BEGIN CTAB
M  V30 COUNTS 54 58 0 0 0
M  V30 BEGIN ATOM
M  V30 1 C 0.472492 -5.338397 1.496703 0
M  V30 2 O 0.973607 -4.181386 0.855700 0
M  V30 3 C 1.754881 -3.314979 1.608176 0
M  V30 4 C 2.063509 -3.530882 2.947833 0
M  V30 5 C 2.840808 -2.664736 3.688078 0
M  V30 6 C 3.347071 -1.525505 3.096977 0
M  V30 7 N 4.122861 -0.497318 3.480918 0
M  V30 8 C 4.284781 0.318075 2.425974 0
M  V30 9 C 3.614065 -0.139462 1.281704 0
M  V30 10 C 3.646037 0.650829 0.060669 0
M  V30 11 C 2.542919 1.612727 -0.180896 0
M  V30 12 N 1.232717 1.039654 -0.263008 0
M  V30 13 C 0.202809 2.032221 -0.482920 0
M  V30 14 N 0.439954 3.348278 -0.598606 0
M  V30 15 C -0.520208 4.260379 -0.802296 0
M  V30 16 N -1.822963 3.916880 -0.908480 0
M  V30 17 C -2.139274 2.604662 -0.801897 0
M  V30 18 C -3.467724 2.250698 -0.910097 0
M  V30 19 C -3.853711 0.931946 -0.811237 0
M  V30 20 C -2.848199 -0.022730 -0.598103 0
M  V30 21 C -3.281197 -1.409691 -0.497363 0
M  V30 22 C -3.677000 -2.205534 0.588983 0
M  V30 23 C -3.709099 -1.652970 1.970077 0
M  V30 24 N -3.985608 -3.434155 0.161035 0
M  V30 25 O -3.809867 -3.459643 -1.115086 0
M  V30 26 C -3.395288 -2.300980 -1.571217 0
M  V30 27 C -3.080097 -1.922863 -2.969287 0
M  V30 28 C -1.536892 0.399798 -0.499001 0
M  V30 29 C -1.128951 1.692609 -0.592704 0
M  V30 30 C 3.049024 -1.298459 1.771852 0
M  V30 31 C 2.271269 -2.171243 1.039545 0
M  V30 32 H -0.351687 -5.810282 0.924611 0
M  V30 33 H 0.020651 -5.112047 2.498376 0
M  V30 34 H 1.258466 -6.102715 1.655981 0
M  V30 35 H 1.685058 -4.408385 3.438419 0
M  V30 36 H 3.068464 -2.849833 4.723988 0
M  V30 37 H 4.499372 -0.407391 4.440451 0
M  V30 38 H 4.896753 1.224415 2.547883 0
M  V30 39 H 4.632565 1.169981 -0.019300 0
M  V30 40 H 3.663797 -0.043444 -0.841906 0
M  V30 41 H 2.801808 2.211621 -1.088846 0
M  V30 42 H 2.548660 2.366620 0.669278 0
M  V30 43 H 0.981286 0.047935 -0.185207 0
M  V30 44 H -0.162462 5.277604 -0.872668 0
M  V30 45 H -4.248911 2.993531 -1.075822 0
M  V30 46 H -4.897873 0.681777 -0.899410 0
M  V30 47 H -4.231176 -0.686934 2.052898 0
M  V30 48 H -4.270450 -2.378307 2.595803 0
M  V30 49 H -2.677380 -1.621704 2.415484 0
M  V30 50 H -3.673157 -1.050542 -3.323371 0
M  V30 51 H -1.993954 -1.831081 -3.159210 0
M  V30 52 H -3.422966 -2.758793 -3.617756 0
M  V30 53 H -0.879932 -0.412024 -0.339560 0
M  V30 54 H 2.041301 -2.011274 -0.003443 0
M  V30 END ATOM
M  V30 BEGIN BOND
M  V30 1 1 1 2
M  V30 2 1 2 3
M  V30 3 2 3 4
M  V30 4 1 4 5
M  V30 5 2 5 6
M  V30 6 1 6 7
M  V30 7 1 7 8
M  V30 8 2 8 9
M  V30 9 1 9 10
M  V30 10 1 10 11
M  V30 11 1 11 12
M  V30 12 1 12 13
M  V30 13 2 13 14
M  V30 14 1 14 15
M  V30 15 2 15 16
M  V30 16 1 16 17
M  V30 17 2 17 18
M  V30 18 1 18 19
M  V30 19 2 19 20
M  V30 20 1 20 21
M  V30 21 1 21 22
M  V30 22 1 22 23
M  V30 23 2 22 24
M  V30 24 1 24 25
M  V30 25 1 25 26
M  V30 26 1 26 27
M  V30 27 1 20 28
M  V30 28 2 28 29
M  V30 29 1 9 30
M  V30 30 2 30 31
M  V30 31 1 31 3
M  V30 32 1 30 6
M  V30 33 1 29 13
M  V30 34 1 29 17
M  V30 35 2 26 21
M  V30 36 1 1 32
M  V30 37 1 1 33
M  V30 38 1 1 34
M  V30 39 1 4 35
M  V30 40 1 5 36
M  V30 41 1 7 37
M  V30 42 1 8 38
M  V30 43 1 10 39
M  V30 44 1 10 40
M  V30 45 1 11 41
M  V30 46 1 11 42
M  V30 47 1 12 43
M  V30 48 1 15 44
M  V30 49 1 18 45
M  V30 50 1 19 46
M  V30 51 1 23 47
M  V30 52 1 23 48
M  V30 53 1 23 49
M  V30 54 1 27 50
M  V30 55 1 27 51
M  V30 56 1 27 52
M  V30 57 1 28 53
M  V30 58 1 31 54
M  V30 END BOND
M  V30 END CTAB
M  END
>  <Dataset>  (264) 
ChEMBL_Kinases

>  <Ligand_Instance>  (264) 
nan

>  <PDB_ID>  (264) 
nan

>  <Standardized_SMILES>  (264) 
COc1ccc2[nH]cc(CCNc3ncnc4ccc(-c5c(C)noc5C)cc34)c2c1

>  <Name>  (264) 
nan

>  <Pocket>  (264) 
nan

>  <ATP_Site>  (264) 
nan

>  <Peripheral>  (264) 
nan

>  <Num_H_Atoms_ProtBoundConf>  (264) 
nan

>  <Num_Resolved_Atoms>  (264) 
nan

>  <Num_Not_Resolved_Atoms>  (264) 
nan

$$$$
CHEMBL1483801
     RDKit          3D

  0  0  0  0  0  0  0  0  0  0999 V3000
M  V30 BEGIN CTAB
M  V30 COUNTS 88 90 0 0 0
M  V30 BEGIN ATOM
M  V30 1 C -1.006607 -2.978854 4.308315 0
M  V30 2 C 0.106937 -3.712612 3.616033 0
M  V30 3 C 0.184835 -3.574041 2.144559 0
M  V30 4 N 0.394595 -2.258605 1.609251 0
M  V30 5 C -0.282458 -1.034023 1.598611 0
M  V30 6 O -1.387763 -0.901362 2.164607 0
M  V30 7 O 0.122318 0.145118 1.007590 0
M  V30 8 C -0.785207 1.242584 1.162810 0
M  V30 9 C -0.273762 2.477923 0.496231 0 CFG=2
M  V30 10 O -0.110718 2.224565 -0.848670 0
M  V30 11 C 0.358295 3.291822 -1.588799 0 CFG=2
M  V30 12 C 0.254027 2.925436 -3.061476 0
M  V30 13 C -1.211031 2.640276 -3.407536 0
M  V30 14 O -1.679638 1.564481 -2.616907 0
M  V30 15 N -2.975613 1.142909 -2.802479 0
M  V30 16 C -3.220532 -0.114761 -2.687584 0
M  V30 17 C -2.150397 -1.117554 -2.362399 0 CFG=1
M  V30 18 C -2.627940 -1.716812 -1.030655 0
M  V30 19 C -2.040615 -2.176916 -3.422007 0 CFG=2
M  V30 20 O -1.074572 -3.122741 -3.175474 0
M  V30 21 C -1.512309 -4.393804 -2.933102 0
M  V30 22 C -0.296535 -5.232113 -2.695379 0
M  V30 23 C 0.387080 -5.896904 -3.701139 0
M  V30 24 C 1.505422 -6.648674 -3.366809 0
M  V30 25 C 1.975916 -6.767214 -2.060564 0
M  V30 26 C 1.292555 -6.105797 -1.073732 0
M  V30 27 C 0.178540 -5.352987 -1.383437 0
M  V30 28 C -2.069151 -1.622674 -4.812853 0
M  V30 29 C -1.948027 -2.831667 -5.751052 0
M  V30 30 C -1.052944 -0.585734 -5.105831 0
M  V30 31 C 1.786899 3.508151 -1.217607 0
M  V30 32 C 1.967507 3.375182 0.093327 0
M  V30 33 C 0.947901 3.051772 1.161651 0 CFG=2
M  V30 34 O 1.494100 2.229037 2.136291 0
M  V30 35 C 1.716018 2.590564 3.432674 0
M  V30 36 C 1.500751 3.756794 4.135711 0
M  V30 37 C 1.823283 3.858665 5.472649 0
M  V30 38 C 2.373435 2.782137 6.136995 0
M  V30 39 O 2.699113 2.890060 7.493054 0
M  V30 40 C 2.481050 4.081350 8.217137 0
M  V30 41 C 2.611223 1.589869 5.484780 0
M  V30 42 C 2.276204 1.507850 4.126534 0
M  V30 43 H -0.770553 -1.936585 4.565953 0
M  V30 44 H -1.948923 -3.005758 3.730888 0
M  V30 45 H -1.256720 -3.476787 5.295767 0
M  V30 46 H -0.055266 -4.815889 3.820551 0
M  V30 47 H 1.086444 -3.470447 4.092337 0
M  V30 48 H -0.830783 -3.951315 1.755429 0
M  V30 49 H 0.895374 -4.263788 1.672874 0
M  V30 50 H 1.305431 -2.122990 1.060046 0
M  V30 51 H -0.960866 1.358457 2.246480 0
M  V30 52 H -1.742681 0.916583 0.709835 0
M  V30 53 H -1.102450 3.231230 0.565309 0
M  V30 54 H -0.248665 4.216598 -1.408358 0
M  V30 55 H 0.683798 3.677601 -3.732356 0
M  V30 56 H 0.846467 1.999130 -3.202497 0
M  V30 57 H -1.847983 3.510185 -3.129530 0
M  V30 58 H -1.340616 2.504830 -4.484081 0
M  V30 59 H -4.212525 -0.523671 -2.818589 0
M  V30 60 H -1.229157 -0.590910 -2.123874 0
M  V30 61 H -1.831838 -2.415833 -0.702813 0
M  V30 62 H -3.523964 -2.371792 -1.230430 0
M  V30 63 H -2.870872 -0.937838 -0.310568 0
M  V30 64 H -2.996012 -2.773830 -3.345765 0
M  V30 65 H -2.024337 -4.886717 -3.781705 0
M  V30 66 H -2.143241 -4.538003 -2.048688 0
M  V30 67 H 0.018308 -5.799606 -4.698476 0
M  V30 68 H 2.036681 -7.167906 -4.165804 0
M  V30 69 H 2.839769 -7.354942 -1.844013 0
M  V30 70 H 1.625308 -6.171374 -0.041893 0
M  V30 71 H -0.374604 -4.820600 -0.601699 0
M  V30 72 H -3.098948 -1.243331 -4.996715 0
M  V30 73 H -1.023647 -3.372791 -5.551536 0
M  V30 74 H -2.058635 -2.482120 -6.805295 0
M  V30 75 H -2.806640 -3.514795 -5.589046 0
M  V30 76 H -0.461359 -0.935002 -6.001450 0
M  V30 77 H -0.410322 -0.261088 -4.286332 0
M  V30 78 H -1.557976 0.331583 -5.474935 0
M  V30 79 H 2.663184 3.743219 -1.798715 0
M  V30 80 H 2.975472 3.506253 0.526467 0
M  V30 81 H 0.715855 4.037934 1.610916 0
M  V30 82 H 1.075656 4.520593 3.534599 0
M  V30 83 H 1.622306 4.808162 5.948451 0
M  V30 84 H 2.463828 3.861670 9.294519 0
M  V30 85 H 1.488813 4.546724 7.971133 0
M  V30 86 H 3.224530 4.858200 7.939215 0
M  V30 87 H 3.037664 0.796938 6.052663 0
M  V30 88 H 2.517051 0.507263 3.733065 0
M  V30 END ATOM
M  V30 BEGIN BOND
M  V30 1 1 1 2
M  V30 2 1 2 3
M  V30 3 1 3 4
M  V30 4 1 4 5
M  V30 5 2 5 6
M  V30 6 1 5 7
M  V30 7 1 7 8
M  V30 8 1 8 9
M  V30 9 1 9 10
M  V30 10 1 10 11
M  V30 11 1 11 12
M  V30 12 1 12 13
M  V30 13 1 13 14
M  V30 14 1 14 15
M  V30 15 2 15 16
M  V30 16 1 16 17
M  V30 17 1 17 18
M  V30 18 1 17 19
M  V30 19 1 19 20
M  V30 20 1 20 21
M  V30 21 1 21 22
M  V30 22 2 22 23
M  V30 23 1 23 24
M  V30 24 2 24 25
M  V30 25 1 25 26
M  V30 26 2 26 27
M  V30 27 1 19 28
M  V30 28 1 28 29
M  V30 29 1 28 30
M  V30 30 1 11 31
M  V30 31 2 31 32
M  V30 32 1 32 33
M  V30 33 1 33 34
M  V30 34 1 34 35
M  V30 35 2 35 36
M  V30 36 1 36 37
M  V30 37 2 37 38
M  V30 38 1 38 39
M  V30 39 1 39 40
M  V30 40 1 38 41
M  V30 41 2 41 42
M  V30 42 1 33 9
M  V30 43 1 42 35
M  V30 44 1 27 22
M  V30 45 1 1 43
M  V30 46 1 1 44
M  V30 47 1 1 45
M  V30 48 1 2 46
M  V30 49 1 2 47
M  V30 50 1 3 48
M  V30 51 1 3 49
M  V30 52 1 4 50
M  V30 53 1 8 51
M  V30 54 1 8 52
M  V30 55 1 9 53 CFG=3
M  V30 56 1 11 54 CFG=3
M  V30 57 1 12 55
M  V30 58 1 12 56
M  V30 59 1 13 57
M  V30 60 1 13 58
M  V30 61 1 16 59
M  V30 62 1 17 60 CFG=1
M  V30 63 1 18 61
M  V30 64 1 18 62
M  V30 65 1 18 63
M  V30 66 1 19 64 CFG=3
M  V30 67 1 21 65
M  V30 68 1 21 66
M  V30 69 1 23 67
M  V30 70 1 24 68
M  V30 71 1 25 69
M  V30 72 1 26 70
M  V30 73 1 27 71
M  V30 74 1 28 72
M  V30 75 1 29 73
M  V30 76 1 29 74
M  V30 77 1 29 75
M  V30 78 1 30 76
M  V30 79 1 30 77
M  V30 80 1 30 78
M  V30 81 1 31 79
M  V30 82 1 32 80
M  V30 83 1 33 81 CFG=1
M  V30 84 1 36 82
M  V30 85 1 37 83
M  V30 86 1 40 84
M  V30 87 1 40 85
M  V30 88 1 40 86
M  V30 89 1 41 87
M  V30 90 1 42 88
M  V30 END BOND
M  V30 END CTAB
M  END
>  <Dataset>  (265) 
ChEMBL_Kinases

>  <Ligand_Instance>  (265) 
nan

>  <PDB_ID>  (265) 
nan

>  <Standardized_SMILES>  (265) 
CCCNC(=O)OC[C@@H]1O[C@H](CCO/N=C\[C@@H](C)[C@H](OCc2ccccc2)C(C)C)C=C[C@@H]1Oc1ccc(OC)cc1

>  <Name>  (265) 
nan

>  <Pocket>  (265) 
nan

>  <ATP_Site>  (265) 
nan

>  <Peripheral>  (265) 
nan

>  <Num_H_Atoms_ProtBoundConf>  (265) 
nan

>  <Num_Resolved_Atoms>  (265) 
nan

>  <Num_Not_Resolved_Atoms>  (265) 
nan

$$$$
CHEMBL1483570
     RDKit          3D

  0  0  0  0  0  0  0  0  0  0999 V3000
M  V30 BEGIN CTAB
M  V30 COUNTS 33 35 0 0 0
M  V30 BEGIN ATOM
M  V30 1 C -2.068051 -3.295830 5.346574 0
M  V30 2 C -2.080138 -3.225439 3.860208 0
M  V30 3 C -0.943152 -2.908348 3.107848 0
M  V30 4 C -1.276001 -2.924309 1.770793 0
M  V30 5 N -0.492881 -2.674154 0.609364 0
M  V30 6 C 0.885443 -2.336884 0.652472 0
M  V30 7 O 1.491485 -2.241863 1.751055 0
M  V30 8 C 1.654515 -2.086144 -0.591015 0
M  V30 9 C 2.152286 -0.677656 -0.729104 0
M  V30 10 C 0.987322 -0.048068 -1.444409 0
M  V30 11 C 0.669526 1.379400 -1.513229 0
M  V30 12 C -0.449607 1.743287 -2.224620 0
M  V30 13 C -0.781170 3.078792 -2.311908 0
M  V30 14 C 0.028253 4.000350 -1.678233 0
M  V30 15 F -0.231003 5.323104 -1.718476 0
M  V30 16 C 1.154809 3.661211 -0.959390 0
M  V30 17 C 1.469354 2.300014 -0.886061 0
M  V30 18 N 0.281224 -0.983051 -2.010399 0
M  V30 19 O 0.858435 -2.225024 -1.749538 0
M  V30 20 N -2.581510 -3.245632 1.768250 0
M  V30 21 O -3.017155 -3.412346 2.972632 0
M  V30 22 H -3.073983 -3.127460 5.771279 0
M  V30 23 H -1.391214 -2.520837 5.783806 0
M  V30 24 H -1.617822 -4.270186 5.657055 0
M  V30 25 H 0.029238 -2.688382 3.502079 0
M  V30 26 H -0.909410 -2.730527 -0.326657 0
M  V30 27 H 2.487034 -2.784791 -0.641026 0
M  V30 28 H 3.094402 -0.588299 -1.274071 0
M  V30 29 H 2.181604 -0.231325 0.300419 0
M  V30 30 H -1.093572 1.008791 -2.728892 0
M  V30 31 H -1.626545 3.459338 -2.838653 0
M  V30 32 H 1.806389 4.347030 -0.454923 0
M  V30 33 H 2.342875 1.943166 -0.338123 0
M  V30 END ATOM
M  V30 BEGIN BOND
M  V30 1 1 1 2
M  V30 2 2 2 3
M  V30 3 1 3 4
M  V30 4 1 4 5
M  V30 5 1 5 6
M  V30 6 2 6 7
M  V30 7 1 6 8
M  V30 8 1 8 9
M  V30 9 1 9 10
M  V30 10 1 10 11
M  V30 11 2 11 12
M  V30 12 1 12 13
M  V30 13 2 13 14
M  V30 14 1 14 15
M  V30 15 1 14 16
M  V30 16 2 16 17
M  V30 17 2 10 18
M  V30 18 1 18 19
M  V30 19 2 4 20
M  V30 20 1 20 21
M  V30 21 1 21 2
M  V30 22 1 19 8
M  V30 23 1 17 11
M  V30 24 1 1 22
M  V30 25 1 1 23
M  V30 26 1 1 24
M  V30 27 1 3 25
M  V30 28 1 5 26
M  V30 29 1 8 27
M  V30 30 1 9 28
M  V30 31 1 9 29
M  V30 32 1 12 30
M  V30 33 1 13 31
M  V30 34 1 16 32
M  V30 35 1 17 33
M  V30 END BOND
M  V30 END CTAB
M  END
>  <Dataset>  (266) 
ChEMBL_Kinases

>  <Ligand_Instance>  (266) 
nan

>  <PDB_ID>  (266) 
nan

>  <Standardized_SMILES>  (266) 
Cc1cc(NC(=O)C2CC(c3ccc(F)cc3)=NO2)no1

>  <Name>  (266) 
nan

>  <Pocket>  (266) 
nan

>  <ATP_Site>  (266) 
nan

>  <Peripheral>  (266) 
nan

>  <Num_H_Atoms_ProtBoundConf>  (266) 
nan

>  <Num_Resolved_Atoms>  (266) 
nan

>  <Num_Not_Resolved_Atoms>  (266) 
nan

$$$$
CHEMBL1483538
     RDKit          3D

  0  0  0  0  0  0  0  0  0  0999 V3000
M  V30 BEGIN CTAB
M  V30 COUNTS 40 41 0 0 0
M  V30 BEGIN ATOM
M  V30 1 C 0.339264 -5.256305 2.098626 0
M  V30 2 C 1.762671 -4.699587 1.926934 0
M  V30 3 O 1.619342 -3.530025 1.189974 0
M  V30 4 C 2.580116 -2.646446 0.798607 0
M  V30 5 O 3.736986 -2.902061 1.132698 0
M  V30 6 C 2.021267 -1.522045 0.029375 0
M  V30 7 C 0.704820 -1.363248 -0.345869 0
M  V30 8 C 0.331263 -0.230259 -1.036187 0
M  V30 9 C 1.281914 0.726025 -1.339971 0
M  V30 10 N 0.650643 1.789477 -2.047549 0
M  V30 11 P -0.303991 2.809596 -0.998957 0
M  V30 12 C -2.079831 2.507310 -1.259865 0
M  V30 13 O -0.068939 4.247733 -1.447869 0
M  V30 14 O 0.102249 2.688417 0.640133 0
M  V30 15 C -0.479680 1.797442 1.517798 0
M  V30 16 C 0.234349 0.827788 2.188852 0
M  V30 17 C -0.239968 -0.104521 3.079118 0
M  V30 18 C -1.605631 -0.070447 3.337761 0
M  V30 19 F -2.060662 -0.996524 4.215437 0
M  V30 20 C -2.398649 0.872351 2.706235 0
M  V30 21 C -1.844140 1.784354 1.816834 0
M  V30 22 C 2.601767 0.587404 -0.975757 0
M  V30 23 C 2.963692 -0.552647 -0.284235 0
M  V30 24 H -0.110612 -5.245932 1.086015 0
M  V30 25 H 0.320977 -6.230329 2.590008 0
M  V30 26 H -0.200858 -4.465047 2.672590 0
M  V30 27 H 2.416016 -5.461200 1.452752 0
M  V30 28 H 2.159401 -4.441868 2.926047 0
M  V30 29 H 0.044632 -2.180360 -0.049551 0
M  V30 30 H -0.731190 -0.240785 -1.265454 0
M  V30 31 H 0.668723 2.045982 -3.058518 0
M  V30 32 H -2.222143 2.491697 -2.382129 0
M  V30 33 H -2.615462 3.398853 -0.899485 0
M  V30 34 H -2.424728 1.557457 -0.818949 0
M  V30 35 H 1.301438 0.798627 1.989306 0
M  V30 36 H 0.451469 -0.820873 3.541075 0
M  V30 37 H -3.451924 0.859906 2.939029 0
M  V30 38 H -2.492948 2.502210 1.353447 0
M  V30 39 H 3.220426 1.417556 -1.284274 0
M  V30 40 H 4.021409 -0.598120 -0.028204 0
M  V30 END ATOM
M  V30 BEGIN BOND
M  V30 1 1 1 2
M  V30 2 1 2 3
M  V30 3 1 3 4
M  V30 4 2 4 5
M  V30 5 1 4 6
M  V30 6 2 6 7
M  V30 7 1 7 8
M  V30 8 2 8 9
M  V30 9 1 9 10
M  V30 10 1 10 11
M  V30 11 1 11 12
M  V30 12 2 11 13
M  V30 13 1 11 14
M  V30 14 1 14 15
M  V30 15 2 15 16
M  V30 16 1 16 17
M  V30 17 2 17 18
M  V30 18 1 18 19
M  V30 19 1 18 20
M  V30 20 2 20 21
M  V30 21 1 9 22
M  V30 22 2 22 23
M  V30 23 1 23 6
M  V30 24 1 21 15
M  V30 25 1 1 24
M  V30 26 1 1 25
M  V30 27 1 1 26
M  V30 28 1 2 27
M  V30 29 1 2 28
M  V30 30 1 7 29
M  V30 31 1 8 30
M  V30 32 1 10 31
M  V30 33 1 12 32
M  V30 34 1 12 33
M  V30 35 1 12 34
M  V30 36 1 16 35
M  V30 37 1 17 36
M  V30 38 1 20 37
M  V30 39 1 21 38
M  V30 40 1 22 39
M  V30 41 1 23 40
M  V30 END BOND
M  V30 END CTAB
M  END
>  <Dataset>  (267) 
ChEMBL_Kinases

>  <Ligand_Instance>  (267) 
nan

>  <PDB_ID>  (267) 
nan

>  <Standardized_SMILES>  (267) 
CCOC(=O)c1ccc(NP(C)(=O)Oc2ccc(F)cc2)cc1

>  <Name>  (267) 
nan

>  <Pocket>  (267) 
nan

>  <ATP_Site>  (267) 
nan

>  <Peripheral>  (267) 
nan

>  <Num_H_Atoms_ProtBoundConf>  (267) 
nan

>  <Num_Resolved_Atoms>  (267) 
nan

>  <Num_Not_Resolved_Atoms>  (267) 
nan

$$$$
CHEMBL1483537
     RDKit          3D

  0  0  0  0  0  0  0  0  0  0999 V3000
M  V30 BEGIN CTAB
M  V30 COUNTS 32 35 0 0 0
M  V30 BEGIN ATOM
M  V30 1 C -0.301943 -1.885595 4.758644 0
M  V30 2 C -0.008258 -2.620924 3.499792 0
M  V30 3 N 0.226865 -3.941914 3.380097 0
M  V30 4 N 0.445717 -4.192239 2.081037 0
M  V30 5 C 0.347221 -3.038420 1.403075 0
M  V30 6 C 0.480879 -2.738195 0.065142 0
M  V30 7 C 0.778900 -3.681440 -0.895202 0
M  V30 8 C 0.901296 -3.260972 -2.221717 0
M  V30 9 C 0.737517 -1.937800 -2.620730 0
M  V30 10 C 0.440777 -1.011261 -1.649373 0
M  V30 11 C 0.321367 -1.434334 -0.345493 0
M  V30 12 C 0.030844 -0.429937 0.549837 0
M  V30 13 C -0.173728 0.994636 0.334460 0
M  V30 14 C 0.579503 1.819361 1.178501 0
M  V30 15 C 0.528411 3.197812 1.159710 0
M  V30 16 C -0.312935 3.814110 0.258198 0
M  V30 17 C -1.062904 3.028377 -0.580618 0
M  V30 18 C -0.995238 1.666906 -0.542772 0
M  V30 19 N -0.083651 -0.810854 1.851915 0
M  V30 20 N 0.066123 -2.055573 2.269356 0
M  V30 21 H 0.629478 -1.397233 5.130311 0
M  V30 22 H -0.691729 -2.531649 5.547893 0
M  V30 23 H -1.038752 -1.062107 4.592102 0
M  V30 24 H 0.903751 -4.694401 -0.584713 0
M  V30 25 H 1.137479 -4.014936 -2.976849 0
M  V30 26 H 0.852847 -1.709695 -3.675826 0
M  V30 27 H 0.328125 0.011989 -1.967661 0
M  V30 28 H 1.263791 1.416118 1.914362 0
M  V30 29 H 1.122624 3.807687 1.824438 0
M  V30 30 H -0.408633 4.892121 0.182248 0
M  V30 31 H -1.759026 3.423724 -1.329485 0
M  V30 32 H -1.588832 1.032340 -1.183307 0
M  V30 END ATOM
M  V30 BEGIN BOND
M  V30 1 1 1 2
M  V30 2 2 2 3
M  V30 3 1 3 4
M  V30 4 2 4 5
M  V30 5 1 5 6
M  V30 6 2 6 7
M  V30 7 1 7 8
M  V30 8 2 8 9
M  V30 9 1 9 10
M  V30 10 2 10 11
M  V30 11 1 11 12
M  V30 12 1 12 13
M  V30 13 2 13 14
M  V30 14 1 14 15
M  V30 15 2 15 16
M  V30 16 1 16 17
M  V30 17 2 17 18
M  V30 18 2 12 19
M  V30 19 1 19 20
M  V30 20 1 20 2
M  V30 21 1 20 5
M  V30 22 1 11 6
M  V30 23 1 18 13
M  V30 24 1 1 21
M  V30 25 1 1 22
M  V30 26 1 1 23
M  V30 27 1 7 24
M  V30 28 1 8 25
M  V30 29 1 9 26
M  V30 30 1 10 27
M  V30 31 1 14 28
M  V30 32 1 15 29
M  V30 33 1 16 30
M  V30 34 1 17 31
M  V30 35 1 18 32
M  V30 END BOND
M  V30 END CTAB
M  END
>  <Dataset>  (268) 
ChEMBL_Kinases

>  <Ligand_Instance>  (268) 
nan

>  <PDB_ID>  (268) 
nan

>  <Standardized_SMILES>  (268) 
Cc1nnc2c3ccccc3c(-c3ccccc3)nn12

>  <Name>  (268) 
nan

>  <Pocket>  (268) 
nan

>  <ATP_Site>  (268) 
nan

>  <Peripheral>  (268) 
nan

>  <Num_H_Atoms_ProtBoundConf>  (268) 
nan

>  <Num_Resolved_Atoms>  (268) 
nan

>  <Num_Not_Resolved_Atoms>  (268) 
nan

$$$$
CHEMBL1483375
     RDKit          3D

  0  0  0  0  0  0  0  0  0  0999 V3000
M  V30 BEGIN CTAB
M  V30 COUNTS 47 49 0 0 0
M  V30 BEGIN ATOM
M  V30 1 C -0.550518 -6.007862 1.356445 0
M  V30 2 N 0.454271 -4.953742 1.487755 0
M  V30 3 C 1.322020 -4.864810 2.518099 0
M  V30 4 O 1.456996 -5.606255 3.525609 0
M  V30 5 O 2.069882 -3.805132 2.305404 0
M  V30 6 C 1.707977 -3.226654 1.184147 0
M  V30 7 C 2.145180 -2.117378 0.506720 0
M  V30 8 C 1.579893 -1.705096 -0.693310 0
M  V30 9 S 2.224231 -0.261172 -1.474267 0
M  V30 10 O 2.096960 -0.421466 -2.950334 0
M  V30 11 O 3.666381 -0.150073 -1.067517 0
M  V30 12 N 1.405674 1.150492 -0.873627 0
M  V30 13 C -0.006793 1.093044 -1.173509 0
M  V30 14 C -0.728862 2.306503 -0.644443 0
M  V30 15 N -0.677892 2.479840 0.736417 0
M  V30 16 C 0.488073 2.821661 1.417507 0
M  V30 17 C 0.838214 1.771922 2.449772 0
M  V30 18 C -0.378751 1.293115 3.215734 0
M  V30 19 C -1.350128 0.530979 2.369318 0
M  V30 20 C -2.469685 1.369418 1.794594 0
M  V30 21 C -1.877258 2.721406 1.456866 0
M  V30 22 C 0.527737 -2.442118 -1.239944 0
M  V30 23 C 0.086270 -3.565916 -0.553786 0
M  V30 24 C 0.677411 -3.939947 0.640540 0
M  V30 25 H -0.185753 -6.923237 1.844602 0
M  V30 26 H -0.750350 -6.113664 0.270153 0
M  V30 27 H -1.502347 -5.618325 1.815241 0
M  V30 28 H 2.963107 -1.539914 0.922371 0
M  V30 29 H 1.821744 2.014531 -1.318033 0
M  V30 30 H -0.145744 1.088589 -2.298094 0
M  V30 31 H -0.415543 0.131200 -0.842645 0
M  V30 32 H -1.755326 2.342009 -1.090148 0
M  V30 33 H -0.209346 3.182424 -1.151614 0
M  V30 34 H 0.315889 3.819892 1.933526 0
M  V30 35 H 1.341659 2.961884 0.761328 0
M  V30 36 H 1.337579 0.926208 1.977453 0
M  V30 37 H 1.494827 2.250781 3.206998 0
M  V30 38 H -0.828908 2.065143 3.856596 0
M  V30 39 H 0.039305 0.532178 3.939505 0
M  V30 40 H -0.754009 0.111319 1.518294 0
M  V30 41 H -1.823383 -0.306876 2.941023 0
M  V30 42 H -2.777535 0.859867 0.852855 0
M  V30 43 H -3.345657 1.454772 2.463620 0
M  V30 44 H -1.693177 3.234523 2.439711 0
M  V30 45 H -2.604732 3.375041 0.933255 0
M  V30 46 H 0.085301 -2.114703 -2.184363 0
M  V30 47 H -0.724798 -4.148672 -0.964226 0
M  V30 END ATOM
M  V30 BEGIN BOND
M  V30 1 1 1 2
M  V30 2 1 2 3
M  V30 3 2 3 4
M  V30 4 1 3 5
M  V30 5 1 5 6
M  V30 6 2 6 7
M  V30 7 1 7 8
M  V30 8 1 8 9
M  V30 9 2 9 10
M  V30 10 2 9 11
M  V30 11 1 9 12
M  V30 12 1 12 13
M  V30 13 1 13 14
M  V30 14 1 14 15
M  V30 15 1 15 16
M  V30 16 1 16 17
M  V30 17 1 17 18
M  V30 18 1 18 19
M  V30 19 1 19 20
M  V30 20 1 20 21
M  V30 21 2 8 22
M  V30 22 1 22 23
M  V30 23 2 23 24
M  V30 24 1 24 2
M  V30 25 1 24 6
M  V30 26 1 21 15
M  V30 27 1 1 25
M  V30 28 1 1 26
M  V30 29 1 1 27
M  V30 30 1 7 28
M  V30 31 1 12 29
M  V30 32 1 13 30
M  V30 33 1 13 31
M  V30 34 1 14 32
M  V30 35 1 14 33
M  V30 36 1 16 34
M  V30 37 1 16 35
M  V30 38 1 17 36
M  V30 39 1 17 37
M  V30 40 1 18 38
M  V30 41 1 18 39
M  V30 42 1 19 40
M  V30 43 1 19 41
M  V30 44 1 20 42
M  V30 45 1 20 43
M  V30 46 1 21 44
M  V30 47 1 21 45
M  V30 48 1 22 46
M  V30 49 1 23 47
M  V30 END BOND
M  V30 END CTAB
M  END
>  <Dataset>  (269) 
ChEMBL_Kinases

>  <Ligand_Instance>  (269) 
nan

>  <PDB_ID>  (269) 
nan

>  <Standardized_SMILES>  (269) 
Cn1c(=O)oc2cc(S(=O)(=O)NCCN3CCCCCC3)ccc21

>  <Name>  (269) 
nan

>  <Pocket>  (269) 
nan

>  <ATP_Site>  (269) 
nan

>  <Peripheral>  (269) 
nan

>  <Num_H_Atoms_ProtBoundConf>  (269) 
nan

>  <Num_Resolved_Atoms>  (269) 
nan

>  <Num_Not_Resolved_Atoms>  (269) 
nan

$$$$
CHEMBL1483315
     RDKit          3D

  0  0  0  0  0  0  0  0  0  0999 V3000
M  V30 BEGIN CTAB
M  V30 COUNTS 45 47 0 0 0
M  V30 BEGIN ATOM
M  V30 1 C 5.311669 -3.328283 1.732889 0
M  V30 2 C 5.711841 -2.341390 0.631422 0
M  V30 3 O 4.618444 -1.466013 0.486955 0
M  V30 4 C 4.564058 -0.411477 -0.412975 0
M  V30 5 O 5.566000 -0.211913 -1.165145 0
M  V30 6 C 3.275586 0.293656 -0.294983 0
M  V30 7 C 2.940458 1.360749 0.512404 0
M  V30 8 C 3.840830 2.040804 1.460756 0
M  V30 9 N 1.651404 1.662394 0.275545 0
M  V30 10 C 1.149731 0.836449 -0.645758 0
M  V30 11 C -0.190636 0.783008 -1.214684 0
M  V30 12 O -0.552857 -0.060964 -2.097504 0
M  V30 13 C -1.274694 1.718937 -0.814246 0
M  V30 14 N -1.997085 1.134746 0.303850 0
M  V30 15 N -1.644855 1.357571 1.571466 0
M  V30 16 N -2.481888 0.697944 2.361522 0
M  V30 17 C -3.393354 0.035508 1.589722 0
M  V30 18 C -4.503723 -0.818544 2.024105 0
M  V30 19 C -5.346611 -1.424341 1.112831 0
M  V30 20 C -6.381063 -2.222701 1.595693 0
M  V30 21 C -6.548281 -2.396259 2.972108 0
M  V30 22 C -5.699932 -1.786154 3.878111 0
M  V30 23 C -4.663612 -0.986051 3.385636 0
M  V30 24 Cl -3.583838 -0.209412 4.535913 0
M  V30 25 N -3.048527 0.339853 0.311435 0
M  V30 26 C 2.142788 -0.034038 -1.024134 0
M  V30 27 C 2.046405 -1.126356 -2.021728 0
M  V30 28 H 5.057141 -2.724981 2.630689 0
M  V30 29 H 6.162388 -3.975655 1.947337 0
M  V30 30 H 4.424238 -3.883642 1.335493 0
M  V30 31 H 5.853538 -2.861360 -0.333192 0
M  V30 32 H 6.646766 -1.829500 0.958276 0
M  V30 33 H 3.559342 1.741650 2.503255 0
M  V30 34 H 4.892072 1.723694 1.302392 0
M  V30 35 H 3.736475 3.148714 1.384285 0
M  V30 36 H 1.097690 2.431715 0.736092 0
M  V30 37 H -1.994655 1.912217 -1.626981 0
M  V30 38 H -0.817454 2.687897 -0.526720 0
M  V30 39 H -5.202061 -1.278833 0.054900 0
M  V30 40 H -7.063127 -2.714902 0.916387 0
M  V30 41 H -7.374089 -3.031160 3.286466 0
M  V30 42 H -5.840982 -1.929735 4.956824 0
M  V30 43 H 1.402149 -1.940094 -1.651462 0
M  V30 44 H 3.050571 -1.564362 -2.197743 0
M  V30 45 H 1.730572 -0.722392 -3.007361 0
M  V30 END ATOM
M  V30 BEGIN BOND
M  V30 1 1 1 2
M  V30 2 1 2 3
M  V30 3 1 3 4
M  V30 4 2 4 5
M  V30 5 1 4 6
M  V30 6 2 6 7
M  V30 7 1 7 8
M  V30 8 1 7 9
M  V30 9 1 9 10
M  V30 10 1 10 11
M  V30 11 2 11 12
M  V30 12 1 11 13
M  V30 13 1 13 14
M  V30 14 1 14 15
M  V30 15 2 15 16
M  V30 16 1 16 17
M  V30 17 1 17 18
M  V30 18 2 18 19
M  V30 19 1 19 20
M  V30 20 2 20 21
M  V30 21 1 21 22
M  V30 22 2 22 23
M  V30 23 1 23 24
M  V30 24 2 17 25
M  V30 25 2 10 26
M  V30 26 1 26 27
M  V30 27 1 26 6
M  V30 28 1 25 14
M  V30 29 1 23 18
M  V30 30 1 1 28
M  V30 31 1 1 29
M  V30 32 1 1 30
M  V30 33 1 2 31
M  V30 34 1 2 32
M  V30 35 1 8 33
M  V30 36 1 8 34
M  V30 37 1 8 35
M  V30 38 1 9 36
M  V30 39 1 13 37
M  V30 40 1 13 38
M  V30 41 1 19 39
M  V30 42 1 20 40
M  V30 43 1 21 41
M  V30 44 1 22 42
M  V30 45 1 27 43
M  V30 46 1 27 44
M  V30 47 1 27 45
M  V30 END BOND
M  V30 END CTAB
M  END
>  <Dataset>  (270) 
ChEMBL_Kinases

>  <Ligand_Instance>  (270) 
nan

>  <PDB_ID>  (270) 
nan

>  <Standardized_SMILES>  (270) 
CCOC(=O)c1c(C)[nH]c(C(=O)Cn2nnc(-c3ccccc3Cl)n2)c1C

>  <Name>  (270) 
nan

>  <Pocket>  (270) 
nan

>  <ATP_Site>  (270) 
nan

>  <Peripheral>  (270) 
nan

>  <Num_H_Atoms_ProtBoundConf>  (270) 
nan

>  <Num_Resolved_Atoms>  (270) 
nan

>  <Num_Not_Resolved_Atoms>  (270) 
nan

$$$$
CHEMBL1483298
     RDKit          3D

  0  0  0  0  0  0  0  0  0  0999 V3000
M  V30 BEGIN CTAB
M  V30 COUNTS 36 37 0 0 0
M  V30 BEGIN ATOM
M  V30 1 C 0.158070 -4.221519 4.086127 0
M  V30 2 C -0.482528 -4.322434 2.747871 0
M  V30 3 O -0.628213 -3.173221 2.010497 0
M  V30 4 C 0.271820 -2.267011 1.536376 0
M  V30 5 O -0.466958 -3.151079 2.014451 0
M  V30 6 C 1.441831 -1.506966 1.212868 0
M  V30 7 C 2.686930 -1.965357 1.716493 0
M  V30 8 N 3.702906 -2.344039 2.107895 0
M  V30 9 C 1.226723 -0.419583 0.456295 0
M  V30 10 C 2.533554 0.222278 0.243025 0
M  V30 11 C 2.708196 1.336909 -0.439243 0
M  V30 12 C 1.535670 1.964167 -1.009666 0
M  V30 13 C 1.641774 3.144646 -1.709764 0
M  V30 14 C 0.529603 3.760271 -2.228843 0
M  V30 15 C -0.715045 3.168992 -2.035089 0
M  V30 16 C -0.740516 2.001453 -1.333720 0
M  V30 17 C 0.332227 1.344439 -0.797589 0
M  V30 18 N 0.008245 0.163216 -0.101274 0
M  V30 19 C -1.086888 -0.635108 0.185838 0
M  V30 20 C -2.400712 -0.302409 -0.455129 0
M  V30 21 H 1.252499 -4.504161 4.093509 0
M  V30 22 H -0.294284 -5.023946 4.746780 0
M  V30 23 H -0.002940 -3.290564 4.622373 0
M  V30 24 H 0.080753 -5.138384 2.199755 0
M  V30 25 H -1.510705 -4.768583 2.908598 0
M  V30 26 H 3.502913 -0.143172 0.620729 0
M  V30 27 H 3.655954 1.812344 -0.602670 0
M  V30 28 H 2.646023 3.559916 -1.826649 0
M  V30 29 H 0.744811 4.678472 -2.752986 0
M  V30 30 H -1.543952 3.690481 -2.457184 0
M  V30 31 H -1.727208 1.666851 -1.229351 0
M  V30 32 H -1.354748 -0.678340 1.280781 0
M  V30 33 H -0.945845 -1.712527 -0.235730 0
M  V30 34 H -2.422184 -0.313676 -1.553219 0
M  V30 35 H -3.008633 0.466799 0.047958 0
M  V30 36 H -3.115478 -1.226024 -0.275127 0
M  V30 END ATOM
M  V30 BEGIN BOND
M  V30 1 1 1 2
M  V30 2 1 2 3
M  V30 3 1 3 4
M  V30 4 2 4 5
M  V30 5 1 4 6
M  V30 6 1 6 7
M  V30 7 3 7 8
M  V30 8 2 6 9
M  V30 9 1 9 10
M  V30 10 2 10 11
M  V30 11 1 11 12
M  V30 12 2 12 13
M  V30 13 1 13 14
M  V30 14 2 14 15
M  V30 15 1 15 16
M  V30 16 2 16 17
M  V30 17 1 17 18
M  V30 18 1 18 19
M  V30 19 1 19 20
M  V30 20 1 18 9
M  V30 21 1 17 12
M  V30 22 1 1 21
M  V30 23 1 1 22
M  V30 24 1 1 23
M  V30 25 1 2 24
M  V30 26 1 2 25
M  V30 27 1 10 26
M  V30 28 1 11 27
M  V30 29 1 13 28
M  V30 30 1 14 29
M  V30 31 1 15 30
M  V30 32 1 16 31
M  V30 33 1 19 32
M  V30 34 1 19 33
M  V30 35 1 20 34
M  V30 36 1 20 35
M  V30 37 1 20 36
M  V30 END BOND
M  V30 END CTAB
M  END
>  <Dataset>  (271) 
ChEMBL_Kinases

>  <Ligand_Instance>  (271) 
nan

>  <PDB_ID>  (271) 
nan

>  <Standardized_SMILES>  (271) 
CCOC(=O)/C(C#N)=C1/C=Cc2ccccc2N1CC

>  <Name>  (271) 
nan

>  <Pocket>  (271) 
nan

>  <ATP_Site>  (271) 
nan

>  <Peripheral>  (271) 
nan

>  <Num_H_Atoms_ProtBoundConf>  (271) 
nan

>  <Num_Resolved_Atoms>  (271) 
nan

>  <Num_Not_Resolved_Atoms>  (271) 
nan

$$$$
CHEMBL1483
     RDKit          3D

  0  0  0  0  0  0  0  0  0  0999 V3000
M  V30 BEGIN CTAB
M  V30 COUNTS 33 34 0 0 0
M  V30 BEGIN ATOM
M  V30 1 C -2.874150 -4.033589 1.025433 0
M  V30 2 C -1.546142 -4.297653 1.682709 0
M  V30 3 C -0.629307 -5.089481 0.793817 0
M  V30 4 S -0.270139 -4.250095 -0.768336 0
M  V30 5 C 0.674503 -2.756822 -0.503544 0
M  V30 6 C 2.054208 -2.731811 -0.490128 0
M  V30 7 C 2.807504 -1.592586 -0.288131 0
M  V30 8 C 2.110980 -0.394412 -0.085430 0
M  V30 9 N 2.540624 0.883031 0.138070 0
M  V30 10 C 1.445976 1.655529 0.264326 0
M  V30 11 N 1.394249 3.058039 0.506090 0
M  V30 12 C 0.154921 3.734079 0.613945 0
M  V30 13 O -0.945374 3.134242 0.502523 0
M  V30 14 O 0.014708 5.079697 0.845319 0
M  V30 15 C -1.272914 5.708417 0.944655 0
M  V30 16 N 0.377371 0.859235 0.119734 0
M  V30 17 C 0.732110 -0.421555 -0.099222 0
M  V30 18 C -0.021368 -1.560805 -0.301231 0
M  V30 19 H -2.880192 -2.992569 0.602360 0
M  V30 20 H -3.008598 -4.797337 0.232237 0
M  V30 21 H -3.703437 -4.039508 1.764116 0
M  V30 22 H -1.708486 -4.918678 2.591485 0
M  V30 23 H -1.086941 -3.333034 2.011313 0
M  V30 24 H 0.324699 -5.236239 1.316783 0
M  V30 25 H -1.138383 -6.039135 0.552738 0
M  V30 26 H 2.605666 -3.657400 -0.646787 0
M  V30 27 H 3.889789 -1.594842 -0.281411 0
M  V30 28 H 3.523292 1.164131 0.193086 0
M  V30 29 H 2.282945 3.612620 0.608243 0
M  V30 30 H -1.744858 5.298562 1.871172 0
M  V30 31 H -1.197720 6.792733 0.907717 0
M  V30 32 H -1.863184 5.254922 0.105834 0
M  V30 33 H -1.101374 -1.479758 -0.294380 0
M  V30 END ATOM
M  V30 BEGIN BOND
M  V30 1 1 1 2
M  V30 2 1 2 3
M  V30 3 1 3 4
M  V30 4 1 4 5
M  V30 5 2 5 6
M  V30 6 1 6 7
M  V30 7 2 7 8
M  V30 8 1 8 9
M  V30 9 1 9 10
M  V30 10 1 10 11
M  V30 11 1 11 12
M  V30 12 2 12 13
M  V30 13 1 12 14
M  V30 14 1 14 15
M  V30 15 2 10 16
M  V30 16 1 16 17
M  V30 17 2 17 18
M  V30 18 1 18 5
M  V30 19 1 17 8
M  V30 20 1 1 19
M  V30 21 1 1 20
M  V30 22 1 1 21
M  V30 23 1 2 22
M  V30 24 1 2 23
M  V30 25 1 3 24
M  V30 26 1 3 25
M  V30 27 1 6 26
M  V30 28 1 7 27
M  V30 29 1 9 28
M  V30 30 1 11 29
M  V30 31 1 15 30
M  V30 32 1 15 31
M  V30 33 1 15 32
M  V30 34 1 18 33
M  V30 END BOND
M  V30 END CTAB
M  END
>  <Dataset>  (272) 
ChEMBL_Kinases

>  <Ligand_Instance>  (272) 
nan

>  <PDB_ID>  (272) 
nan

>  <Standardized_SMILES>  (272) 
CCCSc1ccc2[nH]c(NC(=O)OC)nc2c1

>  <Name>  (272) 
ALBENDAZOLE

>  <Pocket>  (272) 
nan

>  <ATP_Site>  (272) 
nan

>  <Peripheral>  (272) 
nan

>  <Num_H_Atoms_ProtBoundConf>  (272) 
nan

>  <Num_Resolved_Atoms>  (272) 
nan

>  <Num_Not_Resolved_Atoms>  (272) 
nan

$$$$
CHEMBL1482912
     RDKit          3D

  0  0  0  0  0  0  0  0  0  0999 V3000
M  V30 BEGIN CTAB
M  V30 COUNTS 36 37 0 0 0
M  V30 BEGIN ATOM
M  V30 1 C 0.607104 -2.174572 4.364112 0
M  V30 2 C 0.387964 -3.231910 3.632203 0
M  V30 3 C 0.937736 -4.089511 2.582520 0
M  V30 4 S -0.081863 -4.204210 1.117342 0
M  V30 5 C -0.232548 -2.762160 0.143190 0
M  V30 6 C 0.331266 -1.579513 0.054952 0
M  V30 7 C 1.381560 -1.363495 1.012118 0
M  V30 8 N 2.238085 -1.196189 1.766642 0
M  V30 9 C 0.090346 -0.441584 -0.832465 0
M  V30 10 C 0.312806 0.863278 -0.184834 0
M  V30 11 C 0.060530 1.048524 1.156333 0
M  V30 12 C 0.249880 2.243218 1.810297 0
M  V30 13 C 0.718840 3.303392 1.066132 0
M  V30 14 C 0.966540 3.102173 -0.274828 0
M  V30 15 C 0.782309 1.898449 -0.962691 0
M  V30 16 C 1.076407 1.776193 -2.412581 0
M  V30 17 C -1.339428 -0.516503 -1.309361 0
M  V30 18 C -1.525747 -1.920743 -1.823455 0
M  V30 19 O -1.898237 -2.045387 -3.017737 0
M  V30 20 N -1.250909 -2.977559 -0.870628 0
M  V30 21 H 1.075721 -1.300253 4.789141 0
M  V30 22 H -0.058802 -1.776064 5.109742 0
M  V30 23 H -0.596734 -3.687876 3.859760 0
M  V30 24 H 1.043721 -5.129206 3.048280 0
M  V30 25 H 2.005364 -3.832548 2.338892 0
M  V30 26 H 0.809251 -0.537928 -1.682646 0
M  V30 27 H -0.314590 0.239365 1.796846 0
M  V30 28 H 0.058663 2.398240 2.845113 0
M  V30 29 H 0.898768 4.278667 1.488632 0
M  V30 30 H 1.340674 3.949074 -0.866680 0
M  V30 31 H 1.785763 0.966090 -2.647758 0
M  V30 32 H 0.163952 1.795007 -3.034634 0
M  V30 33 H 1.622309 2.717806 -2.703621 0
M  V30 34 H -1.979644 -0.345994 -0.443738 0
M  V30 35 H -1.590137 0.228191 -2.070040 0
M  V30 36 H -1.863250 -3.821332 -1.049566 0
M  V30 END ATOM
M  V30 BEGIN BOND
M  V30 1 2 1 2
M  V30 2 1 2 3
M  V30 3 1 3 4
M  V30 4 1 4 5
M  V30 5 2 5 6
M  V30 6 1 6 7
M  V30 7 3 7 8
M  V30 8 1 6 9
M  V30 9 1 9 10
M  V30 10 2 10 11
M  V30 11 1 11 12
M  V30 12 2 12 13
M  V30 13 1 13 14
M  V30 14 2 14 15
M  V30 15 1 15 16
M  V30 16 1 9 17
M  V30 17 1 17 18
M  V30 18 2 18 19
M  V30 19 1 18 20
M  V30 20 1 20 5
M  V30 21 1 15 10
M  V30 22 1 1 21
M  V30 23 1 1 22
M  V30 24 1 2 23
M  V30 25 1 3 24
M  V30 26 1 3 25
M  V30 27 1 9 26
M  V30 28 1 11 27
M  V30 29 1 12 28
M  V30 30 1 13 29
M  V30 31 1 14 30
M  V30 32 1 16 31
M  V30 33 1 16 32
M  V30 34 1 16 33
M  V30 35 1 17 34
M  V30 36 1 17 35
M  V30 37 1 20 36
M  V30 END BOND
M  V30 END CTAB
M  END
>  <Dataset>  (273) 
ChEMBL_Kinases

>  <Ligand_Instance>  (273) 
nan

>  <PDB_ID>  (273) 
nan

>  <Standardized_SMILES>  (273) 
C=CCSC1=C(C#N)C(c2ccccc2C)CC(=O)N1

>  <Name>  (273) 
nan

>  <Pocket>  (273) 
nan

>  <ATP_Site>  (273) 
nan

>  <Peripheral>  (273) 
nan

>  <Num_H_Atoms_ProtBoundConf>  (273) 
nan

>  <Num_Resolved_Atoms>  (273) 
nan

>  <Num_Not_Resolved_Atoms>  (273) 
nan

$$$$
CHEMBL1482905
     RDKit          3D

  0  0  0  0  0  0  0  0  0  0999 V3000
M  V30 BEGIN CTAB
M  V30 COUNTS 62 65 0 0 0
M  V30 BEGIN ATOM
M  V30 1 C 2.145447 -0.548762 7.614152 0
M  V30 2 C 1.781076 -0.852817 6.217948 0
M  V30 3 C 1.456505 -2.143176 5.795015 0
M  V30 4 C 1.130680 -2.449980 4.498570 0
M  V30 5 C 1.109027 -1.472846 3.531445 0
M  V30 6 N 0.791635 -1.903375 2.228407 0
M  V30 7 C 0.640799 -1.100165 1.080584 0
M  V30 8 O 0.761551 0.146352 1.108343 0
M  V30 9 C 0.324519 -1.577623 -0.322690 0
M  V30 10 N -0.088597 -0.397042 -1.123701 0
M  V30 11 C 0.061705 0.898443 -1.684746 0
M  V30 12 O -0.970840 1.008169 -2.376306 0
M  V30 13 C 1.100860 1.936792 -1.562095 0
M  V30 14 N 0.506460 3.264864 -1.420156 0
M  V30 15 N 0.130108 4.164182 -2.323238 0
M  V30 16 N -0.386695 5.233769 -1.773503 0
M  V30 17 N -0.367124 5.071290 -0.452901 0
M  V30 18 C 0.191589 3.840254 -0.255333 0
M  V30 19 N 0.330441 3.426145 1.095441 0
M  V30 20 C -1.382601 -0.516336 -1.775556 0
M  V30 21 C -2.522885 -0.065394 -1.090671 0
M  V30 22 C -3.836262 -0.136785 -1.568643 0
M  V30 23 C -3.985361 -0.701880 -2.814042 0
M  V30 24 C -5.385708 -0.772630 -3.285231 0
M  V30 25 C -2.896387 -1.158738 -3.525524 0
M  V30 26 C -1.606673 -1.075755 -3.030303 0
M  V30 27 C 1.624789 -2.031921 -0.873357 0
M  V30 28 C 1.945520 -3.482604 -0.653109 0
M  V30 29 C 0.776685 -4.259352 -1.169749 0
M  V30 30 C -0.496988 -3.976522 -0.433315 0
M  V30 31 C -0.784132 -2.531667 -0.212891 0
M  V30 32 C 1.422666 -0.213314 3.936248 0
M  V30 33 C 1.756114 0.135957 5.230560 0
M  V30 34 H 2.694643 0.422437 7.631401 0
M  V30 35 H 2.845716 -1.379290 7.928086 0
M  V30 36 H 1.312720 -0.610359 8.333497 0
M  V30 37 H 1.474435 -2.906327 6.547413 0
M  V30 38 H 0.896342 -3.479334 4.288107 0
M  V30 39 H 0.630639 -2.902181 1.983696 0
M  V30 40 H 1.673169 1.941294 -2.537964 0
M  V30 41 H 1.836062 1.810609 -0.775965 0
M  V30 42 H 0.029670 2.800116 1.855772 0
M  V30 43 H -0.233802 2.665410 1.536849 0
M  V30 44 H -2.353380 0.368106 -0.112621 0
M  V30 45 H -4.607067 0.254679 -0.915824 0
M  V30 46 H -5.377035 -1.197317 -4.321103 0
M  V30 47 H -6.017082 -1.392938 -2.584225 0
M  V30 48 H -5.856744 0.217427 -3.339469 0
M  V30 49 H -3.042497 -1.597203 -4.502742 0
M  V30 50 H -0.725974 -1.425125 -3.557607 0
M  V30 51 H 2.466810 -1.476101 -0.372344 0
M  V30 52 H 1.784978 -1.801703 -1.946232 0
M  V30 53 H 2.225286 -3.738454 0.384226 0
M  V30 54 H 2.815904 -3.745673 -1.278748 0
M  V30 55 H 1.011757 -5.337651 -1.099557 0
M  V30 56 H 0.669743 -4.014206 -2.243438 0
M  V30 57 H -1.304280 -4.485443 -1.002213 0
M  V30 58 H -0.424989 -4.546368 0.516321 0
M  V30 59 H -1.290235 -2.471474 0.793014 0
M  V30 60 H -1.637252 -2.284257 -0.879870 0
M  V30 61 H 1.423358 0.580815 3.236722 0
M  V30 62 H 1.999998 1.150741 5.508873 0
M  V30 END ATOM
M  V30 BEGIN BOND
M  V30 1 1 1 2
M  V30 2 2 2 3
M  V30 3 1 3 4
M  V30 4 2 4 5
M  V30 5 1 5 6
M  V30 6 1 6 7
M  V30 7 2 7 8
M  V30 8 1 7 9
M  V30 9 1 9 10
M  V30 10 1 10 11
M  V30 11 2 11 12
M  V30 12 1 11 13
M  V30 13 1 13 14
M  V30 14 1 14 15
M  V30 15 2 15 16
M  V30 16 1 16 17
M  V30 17 2 17 18
M  V30 18 1 18 19
M  V30 19 1 10 20
M  V30 20 2 20 21
M  V30 21 1 21 22
M  V30 22 2 22 23
M  V30 23 1 23 24
M  V30 24 1 23 25
M  V30 25 2 25 26
M  V30 26 1 9 27
M  V30 27 1 27 28
M  V30 28 1 28 29
M  V30 29 1 29 30
M  V30 30 1 30 31
M  V30 31 1 5 32
M  V30 32 2 32 33
M  V30 33 1 33 2
M  V30 34 1 31 9
M  V30 35 1 18 14
M  V30 36 1 26 20
M  V30 37 1 1 34
M  V30 38 1 1 35
M  V30 39 1 1 36
M  V30 40 1 3 37
M  V30 41 1 4 38
M  V30 42 1 6 39
M  V30 43 1 13 40
M  V30 44 1 13 41
M  V30 45 1 19 42
M  V30 46 1 19 43
M  V30 47 1 21 44
M  V30 48 1 22 45
M  V30 49 1 24 46
M  V30 50 1 24 47
M  V30 51 1 24 48
M  V30 52 1 25 49
M  V30 53 1 26 50
M  V30 54 1 27 51
M  V30 55 1 27 52
M  V30 56 1 28 53
M  V30 57 1 28 54
M  V30 58 1 29 55
M  V30 59 1 29 56
M  V30 60 1 30 57
M  V30 61 1 30 58
M  V30 62 1 31 59
M  V30 63 1 31 60
M  V30 64 1 32 61
M  V30 65 1 33 62
M  V30 END BOND
M  V30 END CTAB
M  END
>  <Dataset>  (274) 
ChEMBL_Kinases

>  <Ligand_Instance>  (274) 
nan

>  <PDB_ID>  (274) 
nan

>  <Standardized_SMILES>  (274) 
Cc1ccc(NC(=O)C2(N(C(=O)Cn3nnnc3N)c3ccc(C)cc3)CCCCC2)cc1

>  <Name>  (274) 
nan

>  <Pocket>  (274) 
nan

>  <ATP_Site>  (274) 
nan

>  <Peripheral>  (274) 
nan

>  <Num_H_Atoms_ProtBoundConf>  (274) 
nan

>  <Num_Resolved_Atoms>  (274) 
nan

>  <Num_Not_Resolved_Atoms>  (274) 
nan

$$$$
CHEMBL1482818
     RDKit          3D

  0  0  0  0  0  0  0  0  0  0999 V3000
M  V30 BEGIN CTAB
M  V30 COUNTS 27 27 0 0 0
M  V30 BEGIN ATOM
M  V30 1 C -1.676206 -2.571740 0.783412 0
M  V30 2 C -0.871945 -2.178567 1.972807 0
M  V30 3 O -0.649308 -2.958669 2.886084 0
M  V30 4 C -0.368676 -0.780693 1.953204 0
M  V30 5 C 0.856905 -0.722111 1.098886 0
M  V30 6 C 1.922270 -1.615151 1.641383 0
M  V30 7 O 0.507407 -1.146084 -0.208514 0
M  V30 8 C 0.031715 -0.033899 -0.933614 0
M  V30 9 N -0.734662 -0.309727 -2.107472 0
M  V30 10 C 0.434874 1.086367 -0.315225 0
M  V30 11 C 0.083990 2.377583 -0.849015 0
M  V30 12 N -0.205831 3.415849 -1.260320 0
M  V30 13 C 1.228787 0.703163 0.894878 0
M  V30 14 C 0.806007 1.567650 1.982643 0
M  V30 15 N 0.463844 2.261866 2.847336 0
M  V30 16 C 2.645851 0.893219 0.598363 0
M  V30 17 N 3.756812 1.039348 0.352487 0
M  V30 18 H -1.046791 -3.118756 0.036483 0
M  V30 19 H -2.482769 -3.237086 1.135710 0
M  V30 20 H -2.084662 -1.689610 0.253210 0
M  V30 21 H -0.165600 -0.432794 2.995029 0
M  V30 22 H -1.165611 -0.115495 1.579055 0
M  V30 23 H 2.836561 -1.583400 0.993808 0
M  V30 24 H 1.509370 -2.666842 1.565712 0
M  V30 25 H 2.160943 -1.464728 2.687085 0
M  V30 26 H -1.728105 -0.018926 -2.243385 0
M  V30 27 H -0.219509 -0.845129 -2.861798 0
M  V30 END ATOM
M  V30 BEGIN BOND
M  V30 1 1 1 2
M  V30 2 2 2 3
M  V30 3 1 2 4
M  V30 4 1 4 5
M  V30 5 1 5 6
M  V30 6 1 5 7
M  V30 7 1 7 8
M  V30 8 1 8 9
M  V30 9 2 8 10
M  V30 10 1 10 11
M  V30 11 3 11 12
M  V30 12 1 10 13
M  V30 13 1 13 14
M  V30 14 3 14 15
M  V30 15 1 13 16
M  V30 16 3 16 17
M  V30 17 1 13 5
M  V30 18 1 1 18
M  V30 19 1 1 19
M  V30 20 1 1 20
M  V30 21 1 4 21
M  V30 22 1 4 22
M  V30 23 1 6 23
M  V30 24 1 6 24
M  V30 25 1 6 25
M  V30 26 1 9 26
M  V30 27 1 9 27
M  V30 END BOND
M  V30 END CTAB
M  END
>  <Dataset>  (275) 
ChEMBL_Kinases

>  <Ligand_Instance>  (275) 
nan

>  <PDB_ID>  (275) 
nan

>  <Standardized_SMILES>  (275) 
CC(=O)CC1(C)OC(N)=C(C#N)C1(C#N)C#N

>  <Name>  (275) 
nan

>  <Pocket>  (275) 
nan

>  <ATP_Site>  (275) 
nan

>  <Peripheral>  (275) 
nan

>  <Num_H_Atoms_ProtBoundConf>  (275) 
nan

>  <Num_Resolved_Atoms>  (275) 
nan

>  <Num_Not_Resolved_Atoms>  (275) 
nan

$$$$
CHEMBL1486586
     RDKit          3D

  0  0  0  0  0  0  0  0  0  0999 V3000
M  V30 BEGIN CTAB
M  V30 COUNTS 45 48 0 0 0
M  V30 BEGIN ATOM
M  V30 1 C 2.814039 -1.711025 2.271369 0
M  V30 2 N 1.878205 -0.891986 1.528170 0
M  V30 3 C 2.234979 -0.269176 0.399102 0
M  V30 4 C 3.468954 -0.139641 -0.379844 0
M  V30 5 N 4.045961 1.209374 -0.266014 0
M  V30 6 C 4.932081 1.390244 0.780227 0
M  V30 7 O 5.346000 0.609280 1.671128 0
M  V30 8 S 5.435789 3.206602 0.582023 0
M  V30 9 C 4.401486 3.430664 -0.841615 0
M  V30 10 C 4.243580 4.590065 -1.584961 0
M  V30 11 C 3.391637 4.577147 -2.672419 0
M  V30 12 C 2.784583 3.362972 -2.884845 0
M  V30 13 C 2.922697 2.197842 -2.163835 0
M  V30 14 C 3.788962 2.238281 -1.071014 0
M  V30 15 N 1.131898 0.372159 -0.018536 0
M  V30 16 N 0.158068 0.133053 0.840398 0
M  V30 17 C 0.592898 -0.676007 1.852359 0
M  V30 18 S -0.337723 -1.311393 3.254478 0
M  V30 19 C -1.104286 -2.893844 2.713883 0
M  V30 20 C -2.134895 -2.603773 1.652804 0
M  V30 21 O -1.618212 -2.392331 0.502189 0
M  V30 22 N -3.548626 -2.575828 1.943128 0
M  V30 23 C -4.239307 -2.818446 3.198696 0
M  V30 24 C -5.467846 -3.581520 2.715139 0
M  V30 25 C -5.766406 -2.964180 1.380357 0
M  V30 26 C -4.504632 -2.264607 0.901435 0
M  V30 27 H 3.613678 -2.083412 1.595211 0
M  V30 28 H 3.262384 -1.207807 3.148556 0
M  V30 29 H 2.276688 -2.602891 2.689584 0
M  V30 30 H 4.181181 -0.902840 -0.063858 0
M  V30 31 H 3.291302 -0.366619 -1.474702 0
M  V30 32 H 4.782069 5.460095 -1.300871 0
M  V30 33 H 3.226593 5.444912 -3.288496 0
M  V30 34 H 2.099740 3.338199 -3.751654 0
M  V30 35 H 2.356746 1.337239 -2.491727 0
M  V30 36 H -0.304941 -3.514222 2.270917 0
M  V30 37 H -1.552358 -3.441382 3.546550 0
M  V30 38 H -4.581357 -1.849528 3.594590 0
M  V30 39 H -3.638766 -3.413022 3.900230 0
M  V30 40 H -5.259215 -4.680694 2.637538 0
M  V30 41 H -6.312624 -3.439015 3.439700 0
M  V30 42 H -6.047002 -3.715385 0.616537 0
M  V30 43 H -6.586438 -2.210022 1.524034 0
M  V30 44 H -4.189223 -2.607540 -0.106596 0
M  V30 45 H -4.639510 -1.142996 0.930801 0
M  V30 END ATOM
M  V30 BEGIN BOND
M  V30 1 1 1 2
M  V30 2 1 2 3
M  V30 3 1 3 4
M  V30 4 1 4 5
M  V30 5 1 5 6
M  V30 6 2 6 7
M  V30 7 1 6 8
M  V30 8 1 8 9
M  V30 9 2 9 10
M  V30 10 1 10 11
M  V30 11 2 11 12
M  V30 12 1 12 13
M  V30 13 2 13 14
M  V30 14 2 3 15
M  V30 15 1 15 16
M  V30 16 2 16 17
M  V30 17 1 17 18
M  V30 18 1 18 19
M  V30 19 1 19 20
M  V30 20 2 20 21
M  V30 21 1 20 22
M  V30 22 1 22 23
M  V30 23 1 23 24
M  V30 24 1 24 25
M  V30 25 1 25 26
M  V30 26 1 17 2
M  V30 27 1 26 22
M  V30 28 1 14 5
M  V30 29 1 14 9
M  V30 30 1 1 27
M  V30 31 1 1 28
M  V30 32 1 1 29
M  V30 33 1 4 30
M  V30 34 1 4 31
M  V30 35 1 10 32
M  V30 36 1 11 33
M  V30 37 1 12 34
M  V30 38 1 13 35
M  V30 39 1 19 36
M  V30 40 1 19 37
M  V30 41 1 23 38
M  V30 42 1 23 39
M  V30 43 1 24 40
M  V30 44 1 24 41
M  V30 45 1 25 42
M  V30 46 1 25 43
M  V30 47 1 26 44
M  V30 48 1 26 45
M  V30 END BOND
M  V30 END CTAB
M  END
>  <Dataset>  (276) 
ChEMBL_Kinases

>  <Ligand_Instance>  (276) 
nan

>  <PDB_ID>  (276) 
nan

>  <Standardized_SMILES>  (276) 
Cn1c(Cn2c(=O)sc3ccccc32)nnc1SCC(=O)N1CCCC1

>  <Name>  (276) 
nan

>  <Pocket>  (276) 
nan

>  <ATP_Site>  (276) 
nan

>  <Peripheral>  (276) 
nan

>  <Num_H_Atoms_ProtBoundConf>  (276) 
nan

>  <Num_Resolved_Atoms>  (276) 
nan

>  <Num_Not_Resolved_Atoms>  (276) 
nan

$$$$
CHEMBL1481715
     RDKit          3D

  0  0  0  0  0  0  0  0  0  0999 V3000
M  V30 BEGIN CTAB
M  V30 COUNTS 62 66 0 0 0
M  V30 BEGIN ATOM
M  V30 1 C 5.024009 1.555562 4.367438 0
M  V30 2 C 4.226315 0.554235 3.517033 0
M  V30 3 C 4.249736 -0.734159 4.315952 0
M  V30 4 C 2.812798 1.002232 3.353604 0
M  V30 5 N 1.968973 0.152987 2.580023 0
M  V30 6 C 1.908986 0.355414 1.229361 0
M  V30 7 C 1.165967 -0.355533 0.332820 0
M  V30 8 C 1.168990 -0.064925 -1.077905 0
M  V30 9 O 1.957999 -0.575494 -1.915301 0
M  V30 10 N 0.192410 0.876961 -1.532200 0
M  V30 11 C -0.780761 1.542335 -0.669855 0
M  V30 12 C -2.073408 1.808733 -1.394476 0
M  V30 13 N -2.209992 0.754671 -2.413238 0
M  V30 14 C -3.249002 -0.212109 -2.308829 0
M  V30 15 C -3.490411 -1.237288 -3.191596 0
M  V30 16 C -4.520904 -2.135861 -3.019099 0
M  V30 17 C -5.373732 -2.044811 -1.930433 0
M  V30 18 C -5.109180 -1.008146 -1.061388 0
M  V30 19 N -4.091774 -0.148281 -1.262645 0
M  V30 20 C -1.255967 0.746532 -3.506967 0
M  V30 21 C 0.060271 1.281509 -2.926950 0
M  V30 22 C 0.383556 -1.391051 0.800033 0
M  V30 23 C -0.481345 -2.321785 0.263087 0
M  V30 24 C -0.862662 -2.514794 -1.043579 0
M  V30 25 C -1.766213 -3.550749 -1.291510 0
M  V30 26 C -2.256487 -4.347842 -0.269326 0
M  V30 27 C -1.854998 -4.130559 1.037319 0
M  V30 28 C -0.954488 -3.098573 1.286747 0
M  V30 29 N -0.406215 -2.673230 2.437644 0
M  V30 30 C -0.656661 -3.238852 3.739471 0
M  V30 31 C 0.417917 -1.626146 2.160551 0
M  V30 32 C 1.195873 -0.862704 3.006156 0
M  V30 33 O 1.207118 -1.096369 4.228100 0
M  V30 34 H 4.424554 1.983655 5.175757 0
M  V30 35 H 5.901044 0.991207 4.751376 0
M  V30 36 H 5.467707 2.335043 3.687557 0
M  V30 37 H 4.785020 0.477367 2.580385 0
M  V30 38 H 3.858517 -1.602111 3.762818 0
M  V30 39 H 5.310362 -0.964771 4.637613 0
M  V30 40 H 3.694106 -0.604907 5.266490 0
M  V30 41 H 2.864507 2.003767 2.833010 0
M  V30 42 H 2.355131 1.262918 4.347125 0
M  V30 43 H 2.502710 1.156114 0.801406 0
M  V30 44 H -0.356917 2.520662 -0.391838 0
M  V30 45 H -0.967734 0.879804 0.206231 0
M  V30 46 H -2.951891 1.797406 -0.715550 0
M  V30 47 H -2.063580 2.788047 -1.943333 0
M  V30 48 H -2.832488 -1.319859 -4.045808 0
M  V30 49 H -4.692885 -2.936030 -3.727162 0
M  V30 50 H -6.196455 -2.703932 -1.726600 0
M  V30 51 H -5.688421 -0.804458 -0.161223 0
M  V30 52 H -1.117175 -0.228585 -3.978767 0
M  V30 53 H -1.609343 1.443111 -4.323170 0
M  V30 54 H 0.863860 0.851810 -3.558464 0
M  V30 55 H 0.054660 2.377126 -2.954575 0
M  V30 56 H -0.466301 -1.878791 -1.828525 0
M  V30 57 H -2.072811 -3.709306 -2.325273 0
M  V30 58 H -2.953196 -5.129635 -0.544249 0
M  V30 59 H -2.245506 -4.760030 1.824678 0
M  V30 60 H -1.535491 -2.759353 4.222116 0
M  V30 61 H -0.923573 -4.328130 3.616639 0
M  V30 62 H 0.243693 -3.222288 4.354999 0
M  V30 END ATOM
M  V30 BEGIN BOND
M  V30 1 1 1 2
M  V30 2 1 2 3
M  V30 3 1 2 4
M  V30 4 1 4 5
M  V30 5 1 5 6
M  V30 6 2 6 7
M  V30 7 1 7 8
M  V30 8 2 8 9
M  V30 9 1 8 10
M  V30 10 1 10 11
M  V30 11 1 11 12
M  V30 12 1 12 13
M  V30 13 1 13 14
M  V30 14 2 14 15
M  V30 15 1 15 16
M  V30 16 2 16 17
M  V30 17 1 17 18
M  V30 18 2 18 19
M  V30 19 1 13 20
M  V30 20 1 20 21
M  V30 21 1 7 22
M  V30 22 1 22 23
M  V30 23 2 23 24
M  V30 24 1 24 25
M  V30 25 2 25 26
M  V30 26 1 26 27
M  V30 27 2 27 28
M  V30 28 1 28 29
M  V30 29 1 29 30
M  V30 30 1 29 31
M  V30 31 1 31 32
M  V30 32 2 32 33
M  V30 33 1 32 5
M  V30 34 1 21 10
M  V30 35 2 31 22
M  V30 36 1 19 14
M  V30 37 1 28 23
M  V30 38 1 1 34
M  V30 39 1 1 35
M  V30 40 1 1 36
M  V30 41 1 2 37
M  V30 42 1 3 38
M  V30 43 1 3 39
M  V30 44 1 3 40
M  V30 45 1 4 41
M  V30 46 1 4 42
M  V30 47 1 6 43
M  V30 48 1 11 44
M  V30 49 1 11 45
M  V30 50 1 12 46
M  V30 51 1 12 47
M  V30 52 1 15 48
M  V30 53 1 16 49
M  V30 54 1 17 50
M  V30 55 1 18 51
M  V30 56 1 20 52
M  V30 57 1 20 53
M  V30 58 1 21 54
M  V30 59 1 21 55
M  V30 60 1 24 56
M  V30 61 1 25 57
M  V30 62 1 26 58
M  V30 63 1 27 59
M  V30 64 1 30 60
M  V30 65 1 30 61
M  V30 66 1 30 62
M  V30 END BOND
M  V30 END CTAB
M  END
>  <Dataset>  (277) 
ChEMBL_Kinases

>  <Ligand_Instance>  (277) 
nan

>  <PDB_ID>  (277) 
nan

>  <Standardized_SMILES>  (277) 
CC(C)Cn1cc(C(=O)N2CCN(c3ccccn3)CC2)c2c3ccccc3n(C)c2c1=O

>  <Name>  (277) 
nan

>  <Pocket>  (277) 
nan

>  <ATP_Site>  (277) 
nan

>  <Peripheral>  (277) 
nan

>  <Num_H_Atoms_ProtBoundConf>  (277) 
nan

>  <Num_Resolved_Atoms>  (277) 
nan

>  <Num_Not_Resolved_Atoms>  (277) 
nan

$$$$
CHEMBL1481785
     RDKit          3D

  0  0  0  0  0  0  0  0  0  0999 V3000
M  V30 BEGIN CTAB
M  V30 COUNTS 57 60 0 0 0
M  V30 BEGIN ATOM
M  V30 1 C 5.389778 -4.636817 3.376337 0
M  V30 2 O 4.592667 -4.675673 2.210550 0
M  V30 3 C 4.318207 -3.586061 1.401024 0
M  V30 4 C 4.742508 -2.286478 1.556496 0
M  V30 5 C 4.458300 -1.217165 0.740254 0
M  V30 6 C 3.648478 -1.480062 -0.368464 0
M  V30 7 N 3.302056 -0.439671 -1.273268 0
M  V30 8 C 3.834082 0.895663 -1.313852 0
M  V30 9 C 2.813219 1.948689 -1.583839 0
M  V30 10 N 1.503049 1.453111 -1.257997 0
M  V30 11 C 0.803713 2.065062 -0.193094 0
M  V30 12 O 1.629293 2.947606 0.235595 0
M  V30 13 C -0.515515 1.838239 0.358992 0
M  V30 14 C -1.541602 1.832598 -0.605284 0
M  V30 15 C -2.869066 1.662206 -0.178692 0
M  V30 16 C -3.217469 1.495585 1.174821 0
M  V30 17 N -4.626541 1.415073 1.202228 0
M  V30 18 S -5.813860 0.487483 0.410638 0
M  V30 19 O -5.578404 0.630361 -1.103850 0
M  V30 20 O -7.169186 0.995837 0.690210 0
M  V30 21 C -5.733706 -1.223407 0.715917 0
M  V30 22 C -6.539356 -1.648238 1.783069 0
M  V30 23 C -6.640126 -2.947322 2.204602 0
M  V30 24 C -5.911168 -3.921167 1.554371 0
M  V30 25 C -5.121628 -3.519018 0.513308 0
M  V30 26 F -4.381450 -4.444013 -0.157200 0
M  V30 27 C -4.994850 -2.221518 0.059549 0
M  V30 28 C -2.186552 1.506855 2.064757 0
M  V30 29 C -0.886805 1.672668 1.665974 0
M  V30 30 C 1.161007 0.357409 -2.143854 0
M  V30 31 C 2.331227 -0.584431 -2.328286 0
M  V30 32 C 3.194899 -2.752728 -0.579272 0
M  V30 33 C 3.507184 -3.819420 0.277197 0
M  V30 34 H 5.944003 -5.568751 3.535199 0
M  V30 35 H 4.773084 -4.319474 4.251730 0
M  V30 36 H 6.098418 -3.759235 3.242597 0
M  V30 37 H 5.377376 -2.084048 2.425939 0
M  V30 38 H 4.864040 -0.256653 0.991905 0
M  V30 39 H 4.660920 0.921870 -2.088272 0
M  V30 40 H 4.354269 1.082806 -0.338654 0
M  V30 41 H 3.105125 2.868789 -1.023199 0
M  V30 42 H 2.859008 2.139206 -2.697401 0
M  V30 43 H -1.282157 1.965411 -1.655977 0
M  V30 44 H -3.538671 1.682769 -1.050833 0
M  V30 45 H -4.853973 2.140938 1.918872 0
M  V30 46 H -7.159325 -0.960719 2.363411 0
M  V30 47 H -7.268656 -3.255839 3.025266 0
M  V30 48 H -5.951825 -4.967192 1.850518 0
M  V30 49 H -4.403957 -1.821147 -0.738228 0
M  V30 50 H -2.557465 1.373481 3.061705 0
M  V30 51 H -0.117537 1.678133 2.400838 0
M  V30 52 H 0.268894 -0.131863 -1.742378 0
M  V30 53 H 0.907208 0.797057 -3.126578 0
M  V30 54 H 2.831195 -0.332270 -3.299327 0
M  V30 55 H 1.923027 -1.584410 -2.456306 0
M  V30 56 H 2.574365 -3.084923 -1.382284 0
M  V30 57 H 3.152261 -4.838942 0.113610 0
M  V30 END ATOM
M  V30 BEGIN BOND
M  V30 1 1 1 2
M  V30 2 1 2 3
M  V30 3 2 3 4
M  V30 4 1 4 5
M  V30 5 2 5 6
M  V30 6 1 6 7
M  V30 7 1 7 8
M  V30 8 1 8 9
M  V30 9 1 9 10
M  V30 10 1 10 11
M  V30 11 2 11 12
M  V30 12 1 11 13
M  V30 13 2 13 14
M  V30 14 1 14 15
M  V30 15 2 15 16
M  V30 16 1 16 17
M  V30 17 1 17 18
M  V30 18 2 18 19
M  V30 19 2 18 20
M  V30 20 1 18 21
M  V30 21 2 21 22
M  V30 22 1 22 23
M  V30 23 2 23 24
M  V30 24 1 24 25
M  V30 25 1 25 26
M  V30 26 2 25 27
M  V30 27 1 16 28
M  V30 28 2 28 29
M  V30 29 1 10 30
M  V30 30 1 30 31
M  V30 31 1 6 32
M  V30 32 2 32 33
M  V30 33 1 33 3
M  V30 34 1 31 7
M  V30 35 1 29 13
M  V30 36 1 27 21
M  V30 37 1 1 34
M  V30 38 1 1 35
M  V30 39 1 1 36
M  V30 40 1 4 37
M  V30 41 1 5 38
M  V30 42 1 8 39
M  V30 43 1 8 40
M  V30 44 1 9 41
M  V30 45 1 9 42
M  V30 46 1 14 43
M  V30 47 1 15 44
M  V30 48 1 17 45
M  V30 49 1 22 46
M  V30 50 1 23 47
M  V30 51 1 24 48
M  V30 52 1 27 49
M  V30 53 1 28 50
M  V30 54 1 29 51
M  V30 55 1 30 52
M  V30 56 1 30 53
M  V30 57 1 31 54
M  V30 58 1 31 55
M  V30 59 1 32 56
M  V30 60 1 33 57
M  V30 END BOND
M  V30 END CTAB
M  END
>  <Dataset>  (278) 
ChEMBL_Kinases

>  <Ligand_Instance>  (278) 
nan

>  <PDB_ID>  (278) 
nan

>  <Standardized_SMILES>  (278) 
COc1ccc(N2CCN(C(=O)c3ccc(NS(=O)(=O)c4cccc(F)c4)cc3)CC2)cc1

>  <Name>  (278) 
nan

>  <Pocket>  (278) 
nan

>  <ATP_Site>  (278) 
nan

>  <Peripheral>  (278) 
nan

>  <Num_H_Atoms_ProtBoundConf>  (278) 
nan

>  <Num_Resolved_Atoms>  (278) 
nan

>  <Num_Not_Resolved_Atoms>  (278) 
nan

$$$$
CHEMBL1481917
     RDKit          3D

  0  0  0  0  0  0  0  0  0  0999 V3000
M  V30 BEGIN CTAB
M  V30 COUNTS 45 47 0 0 0
M  V30 BEGIN ATOM
M  V30 1 O -0.005449 -2.554088 -0.450037 0
M  V30 2 C -1.016373 -2.463514 0.294517 0
M  V30 3 N -0.636822 -2.676593 1.641867 0
M  V30 4 N 0.720737 -2.933437 1.870592 0
M  V30 5 C 1.480373 -2.104872 2.507696 0
M  V30 6 C 2.941167 -2.375810 2.756653 0
M  V30 7 C 3.803618 -1.348226 2.080709 0
M  V30 8 N 3.144113 -0.098672 1.864518 0
M  V30 9 C 2.747286 0.050315 0.498968 0
M  V30 10 C 2.058604 1.315917 0.190721 0
M  V30 11 C 0.677663 1.517710 0.260537 0
M  V30 12 C 0.095993 2.731410 -0.042368 0
M  V30 13 C 0.864221 3.808858 -0.431477 0
M  V30 14 C 2.222191 3.644094 -0.510047 0
M  V30 15 C 2.792705 2.425773 -0.204742 0
M  V30 16 C 2.168589 0.242118 2.843755 0
M  V30 17 C 1.113007 -0.779440 3.103435 0
M  V30 18 C -2.320323 -2.178343 -0.274478 0
M  V30 19 C -2.392044 -2.015725 -1.640376 0
M  V30 20 C -3.578350 -1.742979 -2.278537 0
M  V30 21 C -4.768415 -1.615214 -1.593983 0
M  V30 22 C -4.721011 -1.774045 -0.224788 0
M  V30 23 C -3.516797 -2.046375 0.381833 0
M  V30 24 O -3.528615 -2.195037 1.750488 0
M  V30 25 H -1.394372 -2.625761 2.354566 0
M  V30 26 H 3.161777 -3.363897 2.355836 0
M  V30 27 H 3.121209 -2.296416 3.852933 0
M  V30 28 H 4.097916 -1.755246 1.085601 0
M  V30 29 H 4.707328 -1.188523 2.696022 0
M  V30 30 H 2.169671 -0.830336 0.151784 0
M  V30 31 H 3.701011 0.045411 -0.100945 0
M  V30 32 H 0.073898 0.674271 0.565289 0
M  V30 33 H -0.996553 2.760673 0.051267 0
M  V30 34 H 0.316773 4.715162 -0.647088 0
M  V30 35 H 2.798815 4.500647 -0.816205 0
M  V30 36 H 3.881061 2.363689 -0.288307 0
M  V30 37 H 2.721660 0.505865 3.781888 0
M  V30 38 H 1.675163 1.184861 2.533820 0
M  V30 39 H 0.999203 -0.879834 4.209045 0
M  V30 40 H 0.123248 -0.442716 2.688449 0
M  V30 41 H -1.489626 -2.101298 -2.262258 0
M  V30 42 H -3.574457 -1.625558 -3.351178 0
M  V30 43 H -5.723488 -1.401725 -2.052363 0
M  V30 44 H -5.624197 -1.684225 0.359721 0
M  V30 45 H -4.263272 -2.761875 2.156815 0
M  V30 END ATOM
M  V30 BEGIN BOND
M  V30 1 2 1 2
M  V30 2 1 2 3
M  V30 3 1 3 4
M  V30 4 2 4 5 CFG=2
M  V30 5 1 5 6
M  V30 6 1 6 7
M  V30 7 1 7 8
M  V30 8 1 8 9
M  V30 9 1 9 10
M  V30 10 2 10 11
M  V30 11 1 11 12
M  V30 12 2 12 13
M  V30 13 1 13 14
M  V30 14 2 14 15
M  V30 15 1 8 16
M  V30 16 1 16 17
M  V30 17 1 2 18
M  V30 18 2 18 19
M  V30 19 1 19 20
M  V30 20 2 20 21
M  V30 21 1 21 22
M  V30 22 2 22 23
M  V30 23 1 23 24
M  V30 24 1 17 5
M  V30 25 1 23 18
M  V30 26 1 15 10
M  V30 27 1 3 25
M  V30 28 1 6 26
M  V30 29 1 6 27
M  V30 30 1 7 28
M  V30 31 1 7 29
M  V30 32 1 9 30
M  V30 33 1 9 31
M  V30 34 1 11 32
M  V30 35 1 12 33
M  V30 36 1 13 34
M  V30 37 1 14 35
M  V30 38 1 15 36
M  V30 39 1 16 37
M  V30 40 1 16 38
M  V30 41 1 17 39
M  V30 42 1 17 40
M  V30 43 1 19 41
M  V30 44 1 20 42
M  V30 45 1 21 43
M  V30 46 1 22 44
M  V30 47 1 24 45
M  V30 END BOND
M  V30 END CTAB
M  END
>  <Dataset>  (279) 
ChEMBL_Kinases

>  <Ligand_Instance>  (279) 
nan

>  <PDB_ID>  (279) 
nan

>  <Standardized_SMILES>  (279) 
O=C(NN=C1CCN(Cc2ccccc2)CC1)c1ccccc1O

>  <Name>  (279) 
nan

>  <Pocket>  (279) 
nan

>  <ATP_Site>  (279) 
nan

>  <Peripheral>  (279) 
nan

>  <Num_H_Atoms_ProtBoundConf>  (279) 
nan

>  <Num_Resolved_Atoms>  (279) 
nan

>  <Num_Not_Resolved_Atoms>  (279) 
nan

$$$$
CHEMBL1481984
     RDKit          3D

  0  0  0  0  0  0  0  0  0  0999 V3000
M  V30 BEGIN CTAB
M  V30 COUNTS 93 97 0 0 0
M  V30 BEGIN ATOM
M  V30 1 C 1.470608 -6.443463 1.428654 0
M  V30 2 C 0.566029 -6.508554 0.237460 0
M  V30 3 O -0.187965 -6.874599 -0.669359 0
M  V30 4 O 0.415995 -5.246753 -0.312045 0
M  V30 5 C -0.376058 -4.958543 -1.450764 0
M  V30 6 C -0.253573 -3.500464 -1.696740 0
M  V30 7 C -0.729756 -2.653426 -0.541166 0
M  V30 8 C 0.365706 -2.448411 0.485836 0
M  V30 9 C 0.283584 -1.031114 1.051532 0
M  V30 10 C -1.148459 -0.698104 1.365940 0 CFG=1
M  V30 11 C -1.315134 0.409443 2.382712 0
M  V30 12 O -0.348407 1.314683 2.412145 0
M  V30 13 C 0.291457 1.617888 3.553666 0
M  V30 14 C 1.171294 0.691238 4.234412 0
M  V30 15 C 2.481022 0.862383 3.716752 0
M  V30 16 C 3.632258 0.151108 4.072739 0
M  V30 17 C 3.522496 -0.832498 5.028589 0
M  V30 18 F 4.516635 -1.612491 5.491999 0
M  V30 19 C 2.269775 -1.021830 5.548358 0
M  V30 20 C 1.154274 -0.304003 5.176841 0
M  V30 21 C -0.154722 -0.564074 5.789425 0
M  V30 22 F -0.783332 0.574400 6.282745 0
M  V30 23 F -0.932593 -1.485098 5.196935 0
M  V30 24 F 0.185106 -1.208925 7.048689 0
M  V30 25 O -2.548639 1.083632 2.060860 0
M  V30 26 C -2.291624 1.832321 0.892264 0
M  V30 27 C -2.234008 0.884394 -0.289006 0 CFG=2
M  V30 28 C -3.651339 0.920404 -0.882978 0
M  V30 29 C -1.932838 -0.513339 0.107864 0 CFG=1
M  V30 30 C -1.199651 -1.300785 -0.947179 0
M  V30 31 C -1.052118 -0.731428 -2.137069 0
M  V30 32 C -1.537933 0.623917 -2.489394 0
M  V30 33 N -1.360732 1.426378 -1.284804 0
M  V30 34 C -0.422390 2.480792 -1.387458 0
M  V30 35 O 0.057487 2.465313 -2.550071 0
M  V30 36 O 0.046370 3.451063 -0.551383 0
M  V30 37 C 1.002138 4.415099 -0.872056 0
M  V30 38 C 1.178306 5.265668 0.394455 0
M  V30 39 C 2.349062 3.832212 -1.202245 0
M  V30 40 C 0.609264 5.331722 -2.007138 0
M  V30 41 C -0.351544 -1.604868 -3.120036 0 CFG=2
M  V30 42 C -0.396710 -1.075125 -4.506886 0
M  V30 43 C -0.956697 -2.980408 -2.928391 0
M  V30 44 C -0.874681 -3.872644 -4.101380 0
M  V30 45 O -1.577756 -3.306681 -5.183428 0
M  V30 46 C -2.944192 -3.103676 -5.072036 0
M  V30 47 C -3.516020 -2.491712 -6.315450 0
M  V30 48 O -3.689093 -3.368158 -4.092483 0
M  V30 49 H 1.582928 -7.434091 1.914580 0
M  V30 50 H 2.456670 -6.065898 1.111256 0
M  V30 51 H 1.037231 -5.734566 2.150987 0
M  V30 52 H 0.139395 -5.487918 -2.290855 0
M  V30 53 H -1.427683 -5.258696 -1.349536 0
M  V30 54 H 0.839248 -3.277777 -1.844090 0
M  V30 55 H -1.542648 -3.214755 0.000831 0
M  V30 56 H 1.332848 -2.489644 -0.072923 0
M  V30 57 H 0.392098 -3.211428 1.267448 0
M  V30 58 H 0.758607 -0.287459 0.393513 0
M  V30 59 H 0.847691 -1.059050 2.004045 0
M  V30 60 H -1.550217 -1.627587 1.875346 0
M  V30 61 H -1.521148 0.014471 3.380209 0
M  V30 62 H -0.504155 1.945971 4.340281 0
M  V30 63 H 0.835867 2.623553 3.457413 0
M  V30 64 H 2.786489 1.597070 2.943136 0
M  V30 65 H 4.620340 0.296164 3.667959 0
M  V30 66 H 2.114625 -1.783914 6.306146 0
M  V30 67 H -3.119735 2.565770 0.811095 0
M  V30 68 H -1.338104 2.366611 0.963676 0
M  V30 69 H -3.753004 1.717995 -1.640738 0
M  V30 70 H -3.878371 -0.054196 -1.349868 0
M  V30 71 H -4.395361 1.094819 -0.076628 0
M  V30 72 H -2.923948 -1.049805 0.234977 0
M  V30 73 H -0.982130 1.033329 -3.343116 0
M  V30 74 H -2.585731 0.532750 -2.802020 0
M  V30 75 H 0.195820 5.324648 0.912574 0
M  V30 76 H 1.865613 4.695439 1.054141 0
M  V30 77 H 1.603408 6.239852 0.159700 0
M  V30 78 H 2.761450 4.244100 -2.148910 0
M  V30 79 H 2.177456 2.741420 -1.441826 0
M  V30 80 H 3.021315 3.909722 -0.347884 0
M  V30 81 H -0.041275 6.135785 -1.605415 0
M  V30 82 H 0.160270 4.784196 -2.834632 0
M  V30 83 H 1.558968 5.848878 -2.324020 0
M  V30 84 H 0.743316 -1.698705 -2.854295 0
M  V30 85 H 0.265117 -0.154597 -4.498065 0
M  V30 86 H 0.149611 -1.773191 -5.171302 0
M  V30 87 H -1.359909 -0.722611 -4.865947 0
M  V30 88 H -2.011560 -2.836766 -2.636245 0
M  V30 89 H 0.145724 -4.127612 -4.422295 0
M  V30 90 H -1.448981 -4.799063 -3.851064 0
M  V30 91 H -3.239863 -1.412328 -6.338791 0
M  V30 92 H -4.618440 -2.497647 -6.195476 0
M  V30 93 H -3.232312 -3.045270 -7.233480 0
M  V30 END ATOM
M  V30 BEGIN BOND
M  V30 1 1 1 2
M  V30 2 2 2 3
M  V30 3 1 2 4
M  V30 4 1 4 5
M  V30 5 1 5 6
M  V30 6 1 6 7
M  V30 7 1 7 8
M  V30 8 1 8 9
M  V30 9 1 9 10
M  V30 10 1 10 11
M  V30 11 1 11 12
M  V30 12 1 12 13
M  V30 13 1 13 14
M  V30 14 2 14 15
M  V30 15 1 15 16
M  V30 16 2 16 17
M  V30 17 1 17 18
M  V30 18 1 17 19
M  V30 19 2 19 20
M  V30 20 1 20 21
M  V30 21 1 21 22
M  V30 22 1 21 23
M  V30 23 1 21 24
M  V30 24 1 11 25
M  V30 25 1 25 26
M  V30 26 1 26 27
M  V30 27 1 27 28 CFG=3
M  V30 28 1 27 29
M  V30 29 1 29 30
M  V30 30 2 30 31
M  V30 31 1 31 32
M  V30 32 1 32 33
M  V30 33 1 33 34
M  V30 34 2 34 35
M  V30 35 1 34 36
M  V30 36 1 36 37
M  V30 37 1 37 38
M  V30 38 1 37 39
M  V30 39 1 37 40
M  V30 40 1 31 41
M  V30 41 1 41 42
M  V30 42 1 41 43
M  V30 43 1 43 44
M  V30 44 1 44 45
M  V30 45 1 45 46
M  V30 46 1 46 47
M  V30 47 2 46 48
M  V30 48 1 43 6
M  V30 49 1 30 7
M  V30 50 1 29 10
M  V30 51 1 20 14
M  V30 52 1 33 27
M  V30 53 1 1 49
M  V30 54 1 1 50
M  V30 55 1 1 51
M  V30 56 1 5 52
M  V30 57 1 5 53
M  V30 58 1 6 54
M  V30 59 1 7 55
M  V30 60 1 8 56
M  V30 61 1 8 57
M  V30 62 1 9 58
M  V30 63 1 9 59
M  V30 64 1 10 60 CFG=1
M  V30 65 1 11 61
M  V30 66 1 13 62
M  V30 67 1 13 63
M  V30 68 1 15 64
M  V30 69 1 16 65
M  V30 70 1 19 66
M  V30 71 1 26 67
M  V30 72 1 26 68
M  V30 73 1 28 69
M  V30 74 1 28 70
M  V30 75 1 28 71
M  V30 76 1 29 72 CFG=1
M  V30 77 1 32 73
M  V30 78 1 32 74
M  V30 79 1 38 75
M  V30 80 1 38 76
M  V30 81 1 38 77
M  V30 82 1 39 78
M  V30 83 1 39 79
M  V30 84 1 39 80
M  V30 85 1 40 81
M  V30 86 1 40 82
M  V30 87 1 40 83
M  V30 88 1 41 84 CFG=1
M  V30 89 1 42 85
M  V30 90 1 42 86
M  V30 91 1 42 87
M  V30 92 1 43 88
M  V30 93 1 44 89
M  V30 94 1 44 90
M  V30 95 1 47 91
M  V30 96 1 47 92
M  V30 97 1 47 93
M  V30 END BOND
M  V30 END CTAB
M  END
>  <Dataset>  (280) 
ChEMBL_Kinases

>  <Ligand_Instance>  (280) 
nan

>  <PDB_ID>  (280) 
nan

>  <Standardized_SMILES>  (280) 
CC(=O)OCC1C2CC[C@H]3C(OCc4ccc(F)cc4C(F)(F)F)OC[C@]4(C)[C@H]3C2=C(CN4C(=O)OC(C)(C)C)[C@H](C)C1COC(C)=O

>  <Name>  (280) 
nan

>  <Pocket>  (280) 
nan

>  <ATP_Site>  (280) 
nan

>  <Peripheral>  (280) 
nan

>  <Num_H_Atoms_ProtBoundConf>  (280) 
nan

>  <Num_Resolved_Atoms>  (280) 
nan

>  <Num_Not_Resolved_Atoms>  (280) 
nan

$$$$
CHEMBL1481995
     RDKit          3D

  0  0  0  0  0  0  0  0  0  0999 V3000
M  V30 BEGIN CTAB
M  V30 COUNTS 35 37 0 0 0
M  V30 BEGIN ATOM
M  V30 1 N 2.129561 -3.954489 3.550876 0
M  V30 2 C 1.811780 -2.629513 4.101788 0
M  V30 3 O 1.746606 -3.159026 5.212595 0
M  V30 4 C 1.791875 -1.639609 3.055926 0
M  V30 5 C 1.365424 -1.865464 1.779168 0
M  V30 6 C 1.512860 -0.793253 0.929911 0
M  V30 7 C 2.042499 0.397972 1.329722 0
M  V30 8 N 2.269766 1.448375 0.426792 0
M  V30 9 N 3.511684 1.900852 0.136366 0
M  V30 10 N 3.394546 2.886048 -0.766704 0
M  V30 11 N 2.086783 3.007574 -1.002057 0
M  V30 12 C 1.358854 2.116933 -0.261920 0
M  V30 13 S -0.322981 2.434270 -0.637340 0
M  V30 14 C -0.965901 1.295847 -1.840675 0
M  V30 15 C -2.022741 0.366363 -1.322130 0
M  V30 16 C -2.555157 0.122196 -0.076043 0
M  V30 17 C -3.607617 -0.732702 0.127510 0
M  V30 18 C -4.198756 -1.411685 -0.939891 0
M  V30 19 C -3.684493 -1.198494 -2.213684 0
M  V30 20 C -2.643126 -0.339613 -2.369150 0
M  V30 21 C 2.483570 0.645961 2.640775 0
M  V30 22 C 2.339572 -0.432224 3.505704 0
M  V30 23 H 2.355941 -4.878954 3.163058 0
M  V30 24 H 2.925134 -4.167599 2.904389 0
M  V30 25 H 0.951993 -2.809784 1.508278 0
M  V30 26 H 1.156941 -0.966222 -0.103899 0
M  V30 27 H -1.321661 1.767530 -2.753844 0
M  V30 28 H -0.127332 0.586370 -2.136305 0
M  V30 29 H -2.024396 0.695802 0.659119 0
M  V30 30 H -3.939062 -0.826945 1.172232 0
M  V30 31 H -5.044834 -2.093236 -0.748761 0
M  V30 32 H -4.163233 -1.758009 -3.026583 0
M  V30 33 H -2.313372 -0.250769 -3.425599 0
M  V30 34 H 2.890548 1.577196 2.933826 0
M  V30 35 H 2.702889 -0.213151 4.515842 0
M  V30 END ATOM
M  V30 BEGIN BOND
M  V30 1 1 1 2
M  V30 2 2 2 3
M  V30 3 1 2 4
M  V30 4 2 4 5
M  V30 5 1 5 6
M  V30 6 2 6 7
M  V30 7 1 7 8
M  V30 8 1 8 9
M  V30 9 2 9 10
M  V30 10 1 10 11
M  V30 11 2 11 12
M  V30 12 1 12 13
M  V30 13 1 13 14
M  V30 14 1 14 15
M  V30 15 2 15 16
M  V30 16 1 16 17
M  V30 17 2 17 18
M  V30 18 1 18 19
M  V30 19 2 19 20
M  V30 20 1 7 21
M  V30 21 2 21 22
M  V30 22 1 22 4
M  V30 23 1 12 8
M  V30 24 1 20 15
M  V30 25 1 1 23
M  V30 26 1 1 24
M  V30 27 1 5 25
M  V30 28 1 6 26
M  V30 29 1 14 27
M  V30 30 1 14 28
M  V30 31 1 16 29
M  V30 32 1 17 30
M  V30 33 1 18 31
M  V30 34 1 19 32
M  V30 35 1 20 33
M  V30 36 1 21 34
M  V30 37 1 22 35
M  V30 END BOND
M  V30 END CTAB
M  END
>  <Dataset>  (281) 
ChEMBL_Kinases

>  <Ligand_Instance>  (281) 
nan

>  <PDB_ID>  (281) 
nan

>  <Standardized_SMILES>  (281) 
NC(=O)c1ccc(-n2nnnc2SCc2ccccc2)cc1

>  <Name>  (281) 
nan

>  <Pocket>  (281) 
nan

>  <ATP_Site>  (281) 
nan

>  <Peripheral>  (281) 
nan

>  <Num_H_Atoms_ProtBoundConf>  (281) 
nan

>  <Num_Resolved_Atoms>  (281) 
nan

>  <Num_Not_Resolved_Atoms>  (281) 
nan

$$$$
CHEMBL1482134
     RDKit          3D

  0  0  0  0  0  0  0  0  0  0999 V3000
M  V30 BEGIN CTAB
M  V30 COUNTS 26 28 0 0 0
M  V30 BEGIN ATOM
M  V30 1 C -1.350348 -2.239861 2.410538 0
M  V30 2 C -0.103896 -2.279204 1.596123 0
M  V30 3 C 0.539168 -3.553270 1.635662 0
M  V30 4 S 2.062298 -3.254212 0.552499 0
M  V30 5 C 1.584337 -1.504052 0.237504 0
M  V30 6 C 2.322791 -0.656406 -0.534985 0
M  V30 7 C 3.536459 -1.065320 -1.167055 0
M  V30 8 N 4.534829 -1.382242 -1.693923 0
M  V30 9 C 1.837071 0.620395 -0.675506 0
M  V30 10 O 2.426915 1.487793 -1.359242 0
M  V30 11 C 0.657996 0.829638 0.004644 0
M  V30 12 C -0.086181 -0.032094 0.785275 0
M  V30 13 N 0.409880 -1.274642 0.908847 0
M  V30 14 C -1.284309 0.647908 1.295469 0
M  V30 15 C -1.500025 1.712785 0.208959 0
M  V30 16 C -0.068719 2.156776 0.010868 0
M  V30 17 H -1.439589 -3.098421 3.098235 0
M  V30 18 H -1.359052 -1.355286 3.090338 0
M  V30 19 H -2.200729 -2.318145 1.729631 0
M  V30 20 H 0.339449 -4.488356 2.094990 0
M  V30 21 H -1.120796 1.216123 2.235771 0
M  V30 22 H -2.186650 0.032456 1.413191 0
M  V30 23 H -1.873118 1.120033 -0.669074 0
M  V30 24 H -2.176835 2.505411 0.522031 0
M  V30 25 H 0.073223 2.702736 -0.924933 0
M  V30 26 H 0.201788 2.732528 0.912286 0
M  V30 END ATOM
M  V30 BEGIN BOND
M  V30 1 1 1 2
M  V30 2 2 2 3
M  V30 3 1 3 4
M  V30 4 1 4 5
M  V30 5 2 5 6
M  V30 6 1 6 7
M  V30 7 3 7 8
M  V30 8 1 6 9
M  V30 9 2 9 10
M  V30 10 1 9 11
M  V30 11 2 11 12
M  V30 12 1 12 13
M  V30 13 1 12 14
M  V30 14 1 14 15
M  V30 15 1 15 16
M  V30 16 1 13 2
M  V30 17 1 13 5
M  V30 18 1 16 11
M  V30 19 1 1 17
M  V30 20 1 1 18
M  V30 21 1 1 19
M  V30 22 1 3 20
M  V30 23 1 14 21
M  V30 24 1 14 22
M  V30 25 1 15 23
M  V30 26 1 15 24
M  V30 27 1 16 25
M  V30 28 1 16 26
M  V30 END BOND
M  V30 END CTAB
M  END
>  <Dataset>  (282) 
ChEMBL_Kinases

>  <Ligand_Instance>  (282) 
nan

>  <PDB_ID>  (282) 
nan

>  <Standardized_SMILES>  (282) 
Cc1csc2c(C#N)c(=O)c3c(n12)CCC3

>  <Name>  (282) 
nan

>  <Pocket>  (282) 
nan

>  <ATP_Site>  (282) 
nan

>  <Peripheral>  (282) 
nan

>  <Num_H_Atoms_ProtBoundConf>  (282) 
nan

>  <Num_Resolved_Atoms>  (282) 
nan

>  <Num_Not_Resolved_Atoms>  (282) 
nan

$$$$
CHEMBL1482166
     RDKit          3D

  0  0  0  0  0  0  0  0  0  0999 V3000
M  V30 BEGIN CTAB
M  V30 COUNTS 54 56 0 0 0
M  V30 BEGIN ATOM
M  V30 1 C -1.960837 -6.258420 -0.280261 0
M  V30 2 O -1.281022 -5.490590 0.733676 0
M  V30 3 C -0.829179 -4.210316 0.419716 0
M  V30 4 O -1.028972 -3.785614 -0.748907 0
M  V30 5 C -0.138734 -3.184008 1.174995 0
M  V30 6 C 1.319033 -3.002856 0.988092 0
M  V30 7 N 1.786406 -2.712816 -0.319547 0
M  V30 8 C 1.848578 -1.341009 -0.747040 0
M  V30 9 O 2.422250 -1.217220 -1.875498 0
M  V30 10 C 1.323354 -0.209401 -0.001319 0
M  V30 11 C 1.690358 0.516603 1.129125 0
M  V30 12 C 0.911941 1.565515 1.585822 0
M  V30 13 C -0.251933 1.923015 0.935986 0
M  V30 14 N -0.935607 2.954125 1.607258 0
M  V30 15 C -0.414544 4.128429 2.316053 0
M  V30 16 C -1.531419 5.071675 2.710428 0
M  V30 17 C -2.521107 4.411997 3.631707 0
M  V30 18 C -2.669580 2.980495 3.223047 0
M  V30 19 C -2.353232 2.883852 1.716755 0
M  V30 20 C -0.643791 1.237830 -0.178468 0
M  V30 21 N -1.816993 1.633476 -0.867318 0 CHG=1 VAL=4
M  V30 22 O -2.454798 2.636590 -1.144616 0
M  V30 23 O -2.751053 0.941771 -1.596589 0 CHG=-1 VAL=1
M  V30 24 C 0.132622 0.182284 -0.644254 0
M  V30 25 C 2.241066 -3.674307 -1.265900 0
M  V30 26 C 2.340256 -5.022697 -1.022163 0
M  V30 27 C 2.779894 -5.968103 -1.942149 0
M  V30 28 C 3.143616 -5.509601 -3.197658 0
M  V30 29 C 3.046910 -4.157427 -3.451982 0
M  V30 30 N 2.612688 -3.320284 -2.505037 0
M  V30 31 H -3.052367 -5.958335 -0.314534 0
M  V30 32 H -1.550988 -5.987254 -1.275393 0
M  V30 33 H -1.813297 -7.338822 -0.139684 0
M  V30 34 H -0.288716 -3.458714 2.274429 0
M  V30 35 H -0.630560 -2.157347 1.142677 0
M  V30 36 H 1.685143 -2.189466 1.689894 0
M  V30 37 H 1.904347 -3.900373 1.356103 0
M  V30 38 H 2.625280 0.076739 1.485425 0
M  V30 39 H 1.342407 2.015338 2.466707 0
M  V30 40 H 0.192189 4.697806 1.549728 0
M  V30 41 H 0.164516 3.842410 3.194584 0
M  V30 42 H -1.065142 5.910375 3.263502 0
M  V30 43 H -1.971662 5.481557 1.806789 0
M  V30 44 H -3.491082 4.926252 3.488173 0
M  V30 45 H -2.284542 4.551606 4.713785 0
M  V30 46 H -3.728039 2.679548 3.431281 0
M  V30 47 H -1.923518 2.379544 3.740784 0
M  V30 48 H -2.819176 3.764239 1.272942 0
M  V30 49 H -2.794977 1.905838 1.434136 0
M  V30 50 H -0.312648 -0.270374 -1.544033 0
M  V30 51 H 2.048885 -5.388287 -0.024904 0
M  V30 52 H 2.808293 -7.019524 -1.611835 0
M  V30 53 H 3.488652 -6.247489 -3.915386 0
M  V30 54 H 3.341789 -3.841709 -4.460427 0
M  V30 END ATOM
M  V30 BEGIN BOND
M  V30 1 1 1 2
M  V30 2 1 2 3
M  V30 3 2 3 4
M  V30 4 1 3 5
M  V30 5 1 5 6
M  V30 6 1 6 7
M  V30 7 1 7 8
M  V30 8 2 8 9
M  V30 9 1 8 10
M  V30 10 2 10 11
M  V30 11 1 11 12
M  V30 12 2 12 13
M  V30 13 1 13 14
M  V30 14 1 14 15
M  V30 15 1 15 16
M  V30 16 1 16 17
M  V30 17 1 17 18
M  V30 18 1 18 19
M  V30 19 1 13 20
M  V30 20 1 20 21
M  V30 21 2 21 22
M  V30 22 1 21 23
M  V30 23 2 20 24
M  V30 24 1 7 25
M  V30 25 2 25 26
M  V30 26 1 26 27
M  V30 27 2 27 28
M  V30 28 1 28 29
M  V30 29 2 29 30
M  V30 30 1 24 10
M  V30 31 1 30 25
M  V30 32 1 19 14
M  V30 33 1 1 31
M  V30 34 1 1 32
M  V30 35 1 1 33
M  V30 36 1 5 34
M  V30 37 1 5 35
M  V30 38 1 6 36
M  V30 39 1 6 37
M  V30 40 1 11 38
M  V30 41 1 12 39
M  V30 42 1 15 40
M  V30 43 1 15 41
M  V30 44 1 16 42
M  V30 45 1 16 43
M  V30 46 1 17 44
M  V30 47 1 17 45
M  V30 48 1 18 46
M  V30 49 1 18 47
M  V30 50 1 19 48
M  V30 51 1 19 49
M  V30 52 1 24 50
M  V30 53 1 26 51
M  V30 54 1 27 52
M  V30 55 1 28 53
M  V30 56 1 29 54
M  V30 END BOND
M  V30 END CTAB
M  END
>  <Dataset>  (283) 
ChEMBL_Kinases

>  <Ligand_Instance>  (283) 
nan

>  <PDB_ID>  (283) 
nan

>  <Standardized_SMILES>  (283) 
COC(=O)CCN(C(=O)c1ccc(N2CCCCC2)c([N+](=O)[O-])c1)c1ccccn1

>  <Name>  (283) 
nan

>  <Pocket>  (283) 
nan

>  <ATP_Site>  (283) 
nan

>  <Peripheral>  (283) 
nan

>  <Num_H_Atoms_ProtBoundConf>  (283) 
nan

>  <Num_Resolved_Atoms>  (283) 
nan

>  <Num_Not_Resolved_Atoms>  (283) 
nan

$$$$
CHEMBL1482706
     RDKit          3D

  0  0  0  0  0  0  0  0  0  0999 V3000
M  V30 BEGIN CTAB
M  V30 COUNTS 56 58 0 0 0
M  V30 BEGIN ATOM
M  V30 1 C 4.290230 -5.712070 4.067173 0
M  V30 2 C 4.409018 -5.992326 2.587278 0
M  V30 3 O 3.597299 -5.051997 1.909045 0
M  V30 4 C 3.782338 -3.691176 1.985556 0
M  V30 5 O 4.714060 -3.222424 2.686569 0
M  V30 6 C 2.889644 -2.825062 1.248219 0
M  V30 7 S 3.080439 -1.063748 1.312284 0
M  V30 8 C 1.714441 -0.659068 0.226308 0
M  V30 9 N 1.295641 0.645770 -0.162078 0
M  V30 10 C 1.685949 1.439577 -1.245789 0
M  V30 11 O 2.546985 0.941025 -2.014384 0
M  V30 12 C 1.107123 2.790248 -1.462944 0
M  V30 13 O 0.177819 3.045574 -0.428713 0
M  V30 14 C -0.564281 4.232478 -0.339497 0
M  V30 15 O -0.204592 4.918104 -1.328659 0
M  V30 16 C -1.511221 4.416979 0.770329 0
M  V30 17 N -2.830542 3.851778 0.506928 0
M  V30 18 C -3.968683 4.304134 -0.042140 0
M  V30 19 N -4.884093 3.322286 -0.024823 0
M  V30 20 C -4.346064 2.210000 0.541173 0
M  V30 21 C -4.883798 0.952453 0.783976 0
M  V30 22 C -4.099562 -0.009185 1.384549 0
M  V30 23 C -2.796340 0.291790 1.734220 0
M  V30 24 C -2.318892 1.556556 1.468056 0
M  V30 25 C -3.057205 2.570826 0.865239 0
M  V30 26 C 1.217232 -1.928532 -0.100647 0
M  V30 27 C 0.073445 -1.973498 -0.992278 0
M  V30 28 O -0.461995 -0.943014 -1.460363 0
M  V30 29 O -0.670334 -2.986945 -1.524745 0
M  V30 30 C -1.753297 -2.728071 -2.383897 0
M  V30 31 C -2.840209 -1.903463 -1.784704 0
M  V30 32 C 1.842737 -3.016071 0.440144 0
M  V30 33 C 1.451745 -4.427468 0.201750 0
M  V30 34 H 3.634424 -6.463267 4.553576 0
M  V30 35 H 3.819655 -4.723525 4.227966 0
M  V30 36 H 5.278204 -5.704138 4.570058 0
M  V30 37 H 5.464398 -5.847877 2.255736 0
M  V30 38 H 4.065046 -7.031488 2.418400 0
M  V30 39 H 0.598563 0.962799 0.525501 0
M  V30 40 H 0.628768 2.863490 -2.470520 0
M  V30 41 H 1.939723 3.536623 -1.350135 0
M  V30 42 H -1.689848 5.511596 0.872285 0
M  V30 43 H -1.092470 4.071592 1.730588 0
M  V30 44 H -4.013287 5.313833 -0.401876 0
M  V30 45 H -5.876302 0.673587 0.534723 0
M  V30 46 H -4.411218 -1.020227 1.621708 0
M  V30 47 H -2.134563 -0.438384 2.213097 0
M  V30 48 H -1.296712 1.763508 1.753064 0
M  V30 49 H -2.175091 -3.714569 -2.669747 0
M  V30 50 H -1.370492 -2.273747 -3.323173 0
M  V30 51 H -2.985092 -2.129674 -0.718331 0
M  V30 52 H -3.801295 -2.196749 -2.279857 0
M  V30 53 H -2.737360 -0.818110 -2.005570 0
M  V30 54 H 2.315172 -5.030368 -0.176349 0
M  V30 55 H 0.553732 -4.575514 -0.389114 0
M  V30 56 H 1.224511 -4.890716 1.207681 0
M  V30 END ATOM
M  V30 BEGIN BOND
M  V30 1 1 1 2
M  V30 2 1 2 3
M  V30 3 1 3 4
M  V30 4 2 4 5
M  V30 5 1 4 6
M  V30 6 1 6 7
M  V30 7 1 7 8
M  V30 8 1 8 9
M  V30 9 1 9 10
M  V30 10 2 10 11
M  V30 11 1 10 12
M  V30 12 1 12 13
M  V30 13 1 13 14
M  V30 14 2 14 15
M  V30 15 1 14 16
M  V30 16 1 16 17
M  V30 17 1 17 18
M  V30 18 2 18 19
M  V30 19 1 19 20
M  V30 20 2 20 21
M  V30 21 1 21 22
M  V30 22 2 22 23
M  V30 23 1 23 24
M  V30 24 2 24 25
M  V30 25 2 8 26
M  V30 26 1 26 27
M  V30 27 2 27 28
M  V30 28 1 27 29
M  V30 29 1 29 30
M  V30 30 1 30 31
M  V30 31 1 26 32
M  V30 32 1 32 33
M  V30 33 2 32 6
M  V30 34 1 25 17
M  V30 35 1 25 20
M  V30 36 1 1 34
M  V30 37 1 1 35
M  V30 38 1 1 36
M  V30 39 1 2 37
M  V30 40 1 2 38
M  V30 41 1 9 39
M  V30 42 1 12 40
M  V30 43 1 12 41
M  V30 44 1 16 42
M  V30 45 1 16 43
M  V30 46 1 18 44
M  V30 47 1 21 45
M  V30 48 1 22 46
M  V30 49 1 23 47
M  V30 50 1 24 48
M  V30 51 1 30 49
M  V30 52 1 30 50
M  V30 53 1 31 51
M  V30 54 1 31 52
M  V30 55 1 31 53
M  V30 56 1 33 54
M  V30 57 1 33 55
M  V30 58 1 33 56
M  V30 END BOND
M  V30 END CTAB
M  END
>  <Dataset>  (284) 
ChEMBL_Kinases

>  <Ligand_Instance>  (284) 
nan

>  <PDB_ID>  (284) 
nan

>  <Standardized_SMILES>  (284) 
CCOC(=O)c1sc(NC(=O)COC(=O)Cn2cnc3ccccc32)c(C(=O)OCC)c1C

>  <Name>  (284) 
nan

>  <Pocket>  (284) 
nan

>  <ATP_Site>  (284) 
nan

>  <Peripheral>  (284) 
nan

>  <Num_H_Atoms_ProtBoundConf>  (284) 
nan

>  <Num_Resolved_Atoms>  (284) 
nan

>  <Num_Not_Resolved_Atoms>  (284) 
nan

$$$$
CHEMBL1482301
     RDKit          3D

  0  0  0  0  0  0  0  0  0  0999 V3000
M  V30 BEGIN CTAB
M  V30 COUNTS 43 45 0 0 0
M  V30 BEGIN ATOM
M  V30 1 O 1.326273 -1.747276 3.011364 0
M  V30 2 C 1.019723 -1.334485 1.860965 0
M  V30 3 C 2.036039 -0.458089 1.196540 0
M  V30 4 N 1.648060 -0.010249 -0.110549 0
M  V30 5 C 2.009606 -0.821063 -1.250836 0
M  V30 6 O 2.294793 -2.028013 -0.932027 0
M  V30 7 C 2.124722 -0.574933 -2.696725 0
M  V30 8 C 2.355411 0.844705 -3.081866 0
M  V30 9 S 0.920374 1.844053 -2.937411 0
M  V30 10 O -0.293598 1.194482 -3.541248 0
M  V30 11 O 1.198721 3.169277 -3.590366 0
M  V30 12 C 0.580570 2.033144 -1.233018 0
M  V30 13 C -0.135063 3.201326 -1.086942 0
M  V30 14 C -0.541825 3.600720 0.170856 0
M  V30 15 C -0.220566 2.815354 1.263809 0
M  V30 16 C 0.499341 1.657359 1.040747 0
M  V30 17 C 0.930357 1.209529 -0.182455 0
M  V30 18 N -0.176196 -1.608674 1.132529 0
M  V30 19 C -1.309606 -2.425325 1.552951 0
M  V30 20 C -1.101070 -2.991101 2.904618 0
M  V30 21 C -1.541382 -2.242194 3.976581 0
M  V30 22 C -1.433894 -2.605452 5.304347 0
M  V30 23 C -0.834313 -3.820903 5.568090 0
M  V30 24 C -0.377525 -4.605280 4.521609 0
M  V30 25 C -0.502077 -4.209003 3.200234 0
M  V30 26 H 2.872966 -1.204943 1.007056 0
M  V30 27 H 2.542168 0.248833 1.843669 0
M  V30 28 H 2.988467 -1.161943 -3.074445 0
M  V30 29 H 1.216034 -0.969157 -3.198060 0
M  V30 30 H 3.146746 1.254472 -2.430300 0
M  V30 31 H 2.706302 0.871814 -4.126661 0
M  V30 32 H -0.411139 3.849032 -1.905485 0
M  V30 33 H -1.103093 4.507977 0.325158 0
M  V30 34 H -0.531744 3.116853 2.243928 0
M  V30 35 H 0.720012 1.086828 1.926360 0
M  V30 36 H -0.309895 -1.203039 0.180699 0
M  V30 37 H -1.441055 -3.298707 0.867556 0
M  V30 38 H -2.261889 -1.859183 1.559735 0
M  V30 39 H -2.020059 -1.276997 3.811483 0
M  V30 40 H -1.800524 -1.970929 6.100599 0
M  V30 41 H -0.738941 -4.126787 6.601469 0
M  V30 42 H 0.085390 -5.545633 4.742350 0
M  V30 43 H -0.161654 -4.785779 2.351884 0
M  V30 END ATOM
M  V30 BEGIN BOND
M  V30 1 2 1 2
M  V30 2 1 2 3
M  V30 3 1 3 4
M  V30 4 1 4 5
M  V30 5 2 5 6
M  V30 6 1 5 7
M  V30 7 1 7 8
M  V30 8 1 8 9
M  V30 9 2 9 10
M  V30 10 2 9 11
M  V30 11 1 9 12
M  V30 12 2 12 13
M  V30 13 1 13 14
M  V30 14 2 14 15
M  V30 15 1 15 16
M  V30 16 2 16 17
M  V30 17 1 2 18
M  V30 18 1 18 19
M  V30 19 1 19 20
M  V30 20 2 20 21
M  V30 21 1 21 22
M  V30 22 2 22 23
M  V30 23 1 23 24
M  V30 24 2 24 25
M  V30 25 1 17 4
M  V30 26 1 25 20
M  V30 27 1 17 12
M  V30 28 1 3 26
M  V30 29 1 3 27
M  V30 30 1 7 28
M  V30 31 1 7 29
M  V30 32 1 8 30
M  V30 33 1 8 31
M  V30 34 1 13 32
M  V30 35 1 14 33
M  V30 36 1 15 34
M  V30 37 1 16 35
M  V30 38 1 18 36
M  V30 39 1 19 37
M  V30 40 1 19 38
M  V30 41 1 21 39
M  V30 42 1 22 40
M  V30 43 1 23 41
M  V30 44 1 24 42
M  V30 45 1 25 43
M  V30 END BOND
M  V30 END CTAB
M  END
>  <Dataset>  (285) 
ChEMBL_Kinases

>  <Ligand_Instance>  (285) 
nan

>  <PDB_ID>  (285) 
nan

>  <Standardized_SMILES>  (285) 
O=C(CN1C(=O)CCS(=O)(=O)c2ccccc21)NCc1ccccc1

>  <Name>  (285) 
nan

>  <Pocket>  (285) 
nan

>  <ATP_Site>  (285) 
nan

>  <Peripheral>  (285) 
nan

>  <Num_H_Atoms_ProtBoundConf>  (285) 
nan

>  <Num_Resolved_Atoms>  (285) 
nan

>  <Num_Not_Resolved_Atoms>  (285) 
nan

$$$$
CHEMBL1482308
     RDKit          3D

  0  0  0  0  0  0  0  0  0  0999 V3000
M  V30 BEGIN CTAB
M  V30 COUNTS 44 47 0 0 0
M  V30 BEGIN ATOM
M  V30 1 O 1.463403 -0.843712 -0.328614 0
M  V30 2 C 2.281651 -1.457609 0.372796 0
M  V30 3 N 3.470081 -1.939982 -0.209362 0
M  V30 4 C 3.943088 -1.850719 -1.541246 0
M  V30 5 C 5.137558 -2.401024 -1.869941 0
M  V30 6 C 5.652223 -2.348996 -3.142682 0
M  V30 7 C 4.973729 -1.726329 -4.168999 0
M  V30 8 N 5.522947 -1.681880 -5.483872 0 CHG=1 VAL=4
M  V30 9 O 4.868576 -1.106409 -6.375679 0
M  V30 10 O 6.746323 -2.261875 -5.756458 0 CHG=-1 VAL=1
M  V30 11 C 3.759551 -1.157503 -3.871822 0
M  V30 12 C 3.288387 -1.237037 -2.581845 0
M  V30 13 N 1.930766 -1.620414 1.738650 0
M  V30 14 C 0.653910 -1.025628 2.064872 0
M  V30 15 C 0.664808 0.293881 2.477669 0
M  V30 16 C -0.579681 0.830376 2.782069 0
M  V30 17 C -1.733621 0.049645 2.663293 0
M  V30 18 N -3.002843 0.647640 2.989707 0
M  V30 19 C -3.984353 0.271132 3.994115 0
M  V30 20 C -4.662330 1.588647 4.390874 0
M  V30 21 O -3.743608 2.623533 4.451317 0
M  V30 22 C -3.430032 2.998721 3.146888 0
M  V30 23 C -3.384647 1.813178 2.204433 0
M  V30 24 C -1.683336 -1.265088 2.245304 0
M  V30 25 N -2.581907 -2.229860 2.040866 0
M  V30 26 O -1.966501 -3.308915 1.635030 0
M  V30 27 N -0.671024 -3.090085 1.562035 0
M  V30 28 C -0.457940 -1.829180 1.934335 0
M  V30 29 H 4.065276 -2.437292 0.499392 0
M  V30 30 H 5.718405 -2.907640 -1.094746 0
M  V30 31 H 6.610097 -2.813207 -3.316613 0
M  V30 32 H 3.210418 -0.663889 -4.662031 0
M  V30 33 H 2.332092 -0.769226 -2.425246 0
M  V30 34 H 2.608999 -2.141044 2.366119 0
M  V30 35 H 1.598818 0.818493 2.540131 0
M  V30 36 H -0.586719 1.864035 3.107138 0
M  V30 37 H -3.519907 -0.167055 4.896964 0
M  V30 38 H -4.717708 -0.423609 3.533476 0
M  V30 39 H -5.142851 1.445315 5.379760 0
M  V30 40 H -5.401034 1.842758 3.604398 0
M  V30 41 H -4.234481 3.721951 2.829544 0
M  V30 42 H -2.475708 3.586528 3.088141 0
M  V30 43 H -4.427761 1.639868 1.821067 0
M  V30 44 H -2.715229 1.998687 1.346362 0
M  V30 END ATOM
M  V30 BEGIN BOND
M  V30 1 2 1 2
M  V30 2 1 2 3
M  V30 3 1 3 4
M  V30 4 2 4 5
M  V30 5 1 5 6
M  V30 6 2 6 7
M  V30 7 1 7 8
M  V30 8 2 8 9
M  V30 9 1 8 10
M  V30 10 1 7 11
M  V30 11 2 11 12
M  V30 12 1 2 13
M  V30 13 1 13 14
M  V30 14 2 14 15
M  V30 15 1 15 16
M  V30 16 2 16 17
M  V30 17 1 17 18
M  V30 18 1 18 19
M  V30 19 1 19 20
M  V30 20 1 20 21
M  V30 21 1 21 22
M  V30 22 1 22 23
M  V30 23 1 17 24
M  V30 24 2 24 25
M  V30 25 1 25 26
M  V30 26 1 26 27
M  V30 27 2 27 28
M  V30 28 1 12 4
M  V30 29 1 28 14
M  V30 30 1 23 18
M  V30 31 1 28 24
M  V30 32 1 3 29
M  V30 33 1 5 30
M  V30 34 1 6 31
M  V30 35 1 11 32
M  V30 36 1 12 33
M  V30 37 1 13 34
M  V30 38 1 15 35
M  V30 39 1 16 36
M  V30 40 1 19 37
M  V30 41 1 19 38
M  V30 42 1 20 39
M  V30 43 1 20 40
M  V30 44 1 22 41
M  V30 45 1 22 42
M  V30 46 1 23 43
M  V30 47 1 23 44
M  V30 END BOND
M  V30 END CTAB
M  END
>  <Dataset>  (286) 
ChEMBL_Kinases

>  <Ligand_Instance>  (286) 
nan

>  <PDB_ID>  (286) 
nan

>  <Standardized_SMILES>  (286) 
O=C(Nc1ccc([N+](=O)[O-])cc1)Nc1ccc(N2CCOCC2)c2nonc12

>  <Name>  (286) 
nan

>  <Pocket>  (286) 
nan

>  <ATP_Site>  (286) 
nan

>  <Peripheral>  (286) 
nan

>  <Num_H_Atoms_ProtBoundConf>  (286) 
nan

>  <Num_Resolved_Atoms>  (286) 
nan

>  <Num_Not_Resolved_Atoms>  (286) 
nan

$$$$
CHEMBL1482323
     RDKit          3D

  0  0  0  0  0  0  0  0  0  0999 V3000
M  V30 BEGIN CTAB
M  V30 COUNTS 42 43 0 0 0
M  V30 BEGIN ATOM
M  V30 1 N -2.664626 -5.099749 0.176960 0
M  V30 2 C -1.560092 -4.271572 -0.259472 0
M  V30 3 C -2.055821 -2.800932 -0.363584 0
M  V30 4 C -0.867784 -2.022181 -0.814793 0
M  V30 5 C -1.007037 -0.582880 -1.060346 0
M  V30 6 C -1.416586 0.342986 0.001306 0 CFG=1
M  V30 7 C -2.739106 0.183606 0.638049 0
M  V30 8 N -2.488710 -0.156269 2.012005 0
M  V30 9 C -1.240557 -0.096491 2.321762 0
M  V30 10 S -0.427032 -0.417855 3.867108 0
M  V30 11 N -0.508649 0.296358 1.169303 0
M  V30 12 C 0.844884 0.640627 0.898551 0
M  V30 13 C 1.789178 0.599401 2.066306 0
M  V30 14 C 3.187408 0.983401 1.653507 0
M  V30 15 C 3.589961 2.306898 1.700473 0
M  V30 16 C 4.891674 2.612355 1.309067 0
M  V30 17 C 5.773174 1.645360 0.883549 0
M  V30 18 C 5.271836 0.347022 0.872897 0
M  V30 19 F 6.143517 -0.616704 0.451100 0
M  V30 20 C 4.010801 -0.046709 1.238700 0
M  V30 21 H -2.442094 -5.523955 1.106322 0
M  V30 22 H -3.541417 -4.536076 0.307168 0
M  V30 23 H -0.728105 -4.359021 0.445637 0
M  V30 24 H -1.191834 -4.578517 -1.260898 0
M  V30 25 H -2.390842 -2.524297 0.668020 0
M  V30 26 H -2.914181 -2.794422 -1.030590 0
M  V30 27 H -0.475931 -2.537748 -1.753059 0
M  V30 28 H -0.052186 -2.240938 -0.076044 0
M  V30 29 H -1.722270 -0.454654 -1.942761 0
M  V30 30 H -0.023849 -0.222402 -1.515989 0
M  V30 31 H -1.363671 1.388596 -0.428689 0
M  V30 32 H -3.300341 1.186338 0.618762 0
M  V30 33 H -3.371223 -0.525365 0.079793 0
M  V30 34 H -1.236986 -0.085859 4.969101 0
M  V30 35 H 1.305772 -0.003976 0.094762 0
M  V30 36 H 0.868092 1.657265 0.451270 0
M  V30 37 H 1.783153 -0.358061 2.601619 0
M  V30 38 H 1.482917 1.376916 2.798277 0
M  V30 39 H 2.919787 3.082377 2.029485 0
M  V30 40 H 5.202142 3.640210 1.346267 0
M  V30 41 H 6.787956 1.846458 0.573351 0
M  V30 42 H 3.743568 -1.072087 1.187461 0
M  V30 END ATOM
M  V30 BEGIN BOND
M  V30 1 1 1 2
M  V30 2 1 2 3
M  V30 3 1 3 4
M  V30 4 1 4 5
M  V30 5 1 5 6
M  V30 6 1 6 7
M  V30 7 1 7 8
M  V30 8 2 8 9
M  V30 9 1 9 10
M  V30 10 1 9 11
M  V30 11 1 11 12
M  V30 12 1 12 13
M  V30 13 1 13 14
M  V30 14 2 14 15
M  V30 15 1 15 16
M  V30 16 2 16 17
M  V30 17 1 17 18
M  V30 18 1 18 19
M  V30 19 2 18 20
M  V30 20 1 11 6
M  V30 21 1 20 14
M  V30 22 1 1 21
M  V30 23 1 1 22
M  V30 24 1 2 23
M  V30 25 1 2 24
M  V30 26 1 3 25
M  V30 27 1 3 26
M  V30 28 1 4 27
M  V30 29 1 4 28
M  V30 30 1 5 29
M  V30 31 1 5 30
M  V30 32 1 6 31 CFG=3
M  V30 33 1 7 32
M  V30 34 1 7 33
M  V30 35 1 10 34
M  V30 36 1 12 35
M  V30 37 1 12 36
M  V30 38 1 13 37
M  V30 39 1 13 38
M  V30 40 1 15 39
M  V30 41 1 16 40
M  V30 42 1 17 41
M  V30 43 1 20 42
M  V30 END BOND
M  V30 END CTAB
M  END
>  <Dataset>  (287) 
ChEMBL_Kinases

>  <Ligand_Instance>  (287) 
nan

>  <PDB_ID>  (287) 
nan

>  <Standardized_SMILES>  (287) 
NCCCC[C@H]1CN=C(S)N1CCc1cccc(F)c1

>  <Name>  (287) 
nan

>  <Pocket>  (287) 
nan

>  <ATP_Site>  (287) 
nan

>  <Peripheral>  (287) 
nan

>  <Num_H_Atoms_ProtBoundConf>  (287) 
nan

>  <Num_Resolved_Atoms>  (287) 
nan

>  <Num_Not_Resolved_Atoms>  (287) 
nan

$$$$
CHEMBL1482332
     RDKit          3D

  0  0  0  0  0  0  0  0  0  0999 V3000
M  V30 BEGIN CTAB
M  V30 COUNTS 43 46 0 0 0
M  V30 BEGIN ATOM
M  V30 1 C 3.246713 -0.267964 6.485645 0
M  V30 2 C 2.840992 -1.125640 5.332336 0
M  V30 3 O 2.662626 -0.451607 4.124050 0
M  V30 4 C 3.621591 0.278966 3.445253 0
M  V30 5 N 4.840971 0.346927 4.000827 0
M  V30 6 C 5.841039 1.031233 3.420763 0
M  V30 7 C 5.514544 1.644869 2.230913 0
M  V30 8 C 4.264174 1.576780 1.658582 0
M  V30 9 C 3.249111 0.870508 2.266635 0
M  V30 10 C 1.955819 0.836172 1.615144 0
M  V30 11 O 1.794519 1.447751 0.519167 0
M  V30 12 N 0.750794 0.203286 1.998185 0
M  V30 13 C -0.406361 0.299922 1.205437 0
M  V30 14 C -1.278790 1.350681 1.447231 0
M  V30 15 C -2.436766 1.519284 0.715626 0
M  V30 16 C -2.789701 0.652728 -0.295382 0
M  V30 17 C -1.895600 -0.368695 -0.495588 0
M  V30 18 C -2.284872 -1.313018 -1.600870 0
M  V30 19 N -3.143628 -1.422681 -2.344934 0
M  V30 20 C -3.353066 -2.327841 -3.280504 0
M  V30 21 C -4.388693 -2.464582 -4.181675 0
M  V30 22 C -4.388099 -3.508795 -5.077674 0
M  V30 23 C -3.410394 -4.476250 -5.168276 0
M  V30 24 N -2.401255 -4.333358 -4.281865 0
M  V30 25 C -2.399250 -3.305632 -3.398059 0
M  V30 26 S -1.212030 -2.808387 -2.072670 0
M  V30 27 C -0.723678 -0.594689 0.197303 0
M  V30 28 H 4.353419 -0.196788 6.500182 0
M  V30 29 H 2.791439 0.754223 6.430808 0
M  V30 30 H 2.879537 -0.771035 7.426404 0
M  V30 31 H 1.935858 -1.729063 5.527536 0
M  V30 32 H 3.665849 -1.870038 5.154908 0
M  V30 33 H 6.859026 1.164745 3.758079 0
M  V30 34 H 6.270202 2.225820 1.687344 0
M  V30 35 H 4.083631 2.094722 0.706315 0
M  V30 36 H 0.767468 -0.330411 2.886660 0
M  V30 37 H -1.041897 2.065920 2.240529 0
M  V30 38 H -3.136726 2.346899 0.896384 0
M  V30 39 H -3.676796 0.740305 -0.891545 0
M  V30 40 H -5.249518 -1.795615 -4.258868 0
M  V30 41 H -5.205235 -3.635463 -5.804847 0
M  V30 42 H -3.322746 -5.319015 -5.825444 0
M  V30 43 H -0.069256 -1.414553 -0.011257 0
M  V30 END ATOM
M  V30 BEGIN BOND
M  V30 1 1 1 2
M  V30 2 1 2 3
M  V30 3 1 3 4
M  V30 4 2 4 5
M  V30 5 1 5 6
M  V30 6 2 6 7
M  V30 7 1 7 8
M  V30 8 2 8 9
M  V30 9 1 9 10
M  V30 10 2 10 11
M  V30 11 1 10 12
M  V30 12 1 12 13
M  V30 13 2 13 14
M  V30 14 1 14 15
M  V30 15 2 15 16
M  V30 16 1 16 17
M  V30 17 1 17 18
M  V30 18 2 18 19
M  V30 19 1 19 20
M  V30 20 2 20 21
M  V30 21 1 21 22
M  V30 22 2 22 23
M  V30 23 1 23 24
M  V30 24 2 24 25
M  V30 25 1 25 26
M  V30 26 2 17 27
M  V30 27 1 9 4
M  V30 28 1 27 13
M  V30 29 1 26 18
M  V30 30 1 25 20
M  V30 31 1 1 28
M  V30 32 1 1 29
M  V30 33 1 1 30
M  V30 34 1 2 31
M  V30 35 1 2 32
M  V30 36 1 6 33
M  V30 37 1 7 34
M  V30 38 1 8 35
M  V30 39 1 12 36
M  V30 40 1 14 37
M  V30 41 1 15 38
M  V30 42 1 16 39
M  V30 43 1 21 40
M  V30 44 1 22 41
M  V30 45 1 23 42
M  V30 46 1 27 43
M  V30 END BOND
M  V30 END CTAB
M  END
>  <Dataset>  (288) 
ChEMBL_Kinases

>  <Ligand_Instance>  (288) 
nan

>  <PDB_ID>  (288) 
nan

>  <Standardized_SMILES>  (288) 
CCOc1ncccc1C(=O)Nc1cccc(-c2nc3cccnc3s2)c1

>  <Name>  (288) 
nan

>  <Pocket>  (288) 
nan

>  <ATP_Site>  (288) 
nan

>  <Peripheral>  (288) 
nan

>  <Num_H_Atoms_ProtBoundConf>  (288) 
nan

>  <Num_Resolved_Atoms>  (288) 
nan

>  <Num_Not_Resolved_Atoms>  (288) 
nan

$$$$
CHEMBL1482341
     RDKit          3D

  0  0  0  0  0  0  0  0  0  0999 V3000
M  V30 BEGIN CTAB
M  V30 COUNTS 30 30 0 0 0
M  V30 BEGIN ATOM
M  V30 1 C -3.158993 -2.949221 2.480313 0
M  V30 2 C -2.143777 -2.416168 3.451686 0
M  V30 3 C -0.874757 -3.250866 3.456127 0
M  V30 4 O -0.230189 -3.303932 2.219519 0
M  V30 5 C 0.258700 -2.225406 1.523898 0
M  V30 6 O 0.129638 -1.077050 2.017990 0
M  V30 7 N 0.916819 -2.264127 0.264572 0
M  V30 8 C 1.293191 -0.939425 -0.163841 0
M  V30 9 C 0.282526 -0.345504 -0.914705 0
M  V30 10 C 0.462599 0.940235 -1.418298 0
M  V30 11 C 1.656459 1.561537 -1.137245 0
M  V30 12 C 1.842138 2.921773 -1.672340 0
M  V30 13 N 3.027693 3.672679 -1.454577 0
M  V30 14 O 0.946928 3.458395 -2.342312 0
M  V30 15 C 2.674460 0.982884 -0.389897 0
M  V30 16 C 2.479193 -0.285899 0.098730 0
M  V30 17 H -4.167086 -2.852953 2.925011 0
M  V30 18 H -3.159862 -2.371507 1.514911 0
M  V30 19 H -2.921113 -4.000070 2.266347 0
M  V30 20 H -1.974975 -1.354432 3.221707 0
M  V30 21 H -2.523897 -2.456243 4.508495 0
M  V30 22 H -0.226134 -2.997360 4.312172 0
M  V30 23 H -1.235081 -4.302804 3.651150 0
M  V30 24 H 1.032124 -3.229309 -0.163750 0
M  V30 25 H -0.669583 -0.796380 -1.159276 0
M  V30 26 H -0.304360 1.421787 -2.002217 0
M  V30 27 H 3.552927 3.590077 -2.357719 0
M  V30 28 H 3.462103 4.240691 -0.669814 0
M  V30 29 H 3.595297 1.468755 -0.176159 0
M  V30 30 H 3.179886 -0.857300 0.692428 0
M  V30 END ATOM
M  V30 BEGIN BOND
M  V30 1 1 1 2
M  V30 2 1 2 3
M  V30 3 1 3 4
M  V30 4 1 4 5
M  V30 5 2 5 6
M  V30 6 1 5 7
M  V30 7 1 7 8
M  V30 8 2 8 9
M  V30 9 1 9 10
M  V30 10 2 10 11
M  V30 11 1 11 12
M  V30 12 1 12 13
M  V30 13 2 12 14
M  V30 14 1 11 15
M  V30 15 2 15 16
M  V30 16 1 16 8
M  V30 17 1 1 17
M  V30 18 1 1 18
M  V30 19 1 1 19
M  V30 20 1 2 20
M  V30 21 1 2 21
M  V30 22 1 3 22
M  V30 23 1 3 23
M  V30 24 1 7 24
M  V30 25 1 9 25
M  V30 26 1 10 26
M  V30 27 1 13 27
M  V30 28 1 13 28
M  V30 29 1 15 29
M  V30 30 1 16 30
M  V30 END BOND
M  V30 END CTAB
M  END
>  <Dataset>  (289) 
ChEMBL_Kinases

>  <Ligand_Instance>  (289) 
nan

>  <PDB_ID>  (289) 
nan

>  <Standardized_SMILES>  (289) 
CCCOC(=O)Nc1ccc(C(N)=O)cc1

>  <Name>  (289) 
nan

>  <Pocket>  (289) 
nan

>  <ATP_Site>  (289) 
nan

>  <Peripheral>  (289) 
nan

>  <Num_H_Atoms_ProtBoundConf>  (289) 
nan

>  <Num_Resolved_Atoms>  (289) 
nan

>  <Num_Not_Resolved_Atoms>  (289) 
nan

$$$$
CHEMBL1482542
     RDKit          3D

  0  0  0  0  0  0  0  0  0  0999 V3000
M  V30 BEGIN CTAB
M  V30 COUNTS 51 53 0 0 0
M  V30 BEGIN ATOM
M  V30 1 C 0.238910 -4.254872 4.502176 0
M  V30 2 C 0.317964 -3.443070 3.223884 0
M  V30 3 C 0.046524 -1.990914 3.470575 0
M  V30 4 C 1.624272 -3.654096 2.507101 0
M  V30 5 N 1.653497 -2.860978 1.304116 0
M  V30 6 C 2.199643 -1.610716 1.211760 0
M  V30 7 N 2.836076 -1.070461 2.385466 0
M  V30 8 C 2.113328 -0.977979 -0.008622 0
M  V30 9 C 2.717350 0.331076 -0.113543 0
M  V30 10 O 3.451119 0.634505 0.897743 0
M  V30 11 C 2.838454 1.504316 -0.940501 0
M  V30 12 S 1.657332 1.653954 -2.303248 0
M  V30 13 C 0.026283 1.996072 -1.685928 0
M  V30 14 C -0.146673 3.385987 -1.604972 0
M  V30 15 C -1.336500 3.963569 -1.147354 0
M  V30 16 C -2.382990 3.156006 -0.759576 0
M  V30 17 C -2.198271 1.788183 -0.844916 0
M  V30 18 C -1.041455 1.227735 -1.289817 0
M  V30 19 O -3.201993 0.926603 -0.473553 0
M  V30 20 C -4.178109 1.261042 0.512733 0
M  V30 21 C -4.307691 2.752032 0.717564 0
M  V30 22 O -3.636781 3.489199 -0.280104 0
M  V30 23 C 1.492882 -1.629350 -1.055042 0
M  V30 24 O 1.395549 -1.098974 -2.178316 0
M  V30 25 N 0.958012 -2.851760 -0.968630 0
M  V30 26 C 0.306017 -3.518153 -2.093089 0
M  V30 27 C 1.063608 -3.440790 0.253091 0
M  V30 28 O 0.547588 -4.607778 0.316386 0
M  V30 29 H -0.385253 -3.708854 5.233776 0
M  V30 30 H 1.239696 -4.530312 4.900007 0
M  V30 31 H -0.292915 -5.221434 4.308424 0
M  V30 32 H -0.530287 -3.795361 2.558923 0
M  V30 33 H 0.109548 -1.442610 2.508741 0
M  V30 34 H -0.986243 -1.917826 3.903597 0
M  V30 35 H 0.791367 -1.570606 4.164447 0
M  V30 36 H 2.482176 -3.359235 3.145401 0
M  V30 37 H 1.767904 -4.736497 2.256903 0
M  V30 38 H 2.502779 -0.188248 2.863741 0
M  V30 39 H 3.644498 -1.691677 2.648150 0
M  V30 40 H 3.856957 1.494665 -1.428468 0
M  V30 41 H 2.807217 2.485509 -0.420697 0
M  V30 42 H 0.547251 4.186936 -1.860849 0
M  V30 43 H -1.546022 5.008388 -1.056265 0
M  V30 44 H -0.811676 0.184447 -1.389803 0
M  V30 45 H -5.152777 0.877074 0.118705 0
M  V30 46 H -3.878245 0.761998 1.454969 0
M  V30 47 H -3.888236 3.001765 1.713982 0
M  V30 48 H -5.368359 3.053528 0.727777 0
M  V30 49 H 0.984210 -4.187853 -2.649509 0
M  V30 50 H -0.154892 -2.741841 -2.771594 0
M  V30 51 H -0.544938 -4.149049 -1.761084 0
M  V30 END ATOM
M  V30 BEGIN BOND
M  V30 1 1 1 2
M  V30 2 1 2 3
M  V30 3 1 2 4
M  V30 4 1 4 5
M  V30 5 1 5 6
M  V30 6 1 6 7
M  V30 7 2 6 8
M  V30 8 1 8 9
M  V30 9 2 9 10
M  V30 10 1 9 11
M  V30 11 1 11 12
M  V30 12 1 12 13
M  V30 13 2 13 14
M  V30 14 1 14 15
M  V30 15 2 15 16
M  V30 16 1 16 17
M  V30 17 2 17 18
M  V30 18 1 17 19
M  V30 19 1 19 20
M  V30 20 1 20 21
M  V30 21 1 21 22
M  V30 22 1 8 23
M  V30 23 2 23 24
M  V30 24 1 23 25
M  V30 25 1 25 26
M  V30 26 1 25 27
M  V30 27 2 27 28
M  V30 28 1 27 5
M  V30 29 1 18 13
M  V30 30 1 22 16
M  V30 31 1 1 29
M  V30 32 1 1 30
M  V30 33 1 1 31
M  V30 34 1 2 32
M  V30 35 1 3 33
M  V30 36 1 3 34
M  V30 37 1 3 35
M  V30 38 1 4 36
M  V30 39 1 4 37
M  V30 40 1 7 38
M  V30 41 1 7 39
M  V30 42 1 11 40
M  V30 43 1 11 41
M  V30 44 1 14 42
M  V30 45 1 15 43
M  V30 46 1 18 44
M  V30 47 1 20 45
M  V30 48 1 20 46
M  V30 49 1 21 47
M  V30 50 1 21 48
M  V30 51 1 26 49
M  V30 52 1 26 50
M  V30 53 1 26 51
M  V30 END BOND
M  V30 END CTAB
M  END
>  <Dataset>  (290) 
ChEMBL_Kinases

>  <Ligand_Instance>  (290) 
nan

>  <PDB_ID>  (290) 
nan

>  <Standardized_SMILES>  (290) 
CC(C)Cn1c(N)c(C(=O)CSc2ccc3c(c2)OCCO3)c(=O)n(C)c1=O

>  <Name>  (290) 
nan

>  <Pocket>  (290) 
nan

>  <ATP_Site>  (290) 
nan

>  <Peripheral>  (290) 
nan

>  <Num_H_Atoms_ProtBoundConf>  (290) 
nan

>  <Num_Resolved_Atoms>  (290) 
nan

>  <Num_Not_Resolved_Atoms>  (290) 
nan

$$$$
CHEMBL1482580
     RDKit          3D

  0  0  0  0  0  0  0  0  0  0999 V3000
M  V30 BEGIN CTAB
M  V30 COUNTS 48 49 0 0 0
M  V30 BEGIN ATOM
M  V30 1 C -2.435372 -3.702889 -1.443383 0
M  V30 2 C -2.405450 -3.236238 -0.040976 0
M  V30 3 C -1.231951 -3.181792 0.679348 0
M  V30 4 C -1.060714 -2.768014 1.986780 0
M  V30 5 O 0.158925 -2.754572 2.617820 0
M  V30 6 C 1.387212 -3.105780 2.156046 0
M  V30 7 C 2.006620 -2.432130 1.039453 0
M  V30 8 O 3.146760 -2.932468 0.777812 0
M  V30 9 N 1.537279 -1.361416 0.255072 0
M  V30 10 C 2.261816 -0.808031 -0.826896 0
M  V30 11 C 1.630194 0.346893 -1.518522 0
M  V30 12 C 1.472067 1.646098 -0.845611 0
M  V30 13 N 0.780896 1.787709 0.380567 0
M  V30 14 C 0.422891 3.233779 0.513357 0
M  V30 15 C 1.473718 4.033233 1.216068 0
M  V30 16 O 2.729855 3.542961 0.929876 0
M  V30 17 C 2.917981 2.263733 1.419377 0
M  V30 18 C 1.582204 1.587768 1.587598 0
M  V30 19 C -2.215560 -2.362575 2.636806 0
M  V30 20 C -3.445471 -2.391304 1.965162 0
M  V30 21 C -4.664812 -1.957803 2.677342 0
M  V30 22 C -3.528088 -2.822005 0.648574 0
M  V30 23 Cl -5.060622 -2.856304 -0.199030 0
M  V30 24 H -1.605200 -4.418262 -1.577685 0
M  V30 25 H -3.388120 -4.259156 -1.591459 0
M  V30 26 H -2.295723 -2.870504 -2.140998 0
M  V30 27 H -0.328324 -3.497361 0.170701 0
M  V30 28 H 1.356348 -4.211200 1.923199 0
M  V30 29 H 2.098631 -3.073930 3.035187 0
M  V30 30 H 0.606427 -0.983655 0.506564 0
M  V30 31 H 2.452383 -1.646646 -1.568457 0
M  V30 32 H 3.297231 -0.480154 -0.560990 0
M  V30 33 H 2.237972 0.529389 -2.479811 0
M  V30 34 H 0.624235 0.009006 -1.961867 0
M  V30 35 H 0.881019 2.342149 -1.567802 0
M  V30 36 H 2.468716 2.188407 -0.854947 0
M  V30 37 H 0.213921 3.674359 -0.463418 0
M  V30 38 H -0.505061 3.265633 1.124253 0
M  V30 39 H 1.419933 5.100309 0.862221 0
M  V30 40 H 1.326873 4.125492 2.321986 0
M  V30 41 H 3.565801 1.686581 0.743905 0
M  V30 42 H 3.444237 2.363081 2.394597 0
M  V30 43 H 1.004707 2.145632 2.402836 0
M  V30 44 H 1.602752 0.581418 1.927823 0
M  V30 45 H -2.209008 -2.019661 3.656366 0
M  V30 46 H -4.813546 -2.556802 3.595265 0
M  V30 47 H -5.536119 -2.029662 1.988694 0
M  V30 48 H -4.636441 -0.900528 2.995923 0
M  V30 END ATOM
M  V30 BEGIN BOND
M  V30 1 1 1 2
M  V30 2 2 2 3
M  V30 3 1 3 4
M  V30 4 1 4 5
M  V30 5 1 5 6
M  V30 6 1 6 7
M  V30 7 2 7 8
M  V30 8 1 7 9
M  V30 9 1 9 10
M  V30 10 1 10 11
M  V30 11 1 11 12
M  V30 12 1 12 13
M  V30 13 1 13 14
M  V30 14 1 14 15
M  V30 15 1 15 16
M  V30 16 1 16 17
M  V30 17 1 17 18
M  V30 18 2 4 19
M  V30 19 1 19 20
M  V30 20 1 20 21
M  V30 21 2 20 22
M  V30 22 1 22 23
M  V30 23 1 22 2
M  V30 24 1 18 13
M  V30 25 1 1 24
M  V30 26 1 1 25
M  V30 27 1 1 26
M  V30 28 1 3 27
M  V30 29 1 6 28
M  V30 30 1 6 29
M  V30 31 1 9 30
M  V30 32 1 10 31
M  V30 33 1 10 32
M  V30 34 1 11 33
M  V30 35 1 11 34
M  V30 36 1 12 35
M  V30 37 1 12 36
M  V30 38 1 14 37
M  V30 39 1 14 38
M  V30 40 1 15 39
M  V30 41 1 15 40
M  V30 42 1 17 41
M  V30 43 1 17 42
M  V30 44 1 18 43
M  V30 45 1 18 44
M  V30 46 1 19 45
M  V30 47 1 21 46
M  V30 48 1 21 47
M  V30 49 1 21 48
M  V30 END BOND
M  V30 END CTAB
M  END
>  <Dataset>  (291) 
ChEMBL_Kinases

>  <Ligand_Instance>  (291) 
nan

>  <PDB_ID>  (291) 
nan

>  <Standardized_SMILES>  (291) 
Cc1cc(OCC(=O)NCCCN2CCOCC2)cc(C)c1Cl

>  <Name>  (291) 
nan

>  <Pocket>  (291) 
nan

>  <ATP_Site>  (291) 
nan

>  <Peripheral>  (291) 
nan

>  <Num_H_Atoms_ProtBoundConf>  (291) 
nan

>  <Num_Resolved_Atoms>  (291) 
nan

>  <Num_Not_Resolved_Atoms>  (291) 
nan

$$$$
CHEMBL1482647
     RDKit          3D

  0  0  0  0  0  0  0  0  0  0999 V3000
M  V30 BEGIN CTAB
M  V30 COUNTS 50 51 0 0 0
M  V30 BEGIN ATOM
M  V30 1 C -0.770789 -6.070170 -0.220357 0
M  V30 2 C -0.976408 -5.032163 -1.267613 0
M  V30 3 N 0.149364 -4.714755 -2.084814 0
M  V30 4 C -0.115190 -3.705271 -3.076411 0
M  V30 5 C 0.062756 -2.300992 -2.532326 0
M  V30 6 N 1.383219 -2.213860 -2.012054 0
M  V30 7 C 1.953272 -0.919223 -1.906360 0
M  V30 8 C 1.291252 -0.069661 -0.886921 0
M  V30 9 O 0.330572 -0.551104 -0.241929 0
M  V30 10 N 1.698563 1.256031 -0.614353 0
M  V30 11 C 1.176151 2.182746 0.317192 0
M  V30 12 C 1.734011 3.438860 0.396323 0
M  V30 13 C 1.281361 4.390169 1.279171 0
M  V30 14 C 0.237016 4.143664 2.142445 0
M  V30 15 Cl -0.330132 5.363303 3.261849 0
M  V30 16 C -0.346460 2.897801 2.092135 0
M  V30 17 S -1.663869 2.544539 3.163538 0
M  V30 18 O -2.088106 1.112027 2.916487 0
M  V30 19 O -2.882365 3.390043 2.896625 0
M  V30 20 N -1.233237 2.682685 4.825867 0
M  V30 21 C -0.186764 1.724847 5.112748 0
M  V30 22 C -2.402301 2.222525 5.589102 0
M  V30 23 C 0.138861 1.982715 1.196205 0
M  V30 24 C 1.511545 -3.066978 -0.865272 0
M  V30 25 C 1.374003 -4.505859 -1.385390 0
M  V30 26 H -1.755402 -6.159669 0.319846 0
M  V30 27 H -0.592780 -7.084349 -0.620112 0
M  V30 28 H -0.061892 -5.757399 0.572558 0
M  V30 29 H -1.288269 -4.092068 -0.740822 0
M  V30 30 H -1.852607 -5.326362 -1.878639 0
M  V30 31 H -1.165892 -3.806748 -3.416685 0
M  V30 32 H 0.517321 -3.871803 -3.976859 0
M  V30 33 H -0.047797 -1.621592 -3.406410 0
M  V30 34 H -0.696464 -2.133393 -1.752941 0
M  V30 35 H 1.932013 -0.392857 -2.894877 0
M  V30 36 H 3.037914 -0.976373 -1.625568 0
M  V30 37 H 2.501179 1.550595 -1.207382 0
M  V30 38 H 2.573093 3.694912 -0.269783 0
M  V30 39 H 1.783419 5.353952 1.270543 0
M  V30 40 H -0.162484 1.477012 6.206145 0
M  V30 41 H 0.796508 2.048925 4.745049 0
M  V30 42 H -0.447901 0.773967 4.599835 0
M  V30 43 H -2.271429 2.322158 6.671766 0
M  V30 44 H -2.523109 1.127292 5.352588 0
M  V30 45 H -3.296729 2.722895 5.179972 0
M  V30 46 H -0.363094 1.030198 1.210617 0
M  V30 47 H 2.507861 -2.999432 -0.383289 0
M  V30 48 H 0.729845 -2.829266 -0.146118 0
M  V30 49 H 1.518615 -5.256205 -0.616188 0
M  V30 50 H 2.203279 -4.617746 -2.119869 0
M  V30 END ATOM
M  V30 BEGIN BOND
M  V30 1 1 1 2
M  V30 2 1 2 3
M  V30 3 1 3 4
M  V30 4 1 4 5
M  V30 5 1 5 6
M  V30 6 1 6 7
M  V30 7 1 7 8
M  V30 8 2 8 9
M  V30 9 1 8 10
M  V30 10 1 10 11
M  V30 11 2 11 12
M  V30 12 1 12 13
M  V30 13 2 13 14
M  V30 14 1 14 15
M  V30 15 1 14 16
M  V30 16 1 16 17
M  V30 17 2 17 18
M  V30 18 2 17 19
M  V30 19 1 17 20
M  V30 20 1 20 21
M  V30 21 1 20 22
M  V30 22 2 16 23
M  V30 23 1 6 24
M  V30 24 1 24 25
M  V30 25 1 25 3
M  V30 26 1 23 11
M  V30 27 1 1 26
M  V30 28 1 1 27
M  V30 29 1 1 28
M  V30 30 1 2 29
M  V30 31 1 2 30
M  V30 32 1 4 31
M  V30 33 1 4 32
M  V30 34 1 5 33
M  V30 35 1 5 34
M  V30 36 1 7 35
M  V30 37 1 7 36
M  V30 38 1 10 37
M  V30 39 1 12 38
M  V30 40 1 13 39
M  V30 41 1 21 40
M  V30 42 1 21 41
M  V30 43 1 21 42
M  V30 44 1 22 43
M  V30 45 1 22 44
M  V30 46 1 22 45
M  V30 47 1 23 46
M  V30 48 1 24 47
M  V30 49 1 24 48
M  V30 50 1 25 49
M  V30 51 1 25 50
M  V30 END BOND
M  V30 END CTAB
M  END
>  <Dataset>  (292) 
ChEMBL_Kinases

>  <Ligand_Instance>  (292) 
nan

>  <PDB_ID>  (292) 
nan

>  <Standardized_SMILES>  (292) 
CCN1CCN(CC(=O)Nc2ccc(Cl)c(S(=O)(=O)N(C)C)c2)CC1

>  <Name>  (292) 
nan

>  <Pocket>  (292) 
nan

>  <ATP_Site>  (292) 
nan

>  <Peripheral>  (292) 
nan

>  <Num_H_Atoms_ProtBoundConf>  (292) 
nan

>  <Num_Resolved_Atoms>  (292) 
nan

>  <Num_Not_Resolved_Atoms>  (292) 
nan

$$$$
CHEMBL1482218
     RDKit          3D

  0  0  0  0  0  0  0  0  0  0999 V3000
M  V30 BEGIN CTAB
M  V30 COUNTS 37 39 0 0 0
M  V30 BEGIN ATOM
M  V30 1 C 1.085277 -5.349748 2.954832 0
M  V30 2 C 1.693594 -4.450318 1.943757 0
M  V30 3 N 2.709786 -4.243786 1.473539 0
M  V30 4 N 3.063092 -3.393296 0.577763 0
M  V30 5 C 2.241178 -2.621585 0.075253 0
M  V30 6 N 2.268064 -1.553360 -0.936548 0
M  V30 7 C 1.134530 -0.787670 -1.348975 0
M  V30 8 O 0.189926 -1.247229 -0.660561 0
M  V30 9 C 1.578560 0.178533 -2.378537 0
M  V30 10 C 0.464723 1.107284 -2.719228 0
M  V30 11 C -0.015392 2.063224 -1.712317 0
M  V30 12 N -0.497063 1.607673 -0.455951 0
M  V30 13 C 0.400953 1.519027 0.675773 0
M  V30 14 O 1.615291 1.788769 0.737500 0
M  V30 15 C -0.426875 1.027186 1.794522 0
M  V30 16 C -0.120935 0.749155 3.114230 0
M  V30 17 C -1.082047 0.289858 3.991893 0
M  V30 18 C -2.384000 0.097374 3.561137 0
M  V30 19 C -2.684772 0.381013 2.224880 0
M  V30 20 C -1.733721 0.842380 1.330478 0
M  V30 21 C -1.826484 1.197444 -0.090315 0
M  V30 22 O -2.820744 1.162795 -0.842743 0
M  V30 23 S 0.742145 -3.132355 0.962712 0
M  V30 24 H 1.595288 -5.154537 3.920780 0
M  V30 25 H 1.226547 -6.429450 2.670513 0
M  V30 26 H -0.000553 -5.164648 3.082403 0
M  V30 27 H 3.259060 -1.480612 -1.273875 0
M  V30 28 H 1.928485 -0.376331 -3.300597 0
M  V30 29 H 2.498400 0.721546 -2.048983 0
M  V30 30 H 0.798052 1.701012 -3.612921 0
M  V30 31 H -0.453155 0.507778 -3.047197 0
M  V30 32 H 0.752154 2.878810 -1.564022 0
M  V30 33 H -0.850062 2.651614 -2.238181 0
M  V30 34 H 0.905794 0.910477 3.418018 0
M  V30 35 H -0.798143 0.083526 5.021768 0
M  V30 36 H -3.146670 -0.261921 4.238095 0
M  V30 37 H -3.712638 0.223942 1.904076 0
M  V30 END ATOM
M  V30 BEGIN BOND
M  V30 1 1 1 2
M  V30 2 2 2 3
M  V30 3 1 3 4
M  V30 4 2 4 5
M  V30 5 1 5 6
M  V30 6 1 6 7
M  V30 7 2 7 8
M  V30 8 1 7 9
M  V30 9 1 9 10
M  V30 10 1 10 11
M  V30 11 1 11 12
M  V30 12 1 12 13
M  V30 13 2 13 14
M  V30 14 1 13 15
M  V30 15 2 15 16
M  V30 16 1 16 17
M  V30 17 2 17 18
M  V30 18 1 18 19
M  V30 19 2 19 20
M  V30 20 1 20 21
M  V30 21 2 21 22
M  V30 22 1 5 23
M  V30 23 1 23 2
M  V30 24 1 21 12
M  V30 25 1 20 15
M  V30 26 1 1 24
M  V30 27 1 1 25
M  V30 28 1 1 26
M  V30 29 1 6 27
M  V30 30 1 9 28
M  V30 31 1 9 29
M  V30 32 1 10 30
M  V30 33 1 10 31
M  V30 34 1 11 32
M  V30 35 1 11 33
M  V30 36 1 16 34
M  V30 37 1 17 35
M  V30 38 1 18 36
M  V30 39 1 19 37
M  V30 END BOND
M  V30 END CTAB
M  END
>  <Dataset>  (293) 
ChEMBL_Kinases

>  <Ligand_Instance>  (293) 
nan

>  <PDB_ID>  (293) 
nan

>  <Standardized_SMILES>  (293) 
Cc1nnc(NC(=O)CCCN2C(=O)c3ccccc3C2=O)s1

>  <Name>  (293) 
nan

>  <Pocket>  (293) 
nan

>  <ATP_Site>  (293) 
nan

>  <Peripheral>  (293) 
nan

>  <Num_H_Atoms_ProtBoundConf>  (293) 
nan

>  <Num_Resolved_Atoms>  (293) 
nan

>  <Num_Not_Resolved_Atoms>  (293) 
nan

$$$$
CHEMBL1486570
     RDKit          3D

  0  0  0  0  0  0  0  0  0  0999 V3000
M  V30 BEGIN CTAB
M  V30 COUNTS 49 53 0 0 0
M  V30 BEGIN ATOM
M  V30 1 C -3.828370 -3.711897 -3.828101 0
M  V30 2 C -2.494598 -3.552117 -3.129115 0
M  V30 3 C -2.569987 -2.305727 -2.276775 0
M  V30 4 C -1.175519 -1.804405 -2.370953 0
M  V30 5 C -0.405246 -0.970105 -1.599522 0
M  V30 6 C 0.897018 -0.592017 -1.820128 0
M  V30 7 C 1.729798 0.267531 -1.004916 0
M  V30 8 O 2.880731 0.488984 -1.530865 0
M  V30 9 C 1.418018 0.875746 0.278790 0
M  V30 10 C 2.426114 1.647775 0.731571 0
M  V30 11 O 3.722165 2.063048 0.359173 0
M  V30 12 C 2.004793 2.238529 2.018783 0
M  V30 13 O 2.582008 3.014732 2.830310 0
M  V30 14 N 0.692904 1.773392 2.284286 0
M  V30 15 C -0.150425 2.213599 3.405739 0
M  V30 16 C 0.013977 1.411074 4.618366 0
M  V30 17 C 1.039447 1.838648 5.464220 0
M  V30 18 C 1.081174 0.994396 6.565553 0
M  V30 19 C 0.049149 0.085059 6.307605 0
M  V30 20 O -0.545426 0.358764 5.171575 0
M  V30 21 C 0.308826 0.799313 1.248671 0
M  V30 22 C 0.120615 -0.451729 1.887328 0
M  V30 23 C 1.067235 -0.951089 2.724832 0
M  V30 24 C 0.968067 -2.126749 3.379773 0
M  V30 25 C -0.240606 -2.882597 3.153097 0
M  V30 26 S -1.195984 -1.776819 1.943968 0
M  V30 27 C 1.394817 -1.171453 -2.975723 0
M  V30 28 C 0.683609 -2.011655 -3.791752 0
M  V30 29 C -0.619744 -2.344171 -3.501870 0
M  V30 30 O -1.555842 -3.148394 -4.129047 0
M  V30 31 H -4.034274 -2.817289 -4.428397 0
M  V30 32 H -4.602231 -3.835510 -3.040156 0
M  V30 33 H -3.867567 -4.651544 -4.427893 0
M  V30 34 H -2.184481 -4.442205 -2.585108 0
M  V30 35 H -3.278608 -1.605989 -2.767167 0
M  V30 36 H -2.890656 -2.561810 -1.264302 0
M  V30 37 H -0.912676 -0.573216 -0.738744 0
M  V30 38 H 4.486799 1.394200 0.339738 0
M  V30 39 H -0.108950 3.301479 3.568060 0
M  V30 40 H -1.209030 2.026747 3.057088 0
M  V30 41 H 1.776109 2.646653 5.451482 0
M  V30 42 H 1.647676 0.870621 7.478753 0
M  V30 43 H -0.344592 -0.769640 6.836805 0
M  V30 44 H -0.604603 1.180202 0.789206 0
M  V30 45 H 2.037986 -0.498002 2.999497 0
M  V30 46 H 1.531897 -2.731429 4.064931 0
M  V30 47 H -0.689488 -3.882005 3.503725 0
M  V30 48 H 2.421673 -0.986063 -3.317296 0
M  V30 49 H 1.119192 -2.442315 -4.689497 0
M  V30 END ATOM
M  V30 BEGIN BOND
M  V30 1 1 1 2
M  V30 2 1 2 3
M  V30 3 1 3 4
M  V30 4 2 4 5
M  V30 5 1 5 6
M  V30 6 1 6 7
M  V30 7 2 7 8
M  V30 8 1 7 9
M  V30 9 2 9 10
M  V30 10 1 10 11
M  V30 11 1 10 12
M  V30 12 2 12 13
M  V30 13 1 12 14
M  V30 14 1 14 15
M  V30 15 1 15 16
M  V30 16 2 16 17
M  V30 17 1 17 18
M  V30 18 2 18 19
M  V30 19 1 19 20
M  V30 20 1 14 21
M  V30 21 1 21 22
M  V30 22 2 22 23
M  V30 23 1 23 24
M  V30 24 2 24 25
M  V30 25 1 25 26
M  V30 26 2 6 27
M  V30 27 1 27 28
M  V30 28 2 28 29
M  V30 29 1 29 30
M  V30 30 1 30 2
M  V30 31 1 29 4
M  V30 32 1 21 9
M  V30 33 1 26 22
M  V30 34 1 20 16
M  V30 35 1 1 31
M  V30 36 1 1 32
M  V30 37 1 1 33
M  V30 38 1 2 34
M  V30 39 1 3 35
M  V30 40 1 3 36
M  V30 41 1 5 37
M  V30 42 1 11 38
M  V30 43 1 15 39
M  V30 44 1 15 40
M  V30 45 1 17 41
M  V30 46 1 18 42
M  V30 47 1 19 43
M  V30 48 1 21 44
M  V30 49 1 23 45
M  V30 50 1 24 46
M  V30 51 1 25 47
M  V30 52 1 27 48
M  V30 53 1 28 49
M  V30 END BOND
M  V30 END CTAB
M  END
>  <Dataset>  (294) 
ChEMBL_Kinases

>  <Ligand_Instance>  (294) 
nan

>  <PDB_ID>  (294) 
nan

>  <Standardized_SMILES>  (294) 
CC1Cc2cc(C(=O)C3=C(O)C(=O)N(Cc4ccco4)C3c3cccs3)ccc2O1

>  <Name>  (294) 
nan

>  <Pocket>  (294) 
nan

>  <ATP_Site>  (294) 
nan

>  <Peripheral>  (294) 
nan

>  <Num_H_Atoms_ProtBoundConf>  (294) 
nan

>  <Num_Resolved_Atoms>  (294) 
nan

>  <Num_Not_Resolved_Atoms>  (294) 
nan

$$$$
CHEMBL1486478
     RDKit          3D

  0  0  0  0  0  0  0  0  0  0999 V3000
M  V30 BEGIN CTAB
M  V30 COUNTS 35 37 0 0 0
M  V30 BEGIN ATOM
M  V30 1 O -0.070759 -2.294679 0.903796 0
M  V30 2 C 0.957712 -1.570725 0.675534 0
M  V30 3 O 2.213475 -2.121580 0.560042 0
M  V30 4 C 2.466751 -3.495172 0.680382 0
M  V30 5 C 2.757637 -4.037475 1.911658 0
M  V30 6 C 3.005218 -5.390899 2.017983 0
M  V30 7 C 2.954179 -6.168740 0.880210 0
M  V30 8 C 2.663261 -5.659964 -0.386670 0
M  V30 9 C 2.418180 -4.288978 -0.458946 0
M  V30 10 C 0.797158 -0.102077 0.531252 0
M  V30 11 C 1.915934 0.686579 0.282830 0
M  V30 12 C 1.749789 2.049962 0.151331 0
M  V30 13 C 0.480030 2.574775 0.271792 0
M  V30 14 C -0.658327 1.835377 0.517404 0
M  V30 15 N -1.953949 2.412517 0.634963 0
M  V30 16 C -3.168356 1.712065 0.889725 0
M  V30 17 O -3.290138 0.632295 1.561161 0
M  V30 18 C -4.256166 2.503358 0.210249 0
M  V30 19 C -3.786997 3.915555 0.487236 0
M  V30 20 C -2.315983 3.770504 0.528004 0
M  V30 21 O -1.574650 4.773132 0.469735 0
M  V30 22 C -0.448949 0.485855 0.641166 0
M  V30 23 H 2.794926 -3.418157 2.796798 0
M  V30 24 H 3.239690 -5.887381 2.947829 0
M  V30 25 H 3.143497 -7.235007 0.928424 0
M  V30 26 H 2.639415 -6.326046 -1.237885 0
M  V30 27 H 2.193527 -3.895419 -1.436563 0
M  V30 28 H 2.899457 0.245841 0.193424 0
M  V30 29 H 2.623897 2.657110 -0.041758 0
M  V30 30 H 0.426864 3.635019 0.158539 0
M  V30 31 H -5.244912 2.263627 0.597098 0
M  V30 32 H -4.127477 2.250222 -0.876600 0
M  V30 33 H -4.108762 4.630977 -0.291493 0
M  V30 34 H -4.199732 4.179171 1.500362 0
M  V30 35 H -1.241275 -0.193099 0.830281 0
M  V30 END ATOM
M  V30 BEGIN BOND
M  V30 1 2 1 2
M  V30 2 1 2 3
M  V30 3 1 3 4
M  V30 4 2 4 5
M  V30 5 1 5 6
M  V30 6 2 6 7
M  V30 7 1 7 8
M  V30 8 2 8 9
M  V30 9 1 2 10
M  V30 10 2 10 11
M  V30 11 1 11 12
M  V30 12 2 12 13
M  V30 13 1 13 14
M  V30 14 1 14 15
M  V30 15 1 15 16
M  V30 16 2 16 17
M  V30 17 1 16 18
M  V30 18 1 18 19
M  V30 19 1 19 20
M  V30 20 2 20 21
M  V30 21 2 14 22
M  V30 22 1 9 4
M  V30 23 1 22 10
M  V30 24 1 20 15
M  V30 25 1 5 23
M  V30 26 1 6 24
M  V30 27 1 7 25
M  V30 28 1 8 26
M  V30 29 1 9 27
M  V30 30 1 11 28
M  V30 31 1 12 29
M  V30 32 1 13 30
M  V30 33 1 18 31
M  V30 34 1 18 32
M  V30 35 1 19 33
M  V30 36 1 19 34
M  V30 37 1 22 35
M  V30 END BOND
M  V30 END CTAB
M  END
>  <Dataset>  (295) 
ChEMBL_Kinases

>  <Ligand_Instance>  (295) 
nan

>  <PDB_ID>  (295) 
nan

>  <Standardized_SMILES>  (295) 
O=C(Oc1ccccc1)c1cccc(N2C(=O)CCC2=O)c1

>  <Name>  (295) 
nan

>  <Pocket>  (295) 
nan

>  <ATP_Site>  (295) 
nan

>  <Peripheral>  (295) 
nan

>  <Num_H_Atoms_ProtBoundConf>  (295) 
nan

>  <Num_Resolved_Atoms>  (295) 
nan

>  <Num_Not_Resolved_Atoms>  (295) 
nan

$$$$
CHEMBL1486465
     RDKit          3D

  0  0  0  0  0  0  0  0  0  0999 V3000
M  V30 BEGIN CTAB
M  V30 COUNTS 32 35 0 0 0
M  V30 BEGIN ATOM
M  V30 1 O -0.760948 -3.512433 0.729223 0
M  V30 2 C 0.239589 -2.875235 0.312023 0
M  V30 3 C 1.635444 -2.980197 0.735716 0
M  V30 4 C 2.153125 -3.688777 1.807864 0
M  V30 5 C 3.533707 -3.616157 1.985839 0
M  V30 6 C 4.357197 -2.876253 1.140178 0
M  V30 7 C 3.747083 -2.206791 0.102923 0
M  V30 8 C 2.390980 -2.219368 -0.152179 0
M  V30 9 C 1.513587 -1.618032 -1.150018 0
M  V30 10 O 1.967656 -1.013763 -2.171714 0
M  V30 11 C 0.119446 -1.831658 -0.771279 0
M  V30 12 C -0.483102 -0.645188 -0.073782 0
M  V30 13 C 0.201838 -0.042230 0.985856 0
M  V30 14 C -0.339464 1.051891 1.639269 0
M  V30 15 C -1.564805 1.509454 1.201792 0
M  V30 16 C -2.094071 2.605383 1.865484 0
M  V30 17 C -3.321909 3.099727 1.461140 0
M  V30 18 C -4.009709 2.505547 0.407796 0
M  V30 19 C -3.470795 1.410019 -0.248651 0
M  V30 20 C -2.241746 0.916344 0.157191 0
M  V30 21 N -1.686723 -0.158183 -0.467860 0
M  V30 22 H 1.509506 -4.258816 2.457535 0
M  V30 23 H 3.921839 -4.165195 2.813981 0
M  V30 24 H 5.416461 -2.845554 1.310917 0
M  V30 25 H 4.392951 -1.636714 -0.546352 0
M  V30 26 H -0.555833 -2.167950 -1.570935 0
M  V30 27 H 1.172286 -0.463700 1.276240 0
M  V30 28 H 0.213927 1.502923 2.461114 0
M  V30 29 H -1.543556 3.060841 2.689487 0
M  V30 30 H -3.720677 3.955173 1.989411 0
M  V30 31 H -4.980931 2.916019 0.106418 0
M  V30 32 H -4.014467 0.944574 -1.077253 0
M  V30 END ATOM
M  V30 BEGIN BOND
M  V30 1 2 1 2
M  V30 2 1 2 3
M  V30 3 2 3 4
M  V30 4 1 4 5
M  V30 5 2 5 6
M  V30 6 1 6 7
M  V30 7 2 7 8
M  V30 8 1 8 9
M  V30 9 2 9 10
M  V30 10 1 9 11
M  V30 11 1 11 12
M  V30 12 2 12 13
M  V30 13 1 13 14
M  V30 14 2 14 15
M  V30 15 1 15 16
M  V30 16 2 16 17
M  V30 17 1 17 18
M  V30 18 2 18 19
M  V30 19 1 19 20
M  V30 20 2 20 21
M  V30 21 1 11 2
M  V30 22 1 21 12
M  V30 23 1 8 3
M  V30 24 1 20 15
M  V30 25 1 4 22
M  V30 26 1 5 23
M  V30 27 1 6 24
M  V30 28 1 7 25
M  V30 29 1 11 26
M  V30 30 1 13 27
M  V30 31 1 14 28
M  V30 32 1 16 29
M  V30 33 1 17 30
M  V30 34 1 18 31
M  V30 35 1 19 32
M  V30 END BOND
M  V30 END CTAB
M  END
>  <Dataset>  (296) 
ChEMBL_Kinases

>  <Ligand_Instance>  (296) 
nan

>  <PDB_ID>  (296) 
nan

>  <Standardized_SMILES>  (296) 
O=C1c2ccccc2C(=O)C1c1ccc2ccccc2n1

>  <Name>  (296) 
nan

>  <Pocket>  (296) 
nan

>  <ATP_Site>  (296) 
nan

>  <Peripheral>  (296) 
nan

>  <Num_H_Atoms_ProtBoundConf>  (296) 
nan

>  <Num_Resolved_Atoms>  (296) 
nan

>  <Num_Not_Resolved_Atoms>  (296) 
nan

$$$$
CHEMBL1486458
     RDKit          3D

  0  0  0  0  0  0  0  0  0  0999 V3000
M  V30 BEGIN CTAB
M  V30 COUNTS 32 34 0 0 0
M  V30 BEGIN ATOM
M  V30 1 C 0.310808 -5.138648 4.103178 0
M  V30 2 C 1.243617 -4.652355 2.999654 0
M  V30 3 O 0.663205 -3.456311 2.506427 0
M  V30 4 C 1.210985 -2.694813 1.483700 0
M  V30 5 O 0.713195 -3.388974 2.414792 0
M  V30 6 C 0.421746 -1.491274 1.145909 0
M  V30 7 C -0.747550 -0.978322 1.645440 0
M  V30 8 C -0.970017 0.174204 0.909934 0
M  V30 9 N 0.028282 0.329858 0.016123 0
M  V30 10 C 0.914629 -0.677290 0.124272 0
M  V30 11 C 2.130035 -0.795995 -0.721272 0
M  V30 12 C -0.262041 1.527561 -0.702526 0
M  V30 13 C 0.406161 2.170083 -1.724621 0
M  V30 14 C -0.019558 3.352560 -2.326678 0
M  V30 15 C -1.206673 3.901181 -1.841463 0
M  V30 16 C -1.894854 3.274697 -0.816560 0
M  V30 17 C -1.431402 2.104327 -0.253186 0
M  V30 18 C -1.949631 1.254945 0.815902 0
M  V30 19 O -2.989971 1.424810 1.485915 0
M  V30 20 H -0.112828 -4.311956 4.685930 0
M  V30 21 H -0.551770 -5.696105 3.676103 0
M  V30 22 H 0.828670 -5.833848 4.783650 0
M  V30 23 H 1.214504 -5.472602 2.229393 0
M  V30 24 H 2.283157 -4.558907 3.319996 0
M  V30 25 H -1.284460 -1.452423 2.433504 0
M  V30 26 H 1.812603 -0.570758 -1.768443 0
M  V30 27 H 2.545570 -1.803853 -0.724556 0
M  V30 28 H 2.896567 -0.029655 -0.482454 0
M  V30 29 H 1.341801 1.764254 -2.127971 0
M  V30 30 H 0.542724 3.805394 -3.117602 0
M  V30 31 H -1.577057 4.825472 -2.283003 0
M  V30 32 H -2.812562 3.750447 -0.482112 0
M  V30 END ATOM
M  V30 BEGIN BOND
M  V30 1 1 1 2
M  V30 2 1 2 3
M  V30 3 1 3 4
M  V30 4 2 4 5
M  V30 5 1 4 6
M  V30 6 1 6 7
M  V30 7 2 7 8
M  V30 8 1 8 9
M  V30 9 1 9 10
M  V30 10 1 10 11
M  V30 11 1 9 12
M  V30 12 2 12 13
M  V30 13 1 13 14
M  V30 14 2 14 15
M  V30 15 1 15 16
M  V30 16 2 16 17
M  V30 17 1 17 18
M  V30 18 2 18 19
M  V30 19 2 10 6
M  V30 20 1 17 12
M  V30 21 1 18 8
M  V30 22 1 1 20
M  V30 23 1 1 21
M  V30 24 1 1 22
M  V30 25 1 2 23
M  V30 26 1 2 24
M  V30 27 1 7 25
M  V30 28 1 11 26
M  V30 29 1 11 27
M  V30 30 1 11 28
M  V30 31 1 13 29
M  V30 32 1 14 30
M  V30 33 1 15 31
M  V30 34 1 16 32
M  V30 END BOND
M  V30 END CTAB
M  END
>  <Dataset>  (297) 
ChEMBL_Kinases

>  <Ligand_Instance>  (297) 
nan

>  <PDB_ID>  (297) 
nan

>  <Standardized_SMILES>  (297) 
CCOC(=O)c1cc2n(c1C)-c1ccccc1C2=O

>  <Name>  (297) 
nan

>  <Pocket>  (297) 
nan

>  <ATP_Site>  (297) 
nan

>  <Peripheral>  (297) 
nan

>  <Num_H_Atoms_ProtBoundConf>  (297) 
nan

>  <Num_Resolved_Atoms>  (297) 
nan

>  <Num_Not_Resolved_Atoms>  (297) 
nan

$$$$
CHEMBL1486429
     RDKit          3D

  0  0  0  0  0  0  0  0  0  0999 V3000
M  V30 BEGIN CTAB
M  V30 COUNTS 54 57 0 0 0
M  V30 BEGIN ATOM
M  V30 1 O 2.415484 -3.779672 1.015629 0
M  V30 2 C 1.222345 -3.471313 1.267716 0
M  V30 3 C 0.350151 -2.304431 1.166433 0
M  V30 4 N 0.869915 -1.116622 0.654791 0
M  V30 5 C 1.237388 -1.011497 -0.703246 0
M  V30 6 C 2.736023 -1.137470 -0.739787 0
M  V30 7 C 3.181812 -0.702765 0.615730 0
M  V30 8 C 1.878214 -0.418392 1.364163 0
M  V30 9 C 1.627857 1.061457 1.187096 0
M  V30 10 C 0.664303 1.330708 0.056196 0
M  V30 11 N -0.683810 1.103987 0.582796 0
M  V30 12 C -1.610587 2.192933 0.536236 0
M  V30 13 O -1.270394 3.303353 0.058469 0
M  V30 14 N -2.957413 2.096072 1.018814 0
M  V30 15 C -3.745493 3.258554 0.902206 0
M  V30 16 C -3.756279 4.176506 1.947350 0
M  V30 17 C -4.516668 5.323921 1.864729 0
M  V30 18 C -5.296887 5.629454 0.768559 0
M  V30 19 C -5.296283 4.724406 -0.280171 0
M  V30 20 C -4.536141 3.595617 -0.176491 0
M  V30 21 C 0.930430 0.425250 -1.123859 0
M  V30 22 N 0.568004 -4.628355 1.808272 0
M  V30 23 C 1.292232 -5.880689 1.977328 0
M  V30 24 C 1.752764 -6.311069 0.635403 0
M  V30 25 C 0.908321 -7.114469 -0.125901 0
M  V30 26 C 1.533817 -7.395594 -1.333523 0
M  V30 27 C 2.737412 -6.732453 -1.222851 0
M  V30 28 O 2.817319 -6.125341 -0.077167 0
M  V30 29 H -0.570155 -2.556714 0.558566 0
M  V30 30 H -0.098539 -2.071668 2.178679 0
M  V30 31 H 0.739990 -1.738302 -1.378686 0
M  V30 32 H 3.106692 -2.131312 -1.057045 0
M  V30 33 H 3.149524 -0.438994 -1.528566 0
M  V30 34 H 3.825973 -1.424313 1.144943 0
M  V30 35 H 3.803629 0.220068 0.517897 0
M  V30 36 H 1.949694 -0.727333 2.426276 0
M  V30 37 H 2.589053 1.614181 1.033823 0
M  V30 38 H 1.123793 1.397209 2.121411 0
M  V30 39 H 0.758767 2.372375 -0.318814 0
M  V30 40 H -1.050949 0.225286 0.994474 0
M  V30 41 H -3.266528 1.177452 1.422632 0
M  V30 42 H -3.150559 3.954412 2.816014 0
M  V30 43 H -4.538342 6.052286 2.670072 0
M  V30 44 H -5.889738 6.520387 0.700105 0
M  V30 45 H -5.899296 4.940567 -1.150386 0
M  V30 46 H -4.549345 2.890385 -1.018588 0
M  V30 47 H 0.071147 0.482370 -1.823105 0
M  V30 48 H 1.784677 0.885391 -1.666070 0
M  V30 49 H -0.454265 -4.635966 2.107146 0
M  V30 50 H 2.203948 -5.714176 2.619101 0
M  V30 51 H 0.669712 -6.644017 2.477716 0
M  V30 52 H -0.085482 -7.508699 0.093152 0
M  V30 53 H 1.143719 -7.993258 -2.143162 0
M  V30 54 H 3.470001 -6.763154 -2.033805 0
M  V30 END ATOM
M  V30 BEGIN BOND
M  V30 1 2 1 2
M  V30 2 1 2 3
M  V30 3 1 3 4
M  V30 4 1 4 5
M  V30 5 1 5 6
M  V30 6 1 6 7
M  V30 7 1 7 8
M  V30 8 1 8 9
M  V30 9 1 9 10
M  V30 10 1 10 11
M  V30 11 1 11 12
M  V30 12 2 12 13
M  V30 13 1 12 14
M  V30 14 1 14 15
M  V30 15 2 15 16
M  V30 16 1 16 17
M  V30 17 2 17 18
M  V30 18 1 18 19
M  V30 19 2 19 20
M  V30 20 1 10 21
M  V30 21 1 2 22
M  V30 22 1 22 23
M  V30 23 1 23 24
M  V30 24 2 24 25
M  V30 25 1 25 26
M  V30 26 2 26 27
M  V30 27 1 27 28
M  V30 28 1 8 4
M  V30 29 1 20 15
M  V30 30 1 28 24
M  V30 31 1 21 5
M  V30 32 1 3 29
M  V30 33 1 3 30
M  V30 34 1 5 31
M  V30 35 1 6 32
M  V30 36 1 6 33
M  V30 37 1 7 34
M  V30 38 1 7 35
M  V30 39 1 8 36
M  V30 40 1 9 37
M  V30 41 1 9 38
M  V30 42 1 10 39
M  V30 43 1 11 40
M  V30 44 1 14 41
M  V30 45 1 16 42
M  V30 46 1 17 43
M  V30 47 1 18 44
M  V30 48 1 19 45
M  V30 49 1 20 46
M  V30 50 1 21 47
M  V30 51 1 21 48
M  V30 52 1 22 49
M  V30 53 1 23 50
M  V30 54 1 23 51
M  V30 55 1 25 52
M  V30 56 1 26 53
M  V30 57 1 27 54
M  V30 END BOND
M  V30 END CTAB
M  END
>  <Dataset>  (298) 
ChEMBL_Kinases

>  <Ligand_Instance>  (298) 
nan

>  <PDB_ID>  (298) 
nan

>  <Standardized_SMILES>  (298) 
O=C(CN1C2CCC1CC(NC(=O)Nc1ccccc1)C2)NCc1ccco1

>  <Name>  (298) 
nan

>  <Pocket>  (298) 
nan

>  <ATP_Site>  (298) 
nan

>  <Peripheral>  (298) 
nan

>  <Num_H_Atoms_ProtBoundConf>  (298) 
nan

>  <Num_Resolved_Atoms>  (298) 
nan

>  <Num_Not_Resolved_Atoms>  (298) 
nan

$$$$
CHEMBL1486333
     RDKit          3D

  0  0  0  0  0  0  0  0  0  0999 V3000
M  V30 BEGIN CTAB
M  V30 COUNTS 45 48 0 0 0
M  V30 BEGIN ATOM
M  V30 1 C -1.086478 1.750156 1.216397 0
M  V30 2 N -0.400311 1.350246 2.448943 0
M  V30 3 C 0.419612 2.261059 3.045347 0
M  V30 4 C 0.893245 3.637492 2.773651 0
M  V30 5 N 2.249710 3.630633 2.252592 0
M  V30 6 C 3.224728 3.682007 3.245187 0
M  V30 7 O 3.158424 3.735346 4.485085 0
M  V30 8 S 4.848253 3.653267 2.273174 0
M  V30 9 C 3.973445 3.572941 0.620578 0
M  V30 10 C 4.514273 3.523615 -0.592228 0
M  V30 11 C 3.673112 3.469077 -1.679511 0
M  V30 12 C 2.351195 3.473328 -1.367183 0
M  V30 13 C 1.795163 3.524771 -0.112319 0
M  V30 14 C 2.626125 3.578084 0.977065 0
M  V30 15 N 0.893527 1.652687 4.123208 0
M  V30 16 N 0.391551 0.442894 4.178307 0
M  V30 17 C -0.429902 0.199137 3.146967 0
M  V30 18 S -1.484642 -1.094540 2.447093 0
M  V30 19 C -0.465656 -2.010773 1.277385 0
M  V30 20 C -1.157337 -3.076442 0.557912 0
M  V30 21 O -1.854853 -2.713880 -0.448974 0
M  V30 22 N -1.139118 -4.463596 0.849400 0
M  V30 23 C -1.796283 -5.520044 0.166982 0
M  V30 24 C -0.964823 -5.972110 -0.867037 0
M  V30 25 C -1.338399 -7.011925 -1.712251 0
M  V30 26 C -2.568658 -7.627227 -1.534694 0
M  V30 27 C -3.368508 -7.165123 -0.512459 0
M  V30 28 Cl -4.935086 -7.883210 -0.214247 0
M  V30 29 C -3.013672 -6.139321 0.329994 0
M  V30 30 H -2.096765 1.244178 1.221982 0
M  V30 31 H -0.558079 1.386794 0.336382 0
M  V30 32 H -1.287287 2.816077 1.180201 0
M  V30 33 H 0.196113 4.125254 2.051522 0
M  V30 34 H 0.834527 4.247391 3.686403 0
M  V30 35 H 5.594457 3.528366 -0.644524 0
M  V30 36 H 4.088978 3.428938 -2.668180 0
M  V30 37 H 1.658427 3.432652 -2.229159 0
M  V30 38 H 0.730179 3.529975 -0.049091 0
M  V30 39 H 0.404432 -2.412956 1.877683 0
M  V30 40 H 0.007682 -1.251136 0.609170 0
M  V30 41 H -0.585363 -4.760344 1.655658 0
M  V30 42 H 0.020934 -5.606364 -1.143944 0
M  V30 43 H -0.749724 -7.403290 -2.518116 0
M  V30 44 H -2.885081 -8.431965 -2.170068 0
M  V30 45 H -3.553236 -5.705124 1.149860 0
M  V30 END ATOM
M  V30 BEGIN BOND
M  V30 1 1 1 2
M  V30 2 1 2 3
M  V30 3 1 3 4
M  V30 4 1 4 5
M  V30 5 1 5 6
M  V30 6 2 6 7
M  V30 7 1 6 8
M  V30 8 1 8 9
M  V30 9 2 9 10
M  V30 10 1 10 11
M  V30 11 2 11 12
M  V30 12 1 12 13
M  V30 13 2 13 14
M  V30 14 2 3 15
M  V30 15 1 15 16
M  V30 16 2 16 17
M  V30 17 1 17 18
M  V30 18 1 18 19
M  V30 19 1 19 20
M  V30 20 2 20 21
M  V30 21 1 20 22
M  V30 22 1 22 23
M  V30 23 2 23 24
M  V30 24 1 24 25
M  V30 25 2 25 26
M  V30 26 1 26 27
M  V30 27 1 27 28
M  V30 28 2 27 29
M  V30 29 1 17 2
M  V30 30 1 29 23
M  V30 31 1 14 5
M  V30 32 1 14 9
M  V30 33 1 1 30
M  V30 34 1 1 31
M  V30 35 1 1 32
M  V30 36 1 4 33
M  V30 37 1 4 34
M  V30 38 1 10 35
M  V30 39 1 11 36
M  V30 40 1 12 37
M  V30 41 1 13 38
M  V30 42 1 19 39
M  V30 43 1 19 40
M  V30 44 1 22 41
M  V30 45 1 24 42
M  V30 46 1 25 43
M  V30 47 1 26 44
M  V30 48 1 29 45
M  V30 END BOND
M  V30 END CTAB
M  END
>  <Dataset>  (299) 
ChEMBL_Kinases

>  <Ligand_Instance>  (299) 
nan

>  <PDB_ID>  (299) 
nan

>  <Standardized_SMILES>  (299) 
Cn1c(Cn2c(=O)sc3ccccc32)nnc1SCC(=O)Nc1cccc(Cl)c1

>  <Name>  (299) 
nan

>  <Pocket>  (299) 
nan

>  <ATP_Site>  (299) 
nan

>  <Peripheral>  (299) 
nan

>  <Num_H_Atoms_ProtBoundConf>  (299) 
nan

>  <Num_Resolved_Atoms>  (299) 
nan

>  <Num_Not_Resolved_Atoms>  (299) 
nan

$$$$
CHEMBL1486191
     RDKit          3D

  0  0  0  0  0  0  0  0  0  0999 V3000
M  V30 BEGIN CTAB
M  V30 COUNTS 37 40 0 0 0
M  V30 BEGIN ATOM
M  V30 1 C 0.225236 -4.507709 4.511475 0
M  V30 2 O 1.583052 -4.180764 4.349379 0
M  V30 3 C 2.051738 -3.333972 3.359442 0
M  V30 4 C 3.363542 -2.970997 3.142899 0
M  V30 5 C 3.809588 -2.136214 2.163999 0
M  V30 6 C 2.904170 -1.572835 1.277694 0
M  V30 7 N 3.170572 -0.752283 0.283295 0
M  V30 8 C 2.403393 -0.269534 -0.474552 0
M  V30 9 N 2.618112 0.627425 -1.575867 0
M  V30 10 N 1.792414 1.547860 -1.865250 0
M  V30 11 C 0.599871 1.747953 -1.113930 0
M  V30 12 C 0.501337 2.470943 0.063142 0
M  V30 13 C -0.695672 2.613259 0.724949 0
M  V30 14 C -1.851088 2.032612 0.230524 0
M  V30 15 O -3.092452 2.142537 0.857401 0
M  V30 16 C -1.758492 1.310514 -0.942967 0
M  V30 17 C -2.922279 0.727017 -1.438839 0
M  V30 18 C -2.857086 -0.004151 -2.616659 0
M  V30 19 C -1.670199 -0.160562 -3.297016 0
M  V30 20 C -0.517453 0.435671 -2.777004 0
M  V30 21 C -0.561333 1.163092 -1.612890 0
M  V30 22 S 0.757328 -1.022875 0.176248 0
M  V30 23 C 1.587404 -1.919101 1.472048 0
M  V30 24 C 1.141513 -2.779649 2.483765 0
M  V30 25 H -0.248975 -3.723921 5.138607 0
M  V30 26 H -0.328188 -4.702354 3.591647 0
M  V30 27 H 0.191900 -5.454765 5.103706 0
M  V30 28 H 4.073128 -3.425772 3.854368 0
M  V30 29 H 4.897170 -1.961683 2.145336 0
M  V30 30 H 1.410792 2.904081 0.414599 0
M  V30 31 H -0.776823 3.172773 1.637664 0
M  V30 32 H -3.320719 3.092391 1.185611 0
M  V30 33 H -3.898587 0.807038 -0.955962 0
M  V30 34 H -3.756998 -0.463304 -3.012676 0
M  V30 35 H -1.688724 -0.737945 -4.201538 0
M  V30 36 H 0.387428 0.283966 -3.346939 0
M  V30 37 H 0.073027 -2.955166 2.507263 0
M  V30 END ATOM
M  V30 BEGIN BOND
M  V30 1 1 1 2
M  V30 2 1 2 3
M  V30 3 2 3 4
M  V30 4 1 4 5
M  V30 5 2 5 6
M  V30 6 1 6 7
M  V30 7 2 7 8
M  V30 8 1 8 9
M  V30 9 2 9 10 CFG=2
M  V30 10 1 10 11
M  V30 11 2 11 12
M  V30 12 1 12 13
M  V30 13 2 13 14
M  V30 14 1 14 15
M  V30 15 1 14 16
M  V30 16 2 16 17
M  V30 17 1 17 18
M  V30 18 2 18 19
M  V30 19 1 19 20
M  V30 20 2 20 21
M  V30 21 1 8 22
M  V30 22 1 22 23
M  V30 23 2 23 24
M  V30 24 1 24 3
M  V30 25 1 23 6
M  V30 26 1 21 11
M  V30 27 1 21 16
M  V30 28 1 1 25
M  V30 29 1 1 26
M  V30 30 1 1 27
M  V30 31 1 4 28
M  V30 32 1 5 29
M  V30 33 1 12 30
M  V30 34 1 13 31
M  V30 35 1 15 32
M  V30 36 1 17 33
M  V30 37 1 18 34
M  V30 38 1 19 35
M  V30 39 1 20 36
M  V30 40 1 24 37
M  V30 END BOND
M  V30 END CTAB
M  END
>  <Dataset>  (300) 
ChEMBL_Kinases

>  <Ligand_Instance>  (300) 
nan

>  <PDB_ID>  (300) 
nan

>  <Standardized_SMILES>  (300) 
COc1ccc2nc(N=Nc3ccc(O)c4ccccc34)sc2c1

>  <Name>  (300) 
nan

>  <Pocket>  (300) 
nan

>  <ATP_Site>  (300) 
nan

>  <Peripheral>  (300) 
nan

>  <Num_H_Atoms_ProtBoundConf>  (300) 
nan

>  <Num_Resolved_Atoms>  (300) 
nan

>  <Num_Not_Resolved_Atoms>  (300) 
nan

$$$$
CHEMBL1486113
     RDKit          3D

  0  0  0  0  0  0  0  0  0  0999 V3000
M  V30 BEGIN CTAB
M  V30 COUNTS 55 59 0 0 0
M  V30 BEGIN ATOM
M  V30 1 C -1.005315 -1.475758 3.209087 0
M  V30 2 N 0.194305 -1.321108 2.376349 0
M  V30 3 C 1.434175 -1.117243 3.035338 0
M  V30 4 O 1.600155 -1.424125 4.245652 0
M  V30 5 C 2.514887 -0.534996 2.251322 0
M  V30 6 C 3.735105 -0.321478 2.856729 0
M  V30 7 C 4.751301 0.230212 2.105526 0
M  V30 8 C 4.564907 0.569734 0.763487 0
M  V30 9 C 3.322988 0.341063 0.185435 0
M  V30 10 C 2.296737 -0.210794 0.926308 0
M  V30 11 C 0.997416 -0.419165 0.217837 0
M  V30 12 C 0.351679 0.868274 -0.119145 0
M  V30 13 O 0.101371 1.178675 -1.312453 0
M  V30 14 N -0.016990 1.813344 0.871614 0
M  V30 15 C -0.649207 3.102869 0.737328 0
M  V30 16 C -2.006471 3.077968 0.114442 0
M  V30 17 C -3.014558 2.324812 0.956843 0
M  V30 18 C -3.498063 1.239493 0.008921 0
M  V30 19 C -3.286446 1.942495 -1.337303 0
M  V30 20 O -2.081746 2.579553 -1.154840 0
M  V30 21 C 0.087798 -1.378528 0.941624 0
M  V30 22 C 0.315254 -2.784674 0.471555 0
M  V30 23 C 1.197460 -3.729996 0.966230 0
M  V30 24 N 1.089768 -4.861258 0.264945 0
M  V30 25 C 0.159193 -4.728020 -0.700981 0
M  V30 26 C -0.376838 -5.533963 -1.711152 0
M  V30 27 C -1.359395 -5.067296 -2.563446 0
M  V30 28 C -1.845879 -3.770517 -2.437555 0
M  V30 29 C -1.317181 -2.985601 -1.446345 0
M  V30 30 C -0.326191 -3.441769 -0.579280 0
M  V30 31 H -0.853100 -2.256216 3.981204 0
M  V30 32 H -1.879731 -1.664929 2.581707 0
M  V30 33 H -1.139410 -0.491790 3.723503 0
M  V30 34 H 3.844279 -0.596135 3.897335 0
M  V30 35 H 5.717019 0.398786 2.586026 0
M  V30 36 H 5.415219 1.004296 0.225788 0
M  V30 37 H 3.201205 0.611029 -0.853018 0
M  V30 38 H 1.271010 -0.917671 -0.734184 0
M  V30 39 H 0.223781 1.490361 1.857526 0
M  V30 40 H -0.679101 3.623668 1.714628 0
M  V30 41 H 0.033203 3.683537 0.042385 0
M  V30 42 H -2.379400 4.134016 0.078082 0
M  V30 43 H -2.579746 1.876710 1.869042 0
M  V30 44 H -3.908765 2.925107 1.210627 0
M  V30 45 H -4.575828 1.031432 0.131167 0
M  V30 46 H -2.847496 0.352683 0.001676 0
M  V30 47 H -3.256695 1.130190 -2.078586 0
M  V30 48 H -4.113082 2.618224 -1.584907 0
M  V30 49 H -0.946538 -1.096081 0.671532 0
M  V30 50 H 1.870995 -3.557896 1.803414 0
M  V30 51 H 1.634489 -5.761453 0.407679 0
M  V30 52 H 0.008056 -6.545980 -1.803568 0
M  V30 53 H -1.750692 -5.721308 -3.334626 0
M  V30 54 H -2.607991 -3.409258 -3.098987 0
M  V30 55 H -1.686816 -1.964460 -1.332268 0
M  V30 END ATOM
M  V30 BEGIN BOND
M  V30 1 1 1 2
M  V30 2 1 2 3
M  V30 3 2 3 4
M  V30 4 1 3 5
M  V30 5 2 5 6
M  V30 6 1 6 7
M  V30 7 2 7 8
M  V30 8 1 8 9
M  V30 9 2 9 10
M  V30 10 1 10 11
M  V30 11 1 11 12
M  V30 12 2 12 13
M  V30 13 1 12 14
M  V30 14 1 14 15
M  V30 15 1 15 16
M  V30 16 1 16 17
M  V30 17 1 17 18
M  V30 18 1 18 19
M  V30 19 1 19 20
M  V30 20 1 11 21
M  V30 21 1 21 22
M  V30 22 2 22 23
M  V30 23 1 23 24
M  V30 24 1 24 25
M  V30 25 2 25 26
M  V30 26 1 26 27
M  V30 27 2 27 28
M  V30 28 1 28 29
M  V30 29 2 29 30
M  V30 30 1 21 2
M  V30 31 1 30 22
M  V30 32 1 10 5
M  V30 33 1 20 16
M  V30 34 1 30 25
M  V30 35 1 1 31
M  V30 36 1 1 32
M  V30 37 1 1 33
M  V30 38 1 6 34
M  V30 39 1 7 35
M  V30 40 1 8 36
M  V30 41 1 9 37
M  V30 42 1 11 38
M  V30 43 1 14 39
M  V30 44 1 15 40
M  V30 45 1 15 41
M  V30 46 1 16 42
M  V30 47 1 17 43
M  V30 48 1 17 44
M  V30 49 1 18 45
M  V30 50 1 18 46
M  V30 51 1 19 47
M  V30 52 1 19 48
M  V30 53 1 21 49
M  V30 54 1 23 50
M  V30 55 1 24 51
M  V30 56 1 26 52
M  V30 57 1 27 53
M  V30 58 1 28 54
M  V30 59 1 29 55
M  V30 END BOND
M  V30 END CTAB
M  END
>  <Dataset>  (301) 
ChEMBL_Kinases

>  <Ligand_Instance>  (301) 
nan

>  <PDB_ID>  (301) 
nan

>  <Standardized_SMILES>  (301) 
CN1C(=O)c2ccccc2C(C(=O)NCC2CCCO2)C1c1c[nH]c2ccccc12

>  <Name>  (301) 
nan

>  <Pocket>  (301) 
nan

>  <ATP_Site>  (301) 
nan

>  <Peripheral>  (301) 
nan

>  <Num_H_Atoms_ProtBoundConf>  (301) 
nan

>  <Num_Resolved_Atoms>  (301) 
nan

>  <Num_Not_Resolved_Atoms>  (301) 
nan

$$$$
CHEMBL1486096
     RDKit          3D

  0  0  0  0  0  0  0  0  0  0999 V3000
M  V30 BEGIN CTAB
M  V30 COUNTS 48 50 0 0 0
M  V30 BEGIN ATOM
M  V30 1 C 3.035253 -5.892596 0.819898 0
M  V30 2 O 3.790530 -5.217096 -0.146045 0
M  V30 3 C 2.906036 -4.633280 -1.035178 0
M  V30 4 C 3.626716 -3.870007 -2.131368 0
M  V30 5 C 4.476401 -2.773323 -1.579981 0
M  V30 6 N 3.716294 -1.795007 -0.831109 0
M  V30 7 C 2.663506 -1.019205 -1.383151 0
M  V30 8 O 2.401443 -1.224652 -2.615902 0
M  V30 9 C 1.909596 -0.036329 -0.604121 0
M  V30 10 C 2.109087 0.263350 0.728345 0
M  V30 11 C 1.338624 1.211343 1.369360 0
M  V30 12 C 0.326402 1.908307 0.703845 0
M  V30 13 C -0.480548 2.922134 1.432464 0
M  V30 14 N -1.665137 2.360077 2.054970 0
M  V30 15 C -1.644260 1.878373 3.309461 0
M  V30 16 O -0.606086 1.892623 3.994899 0
M  V30 17 N -2.725814 1.341202 3.939951 0
M  V30 18 C -3.894294 1.283077 3.276854 0
M  V30 19 C -5.048519 0.757503 3.826962 0
M  V30 20 C -6.250689 0.695787 3.149715 0
M  V30 21 C -6.280747 1.195085 1.843571 0
M  V30 22 C -5.140596 1.722822 1.278104 0
M  V30 23 C -3.941357 1.771138 1.987808 0
M  V30 24 C -2.816529 2.319607 1.358343 0
M  V30 25 O -2.943932 2.739228 0.189666 0
M  V30 26 C 0.119164 1.615843 -0.628570 0
M  V30 27 C 0.905429 0.662982 -1.242661 0
M  V30 28 H 3.696690 -6.375622 1.552994 0
M  V30 29 H 2.298052 -5.191661 1.269789 0
M  V30 30 H 2.408071 -6.697692 0.348834 0
M  V30 31 H 2.200667 -3.927209 -0.557864 0
M  V30 32 H 2.290573 -5.453333 -1.452338 0
M  V30 33 H 4.247405 -4.623806 -2.657716 0
M  V30 34 H 2.910664 -3.484551 -2.876077 0
M  V30 35 H 5.255690 -3.216577 -0.960874 0
M  V30 36 H 4.958421 -2.273381 -2.449805 0
M  V30 37 H 3.946042 -1.641709 0.174554 0
M  V30 38 H 2.882251 -0.269140 1.236324 0
M  V30 39 H 1.567771 1.371673 2.394179 0
M  V30 40 H 0.173773 3.425347 2.173756 0
M  V30 41 H -0.789164 3.694839 0.675045 0
M  V30 42 H -2.673349 0.975624 4.917435 0
M  V30 43 H -4.983910 0.374712 4.857238 0
M  V30 44 H -7.103397 0.266000 3.662957 0
M  V30 45 H -7.241256 1.127652 1.349113 0
M  V30 46 H -5.246716 2.088322 0.263481 0
M  V30 47 H -0.647532 2.123015 -1.190100 0
M  V30 48 H 0.707303 0.461298 -2.302331 0
M  V30 END ATOM
M  V30 BEGIN BOND
M  V30 1 1 1 2
M  V30 2 1 2 3
M  V30 3 1 3 4
M  V30 4 1 4 5
M  V30 5 1 5 6
M  V30 6 1 6 7
M  V30 7 2 7 8
M  V30 8 1 7 9
M  V30 9 2 9 10
M  V30 10 1 10 11
M  V30 11 2 11 12
M  V30 12 1 12 13
M  V30 13 1 13 14
M  V30 14 1 14 15
M  V30 15 2 15 16
M  V30 16 1 15 17
M  V30 17 1 17 18
M  V30 18 2 18 19
M  V30 19 1 19 20
M  V30 20 2 20 21
M  V30 21 1 21 22
M  V30 22 2 22 23
M  V30 23 1 23 24
M  V30 24 2 24 25
M  V30 25 1 12 26
M  V30 26 2 26 27
M  V30 27 1 27 9
M  V30 28 1 24 14
M  V30 29 1 23 18
M  V30 30 1 1 28
M  V30 31 1 1 29
M  V30 32 1 1 30
M  V30 33 1 3 31
M  V30 34 1 3 32
M  V30 35 1 4 33
M  V30 36 1 4 34
M  V30 37 1 5 35
M  V30 38 1 5 36
M  V30 39 1 6 37
M  V30 40 1 10 38
M  V30 41 1 11 39
M  V30 42 1 13 40
M  V30 43 1 13 41
M  V30 44 1 17 42
M  V30 45 1 19 43
M  V30 46 1 20 44
M  V30 47 1 21 45
M  V30 48 1 22 46
M  V30 49 1 26 47
M  V30 50 1 27 48
M  V30 END BOND
M  V30 END CTAB
M  END
>  <Dataset>  (302) 
ChEMBL_Kinases

>  <Ligand_Instance>  (302) 
nan

>  <PDB_ID>  (302) 
nan

>  <Standardized_SMILES>  (302) 
COCCCNC(=O)c1ccc(Cn2c(=O)[nH]c3ccccc3c2=O)cc1

>  <Name>  (302) 
nan

>  <Pocket>  (302) 
nan

>  <ATP_Site>  (302) 
nan

>  <Peripheral>  (302) 
nan

>  <Num_H_Atoms_ProtBoundConf>  (302) 
nan

>  <Num_Resolved_Atoms>  (302) 
nan

>  <Num_Not_Resolved_Atoms>  (302) 
nan

$$$$
CHEMBL1486074
     RDKit          3D

  0  0  0  0  0  0  0  0  0  0999 V3000
M  V30 BEGIN CTAB
M  V30 COUNTS 44 46 0 0 0
M  V30 BEGIN ATOM
M  V30 1 C -0.651366 -2.774272 1.265815 0
M  V30 2 C 0.020163 -2.590484 2.597233 0
M  V30 3 N 1.043639 -1.535076 2.534696 0
M  V30 4 C 2.430499 -1.775938 2.202972 0
M  V30 5 C 2.724838 -1.694756 0.772484 0
M  V30 6 C 2.696829 -2.753513 -0.117168 0
M  V30 7 C 2.976704 -2.596418 -1.460257 0
M  V30 8 C 3.300593 -1.347216 -1.966897 0
M  V30 9 C 3.341724 -0.245326 -1.104808 0
M  V30 10 C 3.048435 -0.487189 0.230239 0
M  V30 11 C 0.431035 -0.267195 2.845844 0
M  V30 12 O -0.802275 -0.348268 3.076830 0
M  V30 13 C 0.899091 1.150652 2.967258 0
M  V30 14 C 0.042831 2.072389 2.112565 0
M  V30 15 O 0.190267 1.611966 0.785241 0
M  V30 16 C -0.818571 1.231946 -0.056310 0
M  V30 17 C -0.479001 0.818123 -1.337366 0
M  V30 18 C -1.483116 0.422670 -2.226322 0
M  V30 19 C -2.803301 0.458075 -1.789569 0
M  V30 20 C -3.162024 0.866079 -0.520845 0
M  V30 21 C -2.147778 1.249666 0.331684 0
M  V30 22 N -2.462992 1.672687 1.634965 0
M  V30 23 C -1.378763 2.059999 2.484345 0
M  V30 24 O -1.705022 2.422173 3.660259 0
M  V30 25 H -1.666584 -3.204461 1.459830 0
M  V30 26 H -0.846832 -1.808316 0.744759 0
M  V30 27 H -0.086050 -3.439299 0.611590 0
M  V30 28 H 0.633665 -3.528369 2.759686 0
M  V30 29 H -0.643426 -2.499371 3.454348 0
M  V30 30 H 3.045350 -1.050971 2.769426 0
M  V30 31 H 2.663101 -2.798838 2.554808 0
M  V30 32 H 2.440477 -3.744377 0.277668 0
M  V30 33 H 2.942442 -3.461109 -2.111623 0
M  V30 34 H 3.503309 -1.321448 -3.042501 0
M  V30 35 H 3.593705 0.680000 -1.559622 0
M  V30 36 H 3.103106 0.422741 0.827544 0
M  V30 37 H 1.980843 1.256735 2.778661 0
M  V30 38 H 0.737011 1.531867 4.023091 0
M  V30 39 H 0.469297 3.101511 2.235767 0
M  V30 40 H 0.562173 0.794954 -1.677235 0
M  V30 41 H -1.156493 0.112098 -3.203442 0
M  V30 42 H -3.483272 0.124520 -2.580866 0
M  V30 43 H -4.201880 0.856751 -0.283469 0
M  V30 44 H -3.444497 1.683788 1.916280 0
M  V30 END ATOM
M  V30 BEGIN BOND
M  V30 1 1 1 2
M  V30 2 1 2 3
M  V30 3 1 3 4
M  V30 4 1 4 5
M  V30 5 2 5 6
M  V30 6 1 6 7
M  V30 7 2 7 8
M  V30 8 1 8 9
M  V30 9 2 9 10
M  V30 10 1 3 11
M  V30 11 2 11 12
M  V30 12 1 11 13
M  V30 13 1 13 14
M  V30 14 1 14 15
M  V30 15 1 15 16
M  V30 16 2 16 17
M  V30 17 1 17 18
M  V30 18 2 18 19
M  V30 19 1 19 20
M  V30 20 2 20 21
M  V30 21 1 21 22
M  V30 22 1 22 23
M  V30 23 2 23 24
M  V30 24 1 10 5
M  V30 25 1 23 14
M  V30 26 1 21 16
M  V30 27 1 1 25
M  V30 28 1 1 26
M  V30 29 1 1 27
M  V30 30 1 2 28
M  V30 31 1 2 29
M  V30 32 1 4 30
M  V30 33 1 4 31
M  V30 34 1 6 32
M  V30 35 1 7 33
M  V30 36 1 8 34
M  V30 37 1 9 35
M  V30 38 1 10 36
M  V30 39 1 13 37
M  V30 40 1 13 38
M  V30 41 1 14 39
M  V30 42 1 17 40
M  V30 43 1 18 41
M  V30 44 1 19 42
M  V30 45 1 20 43
M  V30 46 1 22 44
M  V30 END BOND
M  V30 END CTAB
M  END
>  <Dataset>  (303) 
ChEMBL_Kinases

>  <Ligand_Instance>  (303) 
nan

>  <PDB_ID>  (303) 
nan

>  <Standardized_SMILES>  (303) 
CCN(Cc1ccccc1)C(=O)CC1Oc2ccccc2NC1=O

>  <Name>  (303) 
nan

>  <Pocket>  (303) 
nan

>  <ATP_Site>  (303) 
nan

>  <Peripheral>  (303) 
nan

>  <Num_H_Atoms_ProtBoundConf>  (303) 
nan

>  <Num_Resolved_Atoms>  (303) 
nan

>  <Num_Not_Resolved_Atoms>  (303) 
nan

$$$$
CHEMBL1485968
     RDKit          3D

  0  0  0  0  0  0  0  0  0  0999 V3000
M  V30 BEGIN CTAB
M  V30 COUNTS 53 56 0 0 0
M  V30 BEGIN ATOM
M  V30 1 C -3.391498 1.445303 3.762284 0
M  V30 2 C -2.858170 0.033451 3.685890 0
M  V30 3 O -1.731603 0.015196 2.796536 0
M  V30 4 C -1.019252 -1.112981 2.508246 0
M  V30 5 O -1.605545 -2.009588 3.193488 0
M  V30 6 C 0.128170 -1.120621 1.599771 0
M  V30 7 C 0.742274 -2.469443 1.444614 0
M  V30 8 N 2.037847 -2.306093 0.780779 0
M  V30 9 C 2.130684 -1.271822 -0.191926 0
M  V30 10 O 3.178767 -1.327418 -0.907143 0
M  V30 11 N 1.134416 -0.245340 -0.364100 0
M  V30 12 C 1.639492 0.906888 -1.108900 0
M  V30 13 C 2.240102 1.937430 -0.224130 0
M  V30 14 C 1.550436 2.996248 0.341896 0
M  V30 15 C 2.149730 3.927794 1.157340 0
M  V30 16 C 3.479336 3.846026 1.449537 0
M  V30 17 C 4.220108 2.809064 0.912354 0
M  V30 18 C 3.584883 1.895648 0.100266 0
M  V30 19 C -0.153187 -0.555773 0.225427 0
M  V30 20 C -1.063694 0.634948 0.273639 0
M  V30 21 O -0.760628 -1.492221 -0.642785 0
M  V30 22 C -0.815800 -2.845432 -0.470646 0
M  V30 23 C -1.590847 -3.651037 -1.312572 0
M  V30 24 O -2.284066 -2.981140 -2.314560 0
M  V30 25 C -3.087383 -3.690407 -3.209641 0
M  V30 26 C -1.575640 -5.006313 -1.050555 0
M  V30 27 C -0.837466 -5.520063 -0.019291 0
M  V30 28 C -0.065815 -4.723414 0.819957 0
M  V30 29 C -0.069494 -3.356507 0.570521 0
M  V30 30 H -3.754484 1.653491 4.769063 0
M  V30 31 H -4.135070 1.656562 2.966833 0
M  V30 32 H -2.508144 2.124390 3.584306 0
M  V30 33 H -2.514168 -0.228932 4.729078 0
M  V30 34 H -3.610830 -0.721431 3.435048 0
M  V30 35 H 0.936147 -0.457710 2.027290 0
M  V30 36 H 0.962082 -2.959240 2.419393 0
M  V30 37 H 2.845432 -2.925451 1.019507 0
M  V30 38 H 2.319332 0.592798 -1.911693 0
M  V30 39 H 0.805378 1.449369 -1.642941 0
M  V30 40 H 0.496689 3.080557 0.123566 0
M  V30 41 H 1.525292 4.717523 1.550557 0
M  V30 42 H 3.890143 4.613824 2.099694 0
M  V30 43 H 5.269646 2.762674 1.155886 0
M  V30 44 H 4.245662 1.125158 -0.269804 0
M  V30 45 H -0.831845 1.334241 1.089409 0
M  V30 46 H -2.134143 0.294373 0.307167 0
M  V30 47 H -0.973342 1.173559 -0.690185 0
M  V30 48 H -3.644984 -4.541089 -2.761289 0
M  V30 49 H -3.852127 -3.026780 -3.675676 0
M  V30 50 H -2.468137 -4.104316 -4.057608 0
M  V30 51 H -2.181118 -5.599072 -1.714918 0
M  V30 52 H -0.898118 -6.597703 0.096476 0
M  V30 53 H 0.490618 -5.193162 1.612150 0
M  V30 END ATOM
M  V30 BEGIN BOND
M  V30 1 1 1 2
M  V30 2 1 2 3
M  V30 3 1 3 4
M  V30 4 2 4 5
M  V30 5 1 4 6
M  V30 6 1 6 7
M  V30 7 1 7 8
M  V30 8 1 8 9
M  V30 9 2 9 10
M  V30 10 1 9 11
M  V30 11 1 11 12
M  V30 12 1 12 13
M  V30 13 2 13 14
M  V30 14 1 14 15
M  V30 15 2 15 16
M  V30 16 1 16 17
M  V30 17 2 17 18
M  V30 18 1 11 19
M  V30 19 1 19 20
M  V30 20 1 19 21
M  V30 21 1 21 22
M  V30 22 2 22 23
M  V30 23 1 23 24
M  V30 24 1 24 25
M  V30 25 1 23 26
M  V30 26 2 26 27
M  V30 27 1 27 28
M  V30 28 2 28 29
M  V30 29 1 19 6
M  V30 30 1 29 22
M  V30 31 1 29 7
M  V30 32 1 18 13
M  V30 33 1 1 30
M  V30 34 1 1 31
M  V30 35 1 1 32
M  V30 36 1 2 33
M  V30 37 1 2 34
M  V30 38 1 6 35
M  V30 39 1 7 36
M  V30 40 1 8 37
M  V30 41 1 12 38
M  V30 42 1 12 39
M  V30 43 1 14 40
M  V30 44 1 15 41
M  V30 45 1 16 42
M  V30 46 1 17 43
M  V30 47 1 18 44
M  V30 48 1 20 45
M  V30 49 1 20 46
M  V30 50 1 20 47
M  V30 51 1 25 48
M  V30 52 1 25 49
M  V30 53 1 25 50
M  V30 54 1 26 51
M  V30 55 1 27 52
M  V30 56 1 28 53
M  V30 END BOND
M  V30 END CTAB
M  END
>  <Dataset>  (304) 
ChEMBL_Kinases

>  <Ligand_Instance>  (304) 
nan

>  <PDB_ID>  (304) 
nan

>  <Standardized_SMILES>  (304) 
CCOC(=O)C1C2NC(=O)N(Cc3ccccc3)C1(C)Oc1c(OC)cccc12

>  <Name>  (304) 
nan

>  <Pocket>  (304) 
nan

>  <ATP_Site>  (304) 
nan

>  <Peripheral>  (304) 
nan

>  <Num_H_Atoms_ProtBoundConf>  (304) 
nan

>  <Num_Resolved_Atoms>  (304) 
nan

>  <Num_Not_Resolved_Atoms>  (304) 
nan

$$$$
CHEMBL1485898
     RDKit          3D

  0  0  0  0  0  0  0  0  0  0999 V3000
M  V30 BEGIN CTAB
M  V30 COUNTS 63 66 0 0 0
M  V30 BEGIN ATOM
M  V30 1 C 5.031928 -3.063557 5.793970 0
M  V30 2 C 4.919354 -1.849981 4.938989 0
M  V30 3 C 5.865605 -1.741004 3.917365 0
M  V30 4 C 5.768680 -0.604608 3.108030 0
M  V30 5 C 4.787171 0.365228 3.305449 0
M  V30 6 C 4.826326 1.487980 2.371045 0
M  V30 7 N 5.382537 2.693942 2.147812 0
M  V30 8 O 4.930090 3.188566 1.025177 0
M  V30 9 C 4.077081 2.361521 0.464520 0
M  V30 10 C 3.310981 2.510972 -0.825912 0
M  V30 11 C 2.456551 1.252990 -1.011036 0
M  V30 12 C 1.510179 1.117443 0.149256 0
M  V30 13 O 1.400965 1.928115 1.131847 0
M  V30 14 N 0.617699 0.017046 0.245878 0
M  V30 15 C -0.173669 0.150244 1.472010 0
M  V30 16 C -1.117195 -0.983224 1.622888 0
M  V30 17 N -2.083004 -1.172478 0.598220 0
M  V30 18 C -3.094321 -0.169542 0.499446 0
M  V30 19 C -3.890935 -0.437559 -0.778130 0
M  V30 20 N -4.349337 -1.777968 -0.850063 0
M  V30 21 C -4.100924 -2.421988 -2.087497 0
M  V30 22 C -4.735519 -1.831538 -3.276187 0
M  V30 23 C -6.036777 -2.276947 -3.538380 0
M  V30 24 C -6.727216 -1.800833 -4.631000 0
M  V30 25 C -6.217009 -0.883130 -5.522692 0
M  V30 26 C -4.925034 -0.453117 -5.246229 0
M  V30 27 C -4.215830 -0.909830 -4.167082 0
M  V30 28 C -4.053556 -2.625900 0.249437 0
M  V30 29 C -2.679911 -2.479861 0.803365 0
M  V30 30 N 4.011154 1.291063 1.310406 0
M  V30 31 C 3.860138 0.213577 4.342146 0
M  V30 32 C 3.938510 -0.905113 5.155301 0
M  V30 33 H 4.057247 -3.166856 6.329143 0
M  V30 34 H 5.126614 -3.993163 5.170476 0
M  V30 35 H 5.823499 -2.993628 6.551100 0
M  V30 36 H 6.625448 -2.488416 3.761614 0
M  V30 37 H 6.510482 -0.537716 2.321459 0
M  V30 38 H 3.982813 2.669444 -1.667395 0
M  V30 39 H 2.665624 3.383600 -0.707898 0
M  V30 40 H 3.113678 0.356027 -0.973702 0
M  V30 41 H 1.943449 1.261954 -1.981346 0
M  V30 42 H 0.595045 -0.736079 -0.497748 0
M  V30 43 H 0.556234 0.146400 2.307434 0
M  V30 44 H -0.641589 1.148317 1.488005 0
M  V30 45 H -0.497030 -1.926969 1.656210 0
M  V30 46 H -1.588128 -0.947286 2.635775 0
M  V30 47 H -3.822163 -0.185285 1.326301 0
M  V30 48 H -2.621287 0.822992 0.355738 0
M  V30 49 H -3.371025 -0.044180 -1.660320 0
M  V30 50 H -4.817821 0.199887 -0.636910 0
M  V30 51 H -2.984121 -2.550922 -2.238513 0
M  V30 52 H -4.448746 -3.497366 -1.996726 0
M  V30 53 H -6.530391 -3.004572 -2.887774 0
M  V30 54 H -7.737547 -2.178516 -4.792944 0
M  V30 55 H -6.752375 -0.510212 -6.377069 0
M  V30 56 H -4.470350 0.269465 -5.916210 0
M  V30 57 H -3.211541 -0.574150 -3.961393 0
M  V30 58 H -4.303948 -3.667646 -0.045769 0
M  V30 59 H -4.775060 -2.386123 1.073485 0
M  V30 60 H -2.712039 -2.735051 1.901943 0
M  V30 61 H -2.005710 -3.245215 0.367276 0
M  V30 62 H 3.124595 1.000965 4.442210 0
M  V30 63 H 3.215963 -1.012779 5.955495 0
M  V30 END ATOM
M  V30 BEGIN BOND
M  V30 1 1 1 2
M  V30 2 2 2 3
M  V30 3 1 3 4
M  V30 4 2 4 5
M  V30 5 1 5 6
M  V30 6 2 6 7
M  V30 7 1 7 8
M  V30 8 1 8 9
M  V30 9 1 9 10
M  V30 10 1 10 11
M  V30 11 1 11 12
M  V30 12 2 12 13
M  V30 13 1 12 14
M  V30 14 1 14 15
M  V30 15 1 15 16
M  V30 16 1 16 17
M  V30 17 1 17 18
M  V30 18 1 18 19
M  V30 19 1 19 20
M  V30 20 1 20 21
M  V30 21 1 21 22
M  V30 22 2 22 23
M  V30 23 1 23 24
M  V30 24 2 24 25
M  V30 25 1 25 26
M  V30 26 2 26 27
M  V30 27 1 20 28
M  V30 28 1 28 29
M  V30 29 2 9 30
M  V30 30 1 5 31
M  V30 31 2 31 32
M  V30 32 1 32 2
M  V30 33 1 30 6
M  V30 34 1 29 17
M  V30 35 1 27 22
M  V30 36 1 1 33
M  V30 37 1 1 34
M  V30 38 1 1 35
M  V30 39 1 3 36
M  V30 40 1 4 37
M  V30 41 1 10 38
M  V30 42 1 10 39
M  V30 43 1 11 40
M  V30 44 1 11 41
M  V30 45 1 14 42
M  V30 46 1 15 43
M  V30 47 1 15 44
M  V30 48 1 16 45
M  V30 49 1 16 46
M  V30 50 1 18 47
M  V30 51 1 18 48
M  V30 52 1 19 49
M  V30 53 1 19 50
M  V30 54 1 21 51
M  V30 55 1 21 52
M  V30 56 1 23 53
M  V30 57 1 24 54
M  V30 58 1 25 55
M  V30 59 1 26 56
M  V30 60 1 27 57
M  V30 61 1 28 58
M  V30 62 1 28 59
M  V30 63 1 29 60
M  V30 64 1 29 61
M  V30 65 1 31 62
M  V30 66 1 32 63
M  V30 END BOND
M  V30 END CTAB
M  END
>  <Dataset>  (305) 
ChEMBL_Kinases

>  <Ligand_Instance>  (305) 
nan

>  <PDB_ID>  (305) 
nan

>  <Standardized_SMILES>  (305) 
Cc1ccc(-c2noc(CCC(=O)NCCN3CCN(Cc4ccccc4)CC3)n2)cc1

>  <Name>  (305) 
nan

>  <Pocket>  (305) 
nan

>  <ATP_Site>  (305) 
nan

>  <Peripheral>  (305) 
nan

>  <Num_H_Atoms_ProtBoundConf>  (305) 
nan

>  <Num_Resolved_Atoms>  (305) 
nan

>  <Num_Not_Resolved_Atoms>  (305) 
nan

$$$$
CHEMBL1485809
     RDKit          3D

  0  0  0  0  0  0  0  0  0  0999 V3000
M  V30 BEGIN CTAB
M  V30 COUNTS 46 48 0 0 0
M  V30 BEGIN ATOM
M  V30 1 C 0.634344 -6.599338 3.779347 0
M  V30 2 O -0.447203 -5.805225 3.310051 0
M  V30 3 C -0.136763 -4.675876 2.552748 0
M  V30 4 C 1.179933 -4.356820 2.279031 0
M  V30 5 C 1.484269 -3.224191 1.519872 0
M  V30 6 C 0.433749 -2.451137 1.062914 0
M  V30 7 C 0.784984 -1.274261 0.272422 0
M  V30 8 O 2.002053 -1.036650 0.057091 0
M  V30 9 O -0.163295 -0.405024 -0.252705 0
M  V30 10 C 0.239504 0.739298 -1.024303 0
M  V30 11 C -0.298231 2.006681 -0.481280 0
M  V30 12 O 0.038574 2.368524 0.798756 0
M  V30 13 C 1.217687 2.634627 1.400236 0
M  V30 14 C 2.520284 2.661172 1.006345 0
M  V30 15 C 3.567655 2.973015 1.844121 0
M  V30 16 C 3.320624 3.281313 3.163130 0
M  V30 17 C 2.026372 3.271836 3.620720 0
M  V30 18 C 0.985168 2.951563 2.747527 0
M  V30 19 C -0.384413 0.476275 -2.398013 0
M  V30 20 N -1.824545 0.370146 -2.316245 0
M  V30 21 C -2.811303 1.275816 -2.423141 0
M  V30 22 C -4.054699 0.711919 -2.270663 0
M  V30 23 N -3.823183 -0.586019 -2.062880 0
M  V30 24 C -2.498974 -0.794834 -2.088978 0
M  V30 25 C -0.888107 -2.753063 1.325622 0
M  V30 26 C -1.197268 -3.887551 2.086239 0
M  V30 27 H 1.193483 -6.999705 2.892131 0
M  V30 28 H 0.299759 -7.402202 4.444740 0
M  V30 29 H 1.327226 -5.897968 4.311697 0
M  V30 30 H 2.008367 -4.952399 2.630158 0
M  V30 31 H 2.526600 -2.995043 1.318579 0
M  V30 32 H 1.332333 0.790972 -1.111367 0
M  V30 33 H -1.415685 2.089619 -0.568769 0
M  V30 34 H 0.063193 2.833146 -1.162610 0
M  V30 35 H 2.645278 2.418115 -0.026256 0
M  V30 36 H 4.537271 2.947379 1.371271 0
M  V30 37 H 4.208349 3.510877 3.735236 0
M  V30 38 H 1.910080 3.522932 4.662172 0
M  V30 39 H 0.023545 2.993889 3.283496 0
M  V30 40 H -0.079511 1.282750 -3.115717 0
M  V30 41 H 0.012663 -0.504641 -2.724717 0
M  V30 42 H -2.632882 2.321188 -2.609284 0
M  V30 43 H -4.999655 1.271789 -2.321177 0
M  V30 44 H -2.071044 -1.798283 -1.939879 0
M  V30 45 H -1.701110 -2.150314 0.969034 0
M  V30 46 H -2.207180 -4.200767 2.341199 0
M  V30 END ATOM
M  V30 BEGIN BOND
M  V30 1 1 1 2
M  V30 2 1 2 3
M  V30 3 2 3 4
M  V30 4 1 4 5
M  V30 5 2 5 6
M  V30 6 1 6 7
M  V30 7 2 7 8
M  V30 8 1 7 9
M  V30 9 1 9 10
M  V30 10 1 10 11
M  V30 11 1 11 12
M  V30 12 1 12 13
M  V30 13 2 13 14
M  V30 14 1 14 15
M  V30 15 2 15 16
M  V30 16 1 16 17
M  V30 17 2 17 18
M  V30 18 1 10 19
M  V30 19 1 19 20
M  V30 20 1 20 21
M  V30 21 2 21 22
M  V30 22 1 22 23
M  V30 23 2 23 24
M  V30 24 1 6 25
M  V30 25 2 25 26
M  V30 26 1 26 3
M  V30 27 1 18 13
M  V30 28 1 24 20
M  V30 29 1 1 27
M  V30 30 1 1 28
M  V30 31 1 1 29
M  V30 32 1 4 30
M  V30 33 1 5 31
M  V30 34 1 10 32
M  V30 35 1 11 33
M  V30 36 1 11 34
M  V30 37 1 14 35
M  V30 38 1 15 36
M  V30 39 1 16 37
M  V30 40 1 17 38
M  V30 41 1 18 39
M  V30 42 1 19 40
M  V30 43 1 19 41
M  V30 44 1 21 42
M  V30 45 1 22 43
M  V30 46 1 24 44
M  V30 47 1 25 45
M  V30 48 1 26 46
M  V30 END BOND
M  V30 END CTAB
M  END
>  <Dataset>  (306) 
ChEMBL_Kinases

>  <Ligand_Instance>  (306) 
nan

>  <PDB_ID>  (306) 
nan

>  <Standardized_SMILES>  (306) 
COc1ccc(C(=O)OC(COc2ccccc2)Cn2ccnc2)cc1

>  <Name>  (306) 
nan

>  <Pocket>  (306) 
nan

>  <ATP_Site>  (306) 
nan

>  <Peripheral>  (306) 
nan

>  <Num_H_Atoms_ProtBoundConf>  (306) 
nan

>  <Num_Resolved_Atoms>  (306) 
nan

>  <Num_Not_Resolved_Atoms>  (306) 
nan

$$$$
CHEMBL1485770
     RDKit          3D

  0  0  0  0  0  0  0  0  0  0999 V3000
M  V30 BEGIN CTAB
M  V30 COUNTS 52 55 0 0 0
M  V30 BEGIN ATOM
M  V30 1 C 4.230356 -1.380086 6.036897 0
M  V30 2 C 5.418703 -1.357748 5.118210 0
M  V30 3 N 6.568020 -2.008667 5.295954 0
M  V30 4 O 7.366318 -1.766625 4.318058 0
M  V30 5 C 6.821686 -0.958411 3.440992 0
M  V30 6 C 7.327641 -0.394010 2.168966 0
M  V30 7 C 5.550205 -0.660141 3.913628 0
M  V30 8 C 4.511269 0.207852 3.309001 0
M  V30 9 O 3.474281 -0.491151 2.703054 0
M  V30 10 C 2.422376 0.182059 2.090041 0
M  V30 11 C 2.287128 1.554331 2.012542 0
M  V30 12 C 1.179771 2.114568 1.366922 0
M  V30 13 C 0.245541 1.260457 0.820731 0
M  V30 14 C -0.874602 1.921593 0.167282 0
M  V30 15 O -0.946061 3.157237 0.123724 0
M  V30 16 O -1.976110 1.370280 -0.473374 0
M  V30 17 C -2.990433 2.133300 -1.065813 0
M  V30 18 C -3.989181 1.214972 -1.649127 0
M  V30 19 O -4.839402 2.015963 -2.171084 0
M  V30 20 C -4.168373 -0.210072 -1.733703 0
M  V30 21 C -3.338409 -1.181980 -1.219445 0
M  V30 22 C -3.551261 -2.539634 -1.326481 0
M  V30 23 C -4.685849 -2.945020 -2.002551 0
M  V30 24 C -5.527951 -1.993219 -2.523864 0
M  V30 25 C -5.290023 -0.648887 -2.401566 0
M  V30 26 O -6.641752 -2.479357 -3.186167 0
M  V30 27 C -6.651030 -3.699089 -3.914310 0
M  V30 28 C -5.630859 -4.686740 -3.395945 0
M  V30 29 O -5.029445 -4.261886 -2.188505 0
M  V30 30 C 0.385940 -0.108235 0.901297 0
M  V30 31 C 1.474759 -0.675486 1.536179 0
M  V30 32 H 3.992284 -2.388113 6.371935 0
M  V30 33 H 3.370037 -1.022536 5.407281 0
M  V30 34 H 4.376346 -0.637760 6.828154 0
M  V30 35 H 7.116777 0.700198 2.094054 0
M  V30 36 H 6.829733 -0.862978 1.277427 0
M  V30 37 H 8.430756 -0.476285 2.081717 0
M  V30 38 H 4.948434 1.001349 2.669147 0
M  V30 39 H 4.048149 0.755725 4.182934 0
M  V30 40 H 3.066382 2.148730 2.468233 0
M  V30 41 H 1.194542 3.194013 1.376598 0
M  V30 42 H -2.499523 2.747700 -1.852008 0
M  V30 43 H -3.470442 2.835071 -0.345658 0
M  V30 44 H -2.455521 -0.858564 -0.693162 0
M  V30 45 H -2.888630 -3.267438 -0.916895 0
M  V30 46 H -6.010722 0.053151 -2.845582 0
M  V30 47 H -7.671623 -4.138347 -3.948673 0
M  V30 48 H -6.395912 -3.403090 -4.965016 0
M  V30 49 H -6.099492 -5.665090 -3.168330 0
M  V30 50 H -4.820656 -4.799484 -4.142713 0
M  V30 51 H -0.362974 -0.745463 0.463375 0
M  V30 52 H 1.533146 -1.753501 1.569325 0
M  V30 END ATOM
M  V30 BEGIN BOND
M  V30 1 1 1 2
M  V30 2 2 2 3
M  V30 3 1 3 4
M  V30 4 1 4 5
M  V30 5 1 5 6
M  V30 6 2 5 7
M  V30 7 1 7 8
M  V30 8 1 8 9
M  V30 9 1 9 10
M  V30 10 2 10 11
M  V30 11 1 11 12
M  V30 12 2 12 13
M  V30 13 1 13 14
M  V30 14 2 14 15
M  V30 15 1 14 16
M  V30 16 1 16 17
M  V30 17 1 17 18
M  V30 18 2 18 19
M  V30 19 1 18 20
M  V30 20 2 20 21
M  V30 21 1 21 22
M  V30 22 2 22 23
M  V30 23 1 23 24
M  V30 24 2 24 25
M  V30 25 1 24 26
M  V30 26 1 26 27
M  V30 27 1 27 28
M  V30 28 1 28 29
M  V30 29 1 13 30
M  V30 30 2 30 31
M  V30 31 1 7 2
M  V30 32 1 31 10
M  V30 33 1 25 20
M  V30 34 1 29 23
M  V30 35 1 1 32
M  V30 36 1 1 33
M  V30 37 1 1 34
M  V30 38 1 6 35
M  V30 39 1 6 36
M  V30 40 1 6 37
M  V30 41 1 8 38
M  V30 42 1 8 39
M  V30 43 1 11 40
M  V30 44 1 12 41
M  V30 45 1 17 42
M  V30 46 1 17 43
M  V30 47 1 21 44
M  V30 48 1 22 45
M  V30 49 1 25 46
M  V30 50 1 27 47
M  V30 51 1 27 48
M  V30 52 1 28 49
M  V30 53 1 28 50
M  V30 54 1 30 51
M  V30 55 1 31 52
M  V30 END BOND
M  V30 END CTAB
M  END
>  <Dataset>  (307) 
ChEMBL_Kinases

>  <Ligand_Instance>  (307) 
nan

>  <PDB_ID>  (307) 
nan

>  <Standardized_SMILES>  (307) 
Cc1noc(C)c1COc1ccc(C(=O)OCC(=O)c2ccc3c(c2)OCCO3)cc1

>  <Name>  (307) 
nan

>  <Pocket>  (307) 
nan

>  <ATP_Site>  (307) 
nan

>  <Peripheral>  (307) 
nan

>  <Num_H_Atoms_ProtBoundConf>  (307) 
nan

>  <Num_Resolved_Atoms>  (307) 
nan

>  <Num_Not_Resolved_Atoms>  (307) 
nan

$$$$
CHEMBL1485735
     RDKit          3D

  0  0  0  0  0  0  0  0  0  0999 V3000
M  V30 BEGIN CTAB
M  V30 COUNTS 48 49 0 0 0
M  V30 BEGIN ATOM
M  V30 1 C 6.766661 -1.134441 2.984348 0
M  V30 2 C 6.260060 0.253013 2.723864 0
M  V30 3 C 4.942793 0.229554 1.952053 0
M  V30 4 C 5.119552 -0.460919 0.631896 0
M  V30 5 C 3.825316 -0.519804 -0.147425 0
M  V30 6 O 3.455634 0.092815 0.932942 0
M  V30 7 N 3.265193 -0.967079 -1.360913 0
M  V30 8 C 1.939588 -0.484629 -1.059698 0
M  V30 9 C 1.614387 0.787901 -1.486725 0
M  V30 10 C 0.351125 1.265757 -1.202650 0
M  V30 11 C -0.477328 0.417156 -0.509925 0
M  V30 12 C -1.797175 0.948492 -0.213344 0
M  V30 13 O -2.270278 2.004875 -0.755044 0
M  V30 14 N -2.716253 0.363274 0.711514 0
M  V30 15 C -4.035876 0.720367 1.132805 0
M  V30 16 C -4.525088 -0.254483 2.168810 0
M  V30 17 C -4.599992 -1.673068 1.719101 0
M  V30 18 N -5.477851 -1.930316 0.622581 0
M  V30 19 C -5.225657 -1.899741 -0.692808 0
M  V30 20 C -6.457621 -2.238793 -1.273066 0
M  V30 21 N -7.379840 -2.453930 -0.290114 0
M  V30 22 C -6.753511 -2.257031 0.906328 0
M  V30 23 C -0.172918 -0.845269 -0.080159 0
M  V30 24 C 1.080606 -1.345338 -0.351468 0
M  V30 25 H 5.995225 -1.917584 2.838611 0
M  V30 26 H 7.565448 -1.330793 2.239289 0
M  V30 27 H 7.127308 -1.245777 4.027070 0
M  V30 28 H 6.972214 0.866931 2.142580 0
M  V30 29 H 6.097493 0.721931 3.717868 0
M  V30 30 H 4.623175 1.291595 1.737431 0
M  V30 31 H 4.213974 -0.245554 2.618031 0
M  V30 32 H 5.422056 -1.522063 0.793064 0
M  V30 33 H 5.860009 0.075104 0.016438 0
M  V30 34 H 4.199537 -1.313641 -1.586751 0
M  V30 35 H 2.367204 1.362097 -2.030868 0
M  V30 36 H 0.059851 2.254501 -1.524385 0
M  V30 37 H -2.302303 -0.498855 1.152615 0
M  V30 38 H -4.041887 1.722207 1.654084 0
M  V30 39 H -4.785298 0.743608 0.319720 0
M  V30 40 H -5.533438 0.020845 2.547553 0
M  V30 41 H -3.820531 -0.238912 3.047230 0
M  V30 42 H -4.843043 -2.274708 2.638569 0
M  V30 43 H -3.597667 -2.041466 1.426206 0
M  V30 44 H -4.293421 -1.668815 -1.187341 0
M  V30 45 H -6.658244 -2.324020 -2.347608 0
M  V30 46 H -7.296010 -2.374395 1.824299 0
M  V30 47 H -0.784136 -1.534550 0.453604 0
M  V30 48 H 1.464981 -2.313260 -0.085487 0
M  V30 END ATOM
M  V30 BEGIN BOND
M  V30 1 1 1 2
M  V30 2 1 2 3
M  V30 3 1 3 4
M  V30 4 1 4 5
M  V30 5 2 5 6
M  V30 6 1 5 7
M  V30 7 1 7 8
M  V30 8 2 8 9
M  V30 9 1 9 10
M  V30 10 2 10 11
M  V30 11 1 11 12
M  V30 12 2 12 13
M  V30 13 1 12 14
M  V30 14 1 14 15
M  V30 15 1 15 16
M  V30 16 1 16 17
M  V30 17 1 17 18
M  V30 18 1 18 19
M  V30 19 2 19 20
M  V30 20 1 20 21
M  V30 21 2 21 22
M  V30 22 1 11 23
M  V30 23 2 23 24
M  V30 24 1 24 8
M  V30 25 1 22 18
M  V30 26 1 1 25
M  V30 27 1 1 26
M  V30 28 1 1 27
M  V30 29 1 2 28
M  V30 30 1 2 29
M  V30 31 1 3 30
M  V30 32 1 3 31
M  V30 33 1 4 32
M  V30 34 1 4 33
M  V30 35 1 7 34
M  V30 36 1 9 35
M  V30 37 1 10 36
M  V30 38 1 14 37
M  V30 39 1 15 38
M  V30 40 1 15 39
M  V30 41 1 16 40
M  V30 42 1 16 41
M  V30 43 1 17 42
M  V30 44 1 17 43
M  V30 45 1 19 44
M  V30 46 1 20 45
M  V30 47 1 22 46
M  V30 48 1 23 47
M  V30 49 1 24 48
M  V30 END BOND
M  V30 END CTAB
M  END
>  <Dataset>  (308) 
ChEMBL_Kinases

>  <Ligand_Instance>  (308) 
nan

>  <PDB_ID>  (308) 
nan

>  <Standardized_SMILES>  (308) 
CCCCC(=O)Nc1ccc(C(=O)NCCCn2ccnc2)cc1

>  <Name>  (308) 
nan

>  <Pocket>  (308) 
nan

>  <ATP_Site>  (308) 
nan

>  <Peripheral>  (308) 
nan

>  <Num_H_Atoms_ProtBoundConf>  (308) 
nan

>  <Num_Resolved_Atoms>  (308) 
nan

>  <Num_Not_Resolved_Atoms>  (308) 
nan

$$$$
CHEMBL1483990
     RDKit          3D

  0  0  0  0  0  0  0  0  0  0999 V3000
M  V30 BEGIN CTAB
M  V30 COUNTS 45 47 0 0 0
M  V30 BEGIN ATOM
M  V30 1 C -1.539561 -5.445256 0.827808 0
M  V30 2 O -0.937668 -4.362882 0.186949 0
M  V30 3 C -1.621650 -4.064012 -0.972296 0
M  V30 4 C -1.003192 -2.886471 -1.711080 0
M  V30 5 O -1.011539 -1.742912 -0.910569 0
M  V30 6 C -0.508808 -0.554369 -1.352036 0
M  V30 7 O -0.236200 -1.160224 -2.444041 0
M  V30 8 C -0.173225 0.852334 -1.229107 0
M  V30 9 C 0.405258 1.327106 -2.504949 0
M  V30 10 N 0.873405 1.686308 -3.498962 0
M  V30 11 C 0.775900 1.191979 -0.147869 0
M  V30 12 N 1.839179 1.973979 -0.400453 0
M  V30 13 C 2.717583 2.276202 0.568743 0
M  V30 14 C 3.759445 3.092415 0.149145 0
M  V30 15 C 4.732793 3.478678 1.046223 0
M  V30 16 C 4.616756 3.023400 2.341272 0
M  V30 17 C 3.581662 2.214518 2.751195 0
M  V30 18 C 2.603543 1.821862 1.865161 0
M  V30 19 N 1.533446 1.030216 2.136794 0
M  V30 20 C 0.668294 0.744256 1.143391 0
M  V30 21 N -0.400800 -0.072358 1.596370 0
M  V30 22 C -1.872060 0.002692 1.668606 0
M  V30 23 C -1.999066 -0.018078 3.202862 0
M  V30 24 C -0.907284 -1.028447 3.597398 0
M  V30 25 C -0.289890 -1.398724 2.232255 0
M  V30 26 H -1.554260 -6.362377 0.202001 0
M  V30 27 H -2.595163 -5.156088 0.995070 0
M  V30 28 H -1.034765 -5.703003 1.774784 0
M  V30 29 H -2.706211 -3.912127 -0.791630 0
M  V30 30 H -1.520718 -4.917651 -1.666787 0
M  V30 31 H 0.044033 -3.203597 -1.934975 0
M  V30 32 H -1.615130 -2.765644 -2.623731 0
M  V30 33 H -1.097296 1.503340 -1.107317 0
M  V30 34 H 3.855511 3.452783 -0.866386 0
M  V30 35 H 5.542072 4.113403 0.717882 0
M  V30 36 H 5.380554 3.321276 3.063150 0
M  V30 37 H 3.470553 1.843178 3.769883 0
M  V30 38 H -2.247219 0.945076 1.250196 0
M  V30 39 H -2.363402 -0.904204 1.313903 0
M  V30 40 H -1.666401 0.982236 3.529034 0
M  V30 41 H -2.990037 -0.327748 3.533998 0
M  V30 42 H -0.125073 -0.524395 4.202599 0
M  V30 43 H -1.319318 -1.896054 4.117408 0
M  V30 44 H 0.746472 -1.727204 2.320887 0
M  V30 45 H -0.981690 -2.116415 1.777367 0
M  V30 END ATOM
M  V30 BEGIN BOND
M  V30 1 1 1 2
M  V30 2 1 2 3
M  V30 3 1 3 4
M  V30 4 1 4 5
M  V30 5 1 5 6
M  V30 6 2 6 7
M  V30 7 1 6 8
M  V30 8 1 8 9
M  V30 9 3 9 10
M  V30 10 1 8 11
M  V30 11 2 11 12
M  V30 12 1 12 13
M  V30 13 2 13 14
M  V30 14 1 14 15
M  V30 15 2 15 16
M  V30 16 1 16 17
M  V30 17 2 17 18
M  V30 18 1 18 19
M  V30 19 2 19 20
M  V30 20 1 20 21
M  V30 21 1 21 22
M  V30 22 1 22 23
M  V30 23 1 23 24
M  V30 24 1 24 25
M  V30 25 1 20 11
M  V30 26 1 25 21
M  V30 27 1 18 13
M  V30 28 1 1 26
M  V30 29 1 1 27
M  V30 30 1 1 28
M  V30 31 1 3 29
M  V30 32 1 3 30
M  V30 33 1 4 31
M  V30 34 1 4 32
M  V30 35 1 8 33
M  V30 36 1 14 34
M  V30 37 1 15 35
M  V30 38 1 16 36
M  V30 39 1 17 37
M  V30 40 1 22 38
M  V30 41 1 22 39
M  V30 42 1 23 40
M  V30 43 1 23 41
M  V30 44 1 24 42
M  V30 45 1 24 43
M  V30 46 1 25 44
M  V30 47 1 25 45
M  V30 END BOND
M  V30 END CTAB
M  END
>  <Dataset>  (309) 
ChEMBL_Kinases

>  <Ligand_Instance>  (309) 
nan

>  <PDB_ID>  (309) 
nan

>  <Standardized_SMILES>  (309) 
COCCOC(=O)C(C#N)c1nc2ccccc2nc1N1CCCC1

>  <Name>  (309) 
nan

>  <Pocket>  (309) 
nan

>  <ATP_Site>  (309) 
nan

>  <Peripheral>  (309) 
nan

>  <Num_H_Atoms_ProtBoundConf>  (309) 
nan

>  <Num_Resolved_Atoms>  (309) 
nan

>  <Num_Not_Resolved_Atoms>  (309) 
nan

$$$$
CHEMBL1484081
     RDKit          3D

  0  0  0  0  0  0  0  0  0  0999 V3000
M  V30 BEGIN CTAB
M  V30 COUNTS 40 43 0 0 0
M  V30 BEGIN ATOM
M  V30 1 C -2.001297 -5.661783 -0.601756 0
M  V30 2 C -1.060387 -4.508331 -0.731189 0
M  V30 3 C -0.268922 -4.079037 0.287555 0
M  V30 4 C 0.418489 -3.022294 -0.254790 0
M  V30 5 C 1.433846 -2.230984 0.456971 0
M  V30 6 N 0.101780 -2.786048 -1.510309 0
M  V30 7 C 0.323461 -1.931062 -2.640729 0
M  V30 8 C -0.644716 -0.820734 -2.839310 0
M  V30 9 C -0.567606 0.133565 -1.685865 0
M  V30 10 N -0.049182 0.440090 -0.622278 0
M  V30 11 C -0.393727 1.517991 0.070790 0
M  V30 12 C 0.254849 1.874758 1.352951 0
M  V30 13 C 1.296118 1.264551 2.021185 0
M  V30 14 C 1.587186 1.934411 3.192265 0
M  V30 15 C 2.519973 1.728475 4.190290 0
M  V30 16 C 2.515603 2.630367 5.240283 0
M  V30 17 C 1.605908 3.679513 5.260033 0
M  V30 18 C 0.682178 3.862933 4.247690 0
M  V30 19 C 0.675134 2.969674 3.192653 0
M  V30 20 O -0.065084 2.890260 2.116445 0
M  V30 21 C -1.382555 2.358582 -0.398336 0
M  V30 22 S -1.793023 1.430119 -1.989948 0
M  V30 23 N -0.819847 -3.726406 -1.779677 0
M  V30 24 H -2.515473 -5.597993 0.374704 0
M  V30 25 H -1.407190 -6.583359 -0.635034 0
M  V30 26 H -2.788193 -5.627721 -1.387955 0
M  V30 27 H -0.171879 -4.445461 1.286977 0
M  V30 28 H 1.901624 -1.455100 -0.148608 0
M  V30 29 H 2.209381 -2.920586 0.917119 0
M  V30 30 H 0.966283 -1.755463 1.357795 0
M  V30 31 H 0.392383 -2.494525 -3.619623 0
M  V30 32 H 1.386752 -1.527761 -2.543417 0
M  V30 33 H -1.691840 -1.230125 -2.834149 0
M  V30 34 H -0.452112 -0.277789 -3.798366 0
M  V30 35 H 1.823504 0.397899 1.693471 0
M  V30 36 H 3.208402 0.892112 4.125700 0
M  V30 37 H 3.223828 2.496074 6.023877 0
M  V30 38 H 1.580527 4.406704 6.077602 0
M  V30 39 H -0.005177 4.674690 4.284899 0
M  V30 40 H -1.825519 3.251347 -0.044087 0
M  V30 END ATOM
M  V30 BEGIN BOND
M  V30 1 1 1 2
M  V30 2 1 2 3
M  V30 3 2 3 4
M  V30 4 1 4 5
M  V30 5 1 4 6
M  V30 6 1 6 7
M  V30 7 1 7 8
M  V30 8 1 8 9
M  V30 9 2 9 10
M  V30 10 1 10 11
M  V30 11 1 11 12
M  V30 12 2 12 13
M  V30 13 1 13 14
M  V30 14 2 14 15
M  V30 15 1 15 16
M  V30 16 2 16 17
M  V30 17 1 17 18
M  V30 18 2 18 19
M  V30 19 1 19 20
M  V30 20 2 11 21
M  V30 21 1 21 22
M  V30 22 1 6 23
M  V30 23 2 23 2
M  V30 24 1 22 9
M  V30 25 1 20 12
M  V30 26 1 19 14
M  V30 27 1 1 24
M  V30 28 1 1 25
M  V30 29 1 1 26
M  V30 30 1 3 27
M  V30 31 1 5 28
M  V30 32 1 5 29
M  V30 33 1 5 30
M  V30 34 1 7 31
M  V30 35 1 7 32
M  V30 36 1 8 33
M  V30 37 1 8 34
M  V30 38 1 13 35
M  V30 39 1 15 36
M  V30 40 1 16 37
M  V30 41 1 17 38
M  V30 42 1 18 39
M  V30 43 1 21 40
M  V30 END BOND
M  V30 END CTAB
M  END
>  <Dataset>  (310) 
ChEMBL_Kinases

>  <Ligand_Instance>  (310) 
nan

>  <PDB_ID>  (310) 
nan

>  <Standardized_SMILES>  (310) 
Cc1cc(C)n(CCc2nc(-c3cc4ccccc4o3)cs2)n1

>  <Name>  (310) 
nan

>  <Pocket>  (310) 
nan

>  <ATP_Site>  (310) 
nan

>  <Peripheral>  (310) 
nan

>  <Num_H_Atoms_ProtBoundConf>  (310) 
nan

>  <Num_Resolved_Atoms>  (310) 
nan

>  <Num_Not_Resolved_Atoms>  (310) 
nan

$$$$
CHEMBL1484253
     RDKit          3D

  0  0  0  0  0  0  0  0  0  0999 V3000
M  V30 BEGIN CTAB
M  V30 COUNTS 34 36 0 0 0
M  V30 BEGIN ATOM
M  V30 1 C -0.909169 -1.427691 3.174517 0
M  V30 2 C -0.315173 -2.746179 2.760289 0
M  V30 3 N -0.026421 -3.811950 3.568243 0
M  V30 4 O 0.482489 -4.734306 2.773745 0
M  V30 5 C 0.525927 -4.320198 1.543431 0
M  V30 6 C 1.034140 -5.108084 0.411293 0
M  V30 7 C 0.030827 -3.041186 1.433862 0
M  V30 8 C -0.162606 -2.125137 0.325209 0
M  V30 9 C 0.695063 -1.056079 0.049648 0
M  V30 10 C 0.506156 -0.154167 -0.998608 0
M  V30 11 N 1.558396 0.836263 -1.035732 0
M  V30 12 C 1.578848 1.790062 0.048047 0
M  V30 13 C 0.359895 2.549205 0.128009 0
M  V30 14 C 0.050104 3.728013 -0.460735 0
M  V30 15 C -1.114270 4.375681 -0.308747 0
M  V30 16 C -2.030964 3.642151 0.585392 0
M  V30 17 S -1.054133 2.071988 1.098485 0
M  V30 18 N -0.565484 -0.331623 -1.783126 0
M  V30 19 C -1.397117 -1.365685 -1.520878 0
M  V30 20 N -1.236085 -2.257584 -0.507657 0
M  V30 21 H -1.988178 -1.487773 2.954187 0
M  V30 22 H -0.751608 -1.357558 4.275901 0
M  V30 23 H -0.382087 -0.572621 2.741629 0
M  V30 24 H 0.586069 -4.823739 -0.550717 0
M  V30 25 H 0.823559 -6.185586 0.606354 0
M  V30 26 H 2.148439 -4.945566 0.315708 0
M  V30 27 H 1.536009 -0.998932 0.748375 0
M  V30 28 H 2.125859 0.638089 -1.909973 0
M  V30 29 H 2.500384 2.404946 0.047100 0
M  V30 30 H 1.652681 1.166894 0.997217 0
M  V30 31 H 0.715741 4.290180 -1.127010 0
M  V30 32 H -1.610789 5.267596 -0.623546 0
M  V30 33 H -3.144343 3.947276 0.928464 0
M  V30 34 H -2.223762 -1.400185 -2.230136 0
M  V30 END ATOM
M  V30 BEGIN BOND
M  V30 1 1 1 2
M  V30 2 2 2 3
M  V30 3 1 3 4
M  V30 4 1 4 5
M  V30 5 1 5 6
M  V30 6 2 5 7
M  V30 7 1 7 8
M  V30 8 2 8 9
M  V30 9 1 9 10
M  V30 10 1 10 11
M  V30 11 1 11 12
M  V30 12 1 12 13
M  V30 13 2 13 14
M  V30 14 1 14 15
M  V30 15 2 15 16
M  V30 16 1 16 17
M  V30 17 2 10 18
M  V30 18 1 18 19
M  V30 19 2 19 20
M  V30 20 1 7 2
M  V30 21 1 20 8
M  V30 22 1 17 13
M  V30 23 1 1 21
M  V30 24 1 1 22
M  V30 25 1 1 23
M  V30 26 1 6 24
M  V30 27 1 6 25
M  V30 28 1 6 26
M  V30 29 1 9 27
M  V30 30 1 11 28
M  V30 31 1 12 29
M  V30 32 1 12 30
M  V30 33 1 14 31
M  V30 34 1 15 32
M  V30 35 1 16 33
M  V30 36 1 19 34
M  V30 END BOND
M  V30 END CTAB
M  END
>  <Dataset>  (311) 
ChEMBL_Kinases

>  <Ligand_Instance>  (311) 
nan

>  <PDB_ID>  (311) 
nan

>  <Standardized_SMILES>  (311) 
Cc1noc(C)c1-c1cc(NCc2cccs2)ncn1

>  <Name>  (311) 
nan

>  <Pocket>  (311) 
nan

>  <ATP_Site>  (311) 
nan

>  <Peripheral>  (311) 
nan

>  <Num_H_Atoms_ProtBoundConf>  (311) 
nan

>  <Num_Resolved_Atoms>  (311) 
nan

>  <Num_Not_Resolved_Atoms>  (311) 
nan

$$$$
CHEMBL1484299
     RDKit          3D

  0  0  0  0  0  0  0  0  0  0999 V3000
M  V30 BEGIN CTAB
M  V30 COUNTS 74 80 0 0 0
M  V30 BEGIN ATOM
M  V30 1 F 2.046753 -7.007571 -2.671581 0
M  V30 2 C 0.969307 -6.203985 -2.991791 0
M  V30 3 F 0.929985 -5.874225 -4.329363 0
M  V30 4 F -0.162274 -6.997446 -2.770821 0
M  V30 5 C 0.928230 -4.991603 -2.117837 0
M  V30 6 C 0.537229 -5.121774 -0.795881 0
M  V30 7 C 0.504492 -3.985699 -0.000188 0
M  V30 8 C 0.846213 -2.730769 -0.473465 0
M  V30 9 C 0.777861 -1.605562 0.440262 0
M  V30 10 C 0.019194 -0.430978 0.008036 0 CFG=1
M  V30 11 C -1.301979 -0.115669 0.632354 0
M  V30 12 N -1.314247 1.291959 0.386392 0
M  V30 13 C -2.373266 2.085512 0.816385 0
M  V30 14 C -3.650338 1.870610 0.104398 0
M  V30 15 C -3.599604 2.088122 -1.394741 0
M  V30 16 C -5.039622 2.137241 -1.883089 0
M  V30 17 C -5.564874 0.714337 -1.829858 0
M  V30 18 C -4.748687 -0.123275 -0.851771 0
M  V30 19 C -4.467913 0.683704 0.414248 0
M  V30 20 C -0.002903 1.733477 0.854277 0 CFG=2
M  V30 21 C 0.501648 2.957467 0.243939 0
M  V30 22 C 0.454643 3.230709 -1.116187 0
M  V30 23 C 0.954990 4.418638 -1.621864 0
M  V30 24 C 1.520492 5.374085 -0.778288 0
M  V30 25 C 1.597543 5.163371 0.582907 0
M  V30 26 C 1.086646 3.974454 1.011613 0
M  V30 27 C 0.836173 0.619758 0.740899 0
M  V30 28 C 2.083684 0.418971 -0.006960 0
M  V30 29 C 2.084108 -0.912263 0.742895 0
M  V30 30 C 3.309067 -1.611354 0.866279 0
M  V30 31 C 3.519467 -2.817760 1.503990 0
M  V30 32 C 4.772343 -3.429195 1.570756 0
M  V30 33 C 5.865494 -2.828523 0.985259 0
M  V30 34 C 5.682776 -1.630766 0.346189 0
M  V30 35 C 4.447049 -1.042742 0.288796 0
M  V30 36 C 1.549850 -0.056467 1.884473 0
M  V30 37 C 1.226234 -2.660619 -1.791962 0
M  V30 38 C 1.279014 -3.763991 -2.639750 0
M  V30 39 H 0.273624 -6.112798 -0.444413 0
M  V30 40 H 0.182969 -4.202217 1.022884 0
M  V30 41 H 0.415245 -1.991466 1.432140 0
M  V30 42 H 0.047238 -0.243832 -1.065801 0
M  V30 43 H -2.120538 -0.706459 0.239254 0
M  V30 44 H -1.186891 -0.260582 1.729142 0
M  V30 45 H -2.581996 1.818190 1.907217 0
M  V30 46 H -2.095539 3.181664 0.874070 0
M  V30 47 H -4.304367 2.784115 0.440357 0
M  V30 48 H -3.118566 1.256045 -1.947328 0
M  V30 49 H -3.041436 2.997816 -1.674179 0
M  V30 50 H -5.018207 2.504355 -2.949804 0
M  V30 51 H -5.629433 2.842484 -1.298165 0
M  V30 52 H -5.462492 0.256135 -2.815624 0
M  V30 53 H -6.606374 0.701705 -1.453853 0
M  V30 54 H -5.396542 -0.971565 -0.549465 0
M  V30 55 H -3.852098 -0.537657 -1.322451 0
M  V30 56 H -4.029517 0.070456 1.201877 0
M  V30 57 H -5.495254 0.977726 0.803023 0
M  V30 58 H -0.198681 1.981690 1.941783 0
M  V30 59 H 0.009624 2.471352 -1.753044 0
M  V30 60 H 0.919180 4.634449 -2.682837 0
M  V30 61 H 1.920221 6.318819 -1.167033 0
M  V30 62 H 2.015510 5.842951 1.308141 0
M  V30 63 H 1.123144 3.756441 2.090804 0
M  V30 64 H 2.891125 1.053127 0.375976 0
M  V30 65 H 1.931611 0.362386 -1.088178 0
M  V30 66 H 2.654148 -3.288990 1.965061 0
M  V30 67 H 4.919043 -4.375777 2.075114 0
M  V30 68 H 6.816981 -3.320295 1.051793 0
M  V30 69 H 6.576277 -1.203429 -0.096227 0
M  V30 70 H 4.454468 -0.093142 -0.252534 0
M  V30 71 H 2.278326 0.632430 2.305389 0
M  V30 72 H 0.892500 -0.604094 2.585925 0
M  V30 73 H 1.497867 -1.720853 -2.204361 0
M  V30 74 H 1.590782 -3.630628 -3.675541 0
M  V30 END ATOM
M  V30 BEGIN BOND
M  V30 1 1 1 2
M  V30 2 1 2 3
M  V30 3 1 2 4
M  V30 4 1 2 5
M  V30 5 2 5 6
M  V30 6 1 6 7
M  V30 7 2 7 8
M  V30 8 1 8 9
M  V30 9 1 9 10
M  V30 10 1 10 11
M  V30 11 1 11 12
M  V30 12 1 12 13
M  V30 13 1 13 14
M  V30 14 1 14 15
M  V30 15 1 15 16
M  V30 16 1 16 17
M  V30 17 1 17 18
M  V30 18 1 18 19
M  V30 19 1 12 20
M  V30 20 1 20 21
M  V30 21 2 21 22
M  V30 22 1 22 23
M  V30 23 2 23 24
M  V30 24 1 24 25
M  V30 25 2 25 26
M  V30 26 1 20 27
M  V30 27 1 27 28
M  V30 28 1 28 29
M  V30 29 1 29 30
M  V30 30 2 30 31
M  V30 31 1 31 32
M  V30 32 2 32 33
M  V30 33 1 33 34
M  V30 34 2 34 35
M  V30 35 1 29 36
M  V30 36 1 8 37
M  V30 37 2 37 38
M  V30 38 1 38 5
M  V30 39 1 29 9
M  V30 40 1 35 30
M  V30 41 1 27 10
M  V30 42 1 19 14
M  V30 43 1 26 21
M  V30 44 1 36 27
M  V30 45 1 6 39
M  V30 46 1 7 40
M  V30 47 1 9 41
M  V30 48 1 10 42 CFG=3
M  V30 49 1 11 43
M  V30 50 1 11 44
M  V30 51 1 13 45
M  V30 52 1 13 46
M  V30 53 1 14 47
M  V30 54 1 15 48
M  V30 55 1 15 49
M  V30 56 1 16 50
M  V30 57 1 16 51
M  V30 58 1 17 52
M  V30 59 1 17 53
M  V30 60 1 18 54
M  V30 61 1 18 55
M  V30 62 1 19 56
M  V30 63 1 19 57
M  V30 64 1 20 58 CFG=1
M  V30 65 1 22 59
M  V30 66 1 23 60
M  V30 67 1 24 61
M  V30 68 1 25 62
M  V30 69 1 26 63
M  V30 70 1 28 64
M  V30 71 1 28 65
M  V30 72 1 31 66
M  V30 73 1 32 67
M  V30 74 1 33 68
M  V30 75 1 34 69
M  V30 76 1 35 70
M  V30 77 1 36 71
M  V30 78 1 36 72
M  V30 79 1 37 73
M  V30 80 1 38 74
M  V30 END BOND
M  V30 END CTAB
M  END
>  <Dataset>  (312) 
ChEMBL_Kinases

>  <Ligand_Instance>  (312) 
nan

>  <PDB_ID>  (312) 
nan

>  <Standardized_SMILES>  (312) 
FC(F)(F)c1ccc(C2[C@H]3CN(CC4CCCCC4)[C@H](c4ccccc4)C34CC2(c2ccccc2)C4)cc1

>  <Name>  (312) 
nan

>  <Pocket>  (312) 
nan

>  <ATP_Site>  (312) 
nan

>  <Peripheral>  (312) 
nan

>  <Num_H_Atoms_ProtBoundConf>  (312) 
nan

>  <Num_Resolved_Atoms>  (312) 
nan

>  <Num_Not_Resolved_Atoms>  (312) 
nan

$$$$
CHEMBL1484360
     RDKit          3D

  0  0  0  0  0  0  0  0  0  0999 V3000
M  V30 BEGIN CTAB
M  V30 COUNTS 55 57 0 0 0
M  V30 BEGIN ATOM
M  V30 1 C 5.851277 -4.513661 1.218642 0
M  V30 2 O 4.510698 -4.925135 1.126112 0
M  V30 3 C 3.445038 -4.054058 1.025866 0
M  V30 4 C 3.598678 -2.686178 1.007202 0
M  V30 5 C 2.497086 -1.837398 0.904155 0
M  V30 6 C 1.207466 -2.318270 0.816246 0
M  V30 7 C 0.158092 -1.325351 0.737432 0
M  V30 8 O 0.474502 -0.064133 0.887834 0
M  V30 9 C -0.388065 0.917497 0.838455 0
M  V30 10 C 0.138583 2.201509 1.022096 0
M  V30 11 C -0.728688 3.275477 0.979266 0
M  V30 12 O -0.307172 4.583917 1.148814 0
M  V30 13 C 1.079285 4.827909 1.376342 0
M  V30 14 C -2.091893 3.113134 0.761417 0
M  V30 15 O -3.020244 4.136782 0.705385 0
M  V30 16 C -3.694664 4.598691 1.822785 0
M  V30 17 C -4.678831 5.714368 1.634703 0
M  V30 18 O -3.485027 4.091692 2.970896 0
M  V30 19 C -2.617486 1.837062 0.578650 0
M  V30 20 O -3.956750 1.587134 0.357452 0
M  V30 21 C -4.585290 1.528284 -0.897217 0
M  V30 22 C -1.741425 0.773616 0.623537 0
M  V30 23 C -2.126368 -0.540000 0.457438 0
M  V30 24 O -3.351095 -0.775385 0.254346 0
M  V30 25 C -1.176632 -1.534322 0.517963 0
M  V30 26 O -1.672653 -2.794855 0.330596 0
M  V30 27 C -1.806737 -3.327168 -0.996899 0
M  V30 28 C 1.113853 -3.681755 0.840258 0
M  V30 29 C 2.166126 -4.559934 0.939801 0
M  V30 30 O 1.931614 -5.942666 0.952372 0
M  V30 31 C 1.919392 -6.619118 -0.277758 0
M  V30 32 C 1.907517 -7.329025 -1.580173 0
M  V30 33 O 2.138239 -5.387825 -0.407720 0
M  V30 34 H 6.498399 -5.375207 0.937318 0
M  V30 35 H 6.152198 -4.187184 2.242464 0
M  V30 36 H 6.098082 -3.702808 0.495272 0
M  V30 37 H 4.584987 -2.294482 1.073424 0
M  V30 38 H 2.749642 -0.772154 0.899902 0
M  V30 39 H 1.204920 2.371713 1.195885 0
M  V30 40 H 1.236298 5.919398 1.485839 0
M  V30 41 H 1.390945 4.348612 2.331459 0
M  V30 42 H 1.713481 4.424000 0.586230 0
M  V30 43 H -4.142653 6.670222 1.423894 0
M  V30 44 H -5.323164 5.533479 0.738131 0
M  V30 45 H -5.298380 5.826432 2.561899 0
M  V30 46 H -5.379754 0.755638 -0.931564 0
M  V30 47 H -4.925862 2.517041 -1.213155 0
M  V30 48 H -3.816100 1.185464 -1.626154 0
M  V30 49 H -2.838771 -3.245928 -1.360106 0
M  V30 50 H -1.043210 -2.862195 -1.637154 0
M  V30 51 H -1.554769 -4.401900 -0.932083 0
M  V30 52 H 0.150145 -4.119730 0.795591 0
M  V30 53 H 1.688703 -8.402367 -1.385283 0
M  V30 54 H 2.935579 -7.256785 -2.018518 0
M  V30 55 H 1.155941 -6.843032 -2.232344 0
M  V30 END ATOM
M  V30 BEGIN BOND
M  V30 1 1 1 2
M  V30 2 1 2 3
M  V30 3 2 3 4
M  V30 4 1 4 5
M  V30 5 2 5 6
M  V30 6 1 6 7
M  V30 7 1 7 8
M  V30 8 1 8 9
M  V30 9 2 9 10
M  V30 10 1 10 11
M  V30 11 1 11 12
M  V30 12 1 12 13
M  V30 13 2 11 14
M  V30 14 1 14 15
M  V30 15 1 15 16
M  V30 16 1 16 17
M  V30 17 2 16 18
M  V30 18 1 14 19
M  V30 19 1 19 20
M  V30 20 1 20 21
M  V30 21 2 19 22
M  V30 22 1 22 23
M  V30 23 2 23 24
M  V30 24 1 23 25
M  V30 25 1 25 26
M  V30 26 1 26 27
M  V30 27 1 6 28
M  V30 28 2 28 29
M  V30 29 1 29 30
M  V30 30 1 30 31
M  V30 31 1 31 32
M  V30 32 2 31 33
M  V30 33 1 29 3
M  V30 34 2 25 7
M  V30 35 1 22 9
M  V30 36 1 1 34
M  V30 37 1 1 35
M  V30 38 1 1 36
M  V30 39 1 4 37
M  V30 40 1 5 38
M  V30 41 1 10 39
M  V30 42 1 13 40
M  V30 43 1 13 41
M  V30 44 1 13 42
M  V30 45 1 17 43
M  V30 46 1 17 44
M  V30 47 1 17 45
M  V30 48 1 21 46
M  V30 49 1 21 47
M  V30 50 1 21 48
M  V30 51 1 27 49
M  V30 52 1 27 50
M  V30 53 1 27 51
M  V30 54 1 28 52
M  V30 55 1 32 53
M  V30 56 1 32 54
M  V30 57 1 32 55
M  V30 END BOND
M  V30 END CTAB
M  END
>  <Dataset>  (313) 
ChEMBL_Kinases

>  <Ligand_Instance>  (313) 
nan

>  <PDB_ID>  (313) 
nan

>  <Standardized_SMILES>  (313) 
COc1ccc(-c2oc3cc(OC)c(OC(C)=O)c(OC)c3c(=O)c2OC)cc1OC(C)=O

>  <Name>  (313) 
nan

>  <Pocket>  (313) 
nan

>  <ATP_Site>  (313) 
nan

>  <Peripheral>  (313) 
nan

>  <Num_H_Atoms_ProtBoundConf>  (313) 
nan

>  <Num_Resolved_Atoms>  (313) 
nan

>  <Num_Not_Resolved_Atoms>  (313) 
nan

$$$$
CHEMBL1484400
     RDKit          3D

  0  0  0  0  0  0  0  0  0  0999 V3000
M  V30 BEGIN CTAB
M  V30 COUNTS 36 38 0 0 0
M  V30 BEGIN ATOM
M  V30 1 C -2.041758 -2.644205 0.900117 0
M  V30 2 C -1.427392 -1.951031 -0.299075 0
M  V30 3 C -0.045535 -1.589955 -0.015828 0
M  V30 4 C 0.997049 -2.491190 -0.010244 0
M  V30 5 C 1.082270 -3.933349 -0.252446 0
M  V30 6 C 0.915054 -4.785764 0.938004 0
M  V30 7 O 0.018958 -4.243175 -1.133342 0
M  V30 8 O 2.115563 -1.867596 0.277482 0
M  V30 9 C 1.944927 -0.592685 0.476397 0
M  V30 10 C 2.760575 0.471850 0.794170 0
M  V30 11 C 2.179337 1.714901 0.922137 0
M  V30 12 C 0.829484 1.936022 0.747439 0
M  V30 13 C 0.357312 3.215309 0.899221 0
M  V30 14 C 1.197058 4.394036 1.241509 0
M  V30 15 C -1.010266 3.339410 0.704557 0
M  V30 16 C -1.835948 2.255853 0.381870 0
M  V30 17 O -3.080234 2.449320 0.218988 0
M  V30 18 O -1.301801 1.054812 0.253782 0
M  V30 19 C -0.001667 0.868884 0.426782 0
M  V30 20 C 0.580349 -0.380233 0.297779 0
M  V30 21 H -1.498338 -2.429450 1.833487 0
M  V30 22 H -2.044686 -3.761413 0.794980 0
M  V30 23 H -3.141093 -2.394729 0.977246 0
M  V30 24 H -1.566661 -2.534947 -1.239487 0
M  V30 25 H -2.047513 -1.037227 -0.449432 0
M  V30 26 H 1.984924 -4.245011 -0.812368 0
M  V30 27 H -0.114631 -5.166978 1.094776 0
M  V30 28 H 1.528795 -5.701618 0.809723 0
M  V30 29 H 1.316710 -4.278354 1.845975 0
M  V30 30 H 0.196837 -5.073204 -1.624580 0
M  V30 31 H 3.816853 0.277720 0.927421 0
M  V30 32 H 2.862366 2.512483 1.171258 0
M  V30 33 H 1.625932 4.801365 0.291432 0
M  V30 34 H 2.011096 4.182799 1.942361 0
M  V30 35 H 0.532383 5.192734 1.662094 0
M  V30 36 H -1.482645 4.307742 0.800802 0
M  V30 END ATOM
M  V30 BEGIN BOND
M  V30 1 1 1 2
M  V30 2 1 2 3
M  V30 3 2 3 4
M  V30 4 1 4 5
M  V30 5 1 5 6
M  V30 6 1 5 7
M  V30 7 1 4 8
M  V30 8 1 8 9
M  V30 9 2 9 10
M  V30 10 1 10 11
M  V30 11 2 11 12
M  V30 12 1 12 13
M  V30 13 1 13 14
M  V30 14 2 13 15
M  V30 15 1 15 16
M  V30 16 2 16 17
M  V30 17 1 16 18
M  V30 18 1 18 19
M  V30 19 2 19 20
M  V30 20 1 20 3
M  V30 21 1 20 9
M  V30 22 1 19 12
M  V30 23 1 1 21
M  V30 24 1 1 22
M  V30 25 1 1 23
M  V30 26 1 2 24
M  V30 27 1 2 25
M  V30 28 1 5 26
M  V30 29 1 6 27
M  V30 30 1 6 28
M  V30 31 1 6 29
M  V30 32 1 7 30
M  V30 33 1 10 31
M  V30 34 1 11 32
M  V30 35 1 14 33
M  V30 36 1 14 34
M  V30 37 1 14 35
M  V30 38 1 15 36
M  V30 END BOND
M  V30 END CTAB
M  END
>  <Dataset>  (314) 
ChEMBL_Kinases

>  <Ligand_Instance>  (314) 
nan

>  <PDB_ID>  (314) 
nan

>  <Standardized_SMILES>  (314) 
CCc1c(C(C)O)oc2ccc3c(C)cc(=O)oc3c12

>  <Name>  (314) 
nan

>  <Pocket>  (314) 
nan

>  <ATP_Site>  (314) 
nan

>  <Peripheral>  (314) 
nan

>  <Num_H_Atoms_ProtBoundConf>  (314) 
nan

>  <Num_Resolved_Atoms>  (314) 
nan

>  <Num_Not_Resolved_Atoms>  (314) 
nan

$$$$
CHEMBL1484413
     RDKit          3D

  0  0  0  0  0  0  0  0  0  0999 V3000
M  V30 BEGIN CTAB
M  V30 COUNTS 49 52 0 0 0
M  V30 BEGIN ATOM
M  V30 1 C -1.157872 -4.904320 1.258048 0
M  V30 2 O -2.154203 -4.140894 1.921701 0
M  V30 3 C -1.905385 -2.812964 2.309800 0
M  V30 4 C -0.670645 -2.262812 2.032921 0
M  V30 5 C -0.309145 -0.958635 2.368773 0
M  V30 6 S 1.321116 -0.420650 1.934272 0
M  V30 7 O 2.205512 -1.614666 1.967888 0
M  V30 8 O 1.781678 0.532291 2.990257 0
M  V30 9 N 1.247030 0.252428 0.394824 0
M  V30 10 C 0.445899 1.372951 0.180579 0
M  V30 11 C 1.076936 2.703280 0.396522 0
M  V30 12 C 1.747248 3.538740 -0.474804 0
M  V30 13 C 2.118152 4.636502 0.254758 0
M  V30 14 C 1.670093 4.449328 1.545012 0
M  V30 15 O 1.052182 3.284713 1.596186 0
M  V30 16 C 1.794683 -0.476129 -0.665508 0
M  V30 17 C 2.958292 0.112997 -1.393562 0
M  V30 18 C 3.129359 -0.899817 -2.526922 0
M  V30 19 C 1.761487 -1.475284 -2.806517 0
M  V30 20 C 0.828660 -0.963184 -1.724998 0
M  V30 21 C -1.247444 -0.171030 3.018921 0
M  V30 22 C -2.484456 -0.720246 3.297018 0
M  V30 23 C -2.825169 -2.012965 2.957342 0
M  V30 24 N -4.096789 -2.572668 3.245217 0
M  V30 25 C -4.957718 -2.965596 2.289522 0
M  V30 26 N -6.081774 -3.456350 2.859542 0
M  V30 27 N -5.903897 -3.361631 4.168283 0
M  V30 28 N -4.709348 -2.829989 4.379551 0
M  V30 29 H -1.546450 -5.916968 1.107811 0
M  V30 30 H -0.215931 -4.913847 1.831113 0
M  V30 31 H -0.930717 -4.485530 0.261459 0
M  V30 32 H 0.052303 -2.883900 1.526851 0
M  V30 33 H -0.466618 1.286238 0.843712 0
M  V30 34 H 0.023326 1.356787 -0.843987 0
M  V30 35 H 1.916560 3.319548 -1.519735 0
M  V30 36 H 2.664673 5.489549 -0.128735 0
M  V30 37 H 1.773732 5.098602 2.401783 0
M  V30 38 H 2.204351 -1.437443 -0.219099 0
M  V30 39 H 2.838430 1.126500 -1.765399 0
M  V30 40 H 3.883347 0.008306 -0.759966 0
M  V30 41 H 3.846282 -1.704109 -2.244066 0
M  V30 42 H 3.506624 -0.358315 -3.399736 0
M  V30 43 H 1.753538 -2.597865 -2.722089 0
M  V30 44 H 1.374998 -1.143200 -3.783303 0
M  V30 45 H 0.211915 -1.778560 -1.288120 0
M  V30 46 H 0.133289 -0.217125 -2.099200 0
M  V30 47 H -0.944972 0.836379 3.269144 0
M  V30 48 H -3.215951 -0.100875 3.805775 0
M  V30 49 H -4.904309 -2.955021 1.196759 0
M  V30 END ATOM
M  V30 BEGIN BOND
M  V30 1 1 1 2
M  V30 2 1 2 3
M  V30 3 2 3 4
M  V30 4 1 4 5
M  V30 5 1 5 6
M  V30 6 2 6 7
M  V30 7 2 6 8
M  V30 8 1 6 9
M  V30 9 1 9 10
M  V30 10 1 10 11
M  V30 11 2 11 12
M  V30 12 1 12 13
M  V30 13 2 13 14
M  V30 14 1 14 15
M  V30 15 1 9 16
M  V30 16 1 16 17
M  V30 17 1 17 18
M  V30 18 1 18 19
M  V30 19 1 19 20
M  V30 20 2 5 21
M  V30 21 1 21 22
M  V30 22 2 22 23
M  V30 23 1 23 24
M  V30 24 1 24 25
M  V30 25 2 25 26
M  V30 26 1 26 27
M  V30 27 2 27 28
M  V30 28 1 23 3
M  V30 29 1 28 24
M  V30 30 1 15 11
M  V30 31 1 20 16
M  V30 32 1 1 29
M  V30 33 1 1 30
M  V30 34 1 1 31
M  V30 35 1 4 32
M  V30 36 1 10 33
M  V30 37 1 10 34
M  V30 38 1 12 35
M  V30 39 1 13 36
M  V30 40 1 14 37
M  V30 41 1 16 38
M  V30 42 1 17 39
M  V30 43 1 17 40
M  V30 44 1 18 41
M  V30 45 1 18 42
M  V30 46 1 19 43
M  V30 47 1 19 44
M  V30 48 1 20 45
M  V30 49 1 20 46
M  V30 50 1 21 47
M  V30 51 1 22 48
M  V30 52 1 25 49
M  V30 END BOND
M  V30 END CTAB
M  END
>  <Dataset>  (315) 
ChEMBL_Kinases

>  <Ligand_Instance>  (315) 
nan

>  <PDB_ID>  (315) 
nan

>  <Standardized_SMILES>  (315) 
COc1cc(S(=O)(=O)N(Cc2ccco2)C2CCCC2)ccc1-n1cnnn1

>  <Name>  (315) 
nan

>  <Pocket>  (315) 
nan

>  <ATP_Site>  (315) 
nan

>  <Peripheral>  (315) 
nan

>  <Num_H_Atoms_ProtBoundConf>  (315) 
nan

>  <Num_Resolved_Atoms>  (315) 
nan

>  <Num_Not_Resolved_Atoms>  (315) 
nan

$$$$
CHEMBL1484431
     RDKit          3D

  0  0  0  0  0  0  0  0  0  0999 V3000
M  V30 BEGIN CTAB
M  V30 COUNTS 45 46 0 0 0
M  V30 BEGIN ATOM
M  V30 1 C -0.124862 -5.136465 3.877068 0
M  V30 2 O -0.488529 -3.963026 3.224244 0
M  V30 3 C 0.036387 -3.577289 2.027951 0
M  V30 4 C 0.964472 -4.190439 1.246302 0
M  V30 5 C 1.418001 -3.684095 0.033835 0
M  V30 6 C 0.905773 -2.490994 -0.414324 0
M  V30 7 C -0.038649 -1.786347 0.298391 0
M  V30 8 C -0.663062 -0.481552 -0.087762 0
M  V30 9 C 0.026040 0.599159 0.604051 0
M  V30 10 C 1.281997 1.095968 0.320817 0
M  V30 11 N 1.999997 0.536823 -0.745208 0
M  V30 12 N 1.888950 2.090904 0.987881 0
M  V30 13 C 3.229933 2.551851 0.609701 0
M  V30 14 C 1.251562 2.662077 2.008539 0
M  V30 15 O 1.789014 3.596950 2.656686 0
M  V30 16 N 0.031346 2.262666 2.372405 0
M  V30 17 C -0.639454 2.902204 3.491220 0
M  V30 18 C -0.553831 1.271656 1.695213 0
M  V30 19 O -1.721785 0.929269 2.086183 0
M  V30 20 C -0.889857 -0.356021 -1.543350 0
M  V30 21 C -1.525790 0.982100 -1.891736 0
M  V30 22 N -1.845098 -1.376655 -1.946920 0 CHG=1 VAL=4
M  V30 23 O -1.894314 -2.367781 -2.735392 0
M  V30 24 O -2.809455 -2.302648 -2.269277 0 CHG=-1 VAL=1
M  V30 25 C -0.426434 -2.385281 1.505048 0
M  V30 26 H -1.019293 -5.722342 4.223780 0
M  V30 27 H 0.583780 -5.761984 3.324967 0
M  V30 28 H 0.405153 -4.833354 4.828548 0
M  V30 29 H 1.370668 -5.124738 1.589917 0
M  V30 30 H 2.154023 -4.203694 -0.553615 0
M  V30 31 H 1.221330 -2.069078 -1.335733 0
M  V30 32 H -1.698856 -0.522054 0.330801 0
M  V30 33 H 2.674828 -0.174139 -1.101771 0
M  V30 34 H 2.029666 0.797699 -1.767124 0
M  V30 35 H 3.906484 2.531853 1.485056 0
M  V30 36 H 3.652671 1.855885 -0.156295 0
M  V30 37 H 3.173345 3.569172 0.151413 0
M  V30 38 H 0.071673 3.071348 4.347159 0
M  V30 39 H -1.461468 2.277580 3.904483 0
M  V30 40 H -1.000325 3.901446 3.175661 0
M  V30 41 H -0.027234 -0.478301 -2.199993 0
M  V30 42 H -1.405401 1.743968 -1.109541 0
M  V30 43 H -2.642777 0.871766 -2.009943 0
M  V30 44 H -1.178381 1.328776 -2.891965 0
M  V30 45 H -1.183403 -1.815847 2.072774 0
M  V30 END ATOM
M  V30 BEGIN BOND
M  V30 1 1 1 2
M  V30 2 1 2 3
M  V30 3 2 3 4
M  V30 4 1 4 5
M  V30 5 2 5 6
M  V30 6 1 6 7
M  V30 7 1 7 8
M  V30 8 1 8 9
M  V30 9 2 9 10
M  V30 10 1 10 11
M  V30 11 1 10 12
M  V30 12 1 12 13
M  V30 13 1 12 14
M  V30 14 2 14 15
M  V30 15 1 14 16
M  V30 16 1 16 17
M  V30 17 1 16 18
M  V30 18 2 18 19
M  V30 19 1 8 20
M  V30 20 1 20 21
M  V30 21 1 20 22
M  V30 22 2 22 23
M  V30 23 1 22 24
M  V30 24 2 7 25
M  V30 25 1 25 3
M  V30 26 1 18 9
M  V30 27 1 1 26
M  V30 28 1 1 27
M  V30 29 1 1 28
M  V30 30 1 4 29
M  V30 31 1 5 30
M  V30 32 1 6 31
M  V30 33 1 8 32
M  V30 34 1 11 33
M  V30 35 1 11 34
M  V30 36 1 13 35
M  V30 37 1 13 36
M  V30 38 1 13 37
M  V30 39 1 17 38
M  V30 40 1 17 39
M  V30 41 1 17 40
M  V30 42 1 20 41
M  V30 43 1 21 42
M  V30 44 1 21 43
M  V30 45 1 21 44
M  V30 46 1 25 45
M  V30 END BOND
M  V30 END CTAB
M  END
>  <Dataset>  (316) 
ChEMBL_Kinases

>  <Ligand_Instance>  (316) 
nan

>  <PDB_ID>  (316) 
nan

>  <Standardized_SMILES>  (316) 
COc1cccc(C(c2c(N)n(C)c(=O)n(C)c2=O)C(C)[N+](=O)[O-])c1

>  <Name>  (316) 
nan

>  <Pocket>  (316) 
nan

>  <ATP_Site>  (316) 
nan

>  <Peripheral>  (316) 
nan

>  <Num_H_Atoms_ProtBoundConf>  (316) 
nan

>  <Num_Resolved_Atoms>  (316) 
nan

>  <Num_Not_Resolved_Atoms>  (316) 
nan

$$$$
CHEMBL1485544
     RDKit          3D

  0  0  0  0  0  0  0  0  0  0999 V3000
M  V30 BEGIN CTAB
M  V30 COUNTS 43 45 0 0 0
M  V30 BEGIN ATOM
M  V30 1 C 0.702040 -3.067897 2.430193 0
M  V30 2 C 1.532950 -3.301515 1.162519 0
M  V30 3 C 2.500281 -4.413347 1.491970 0
M  V30 4 C 0.595242 -3.710110 0.069595 0
M  V30 5 C 2.257426 -1.997425 0.829225 0
M  V30 6 C 3.056394 -2.207291 -0.382314 0
M  V30 7 C 3.507183 -0.973010 -1.106303 0
M  V30 8 C 2.503810 0.094812 -1.066491 0
M  V30 9 O 2.370933 1.132826 -1.821538 0
M  V30 10 N 1.347165 1.858376 -1.472403 0
M  V30 11 C 0.740942 1.281378 -0.412021 0
M  V30 12 C -0.432510 1.894514 0.173233 0
M  V30 13 O -0.876673 2.970805 -0.322183 0
M  V30 14 N -1.194192 1.439772 1.277296 0
M  V30 15 C -2.288809 2.307748 1.571703 0
M  V30 16 C -2.261553 3.373564 2.418113 0
M  V30 17 C -3.433898 4.114977 2.585298 0
M  V30 18 C -4.588374 3.766288 1.902984 0
M  V30 19 N -4.597194 2.709251 1.069996 0
M  V30 20 C -3.465435 1.984885 0.901832 0
M  V30 21 C 1.479060 0.153156 -0.150580 0
M  V30 22 C 1.298701 -0.859871 0.878359 0
M  V30 23 H -0.330257 -2.761343 2.205446 0
M  V30 24 H 1.215601 -2.270791 3.036855 0
M  V30 25 H 0.654140 -3.974421 3.061751 0
M  V30 26 H 1.895309 -5.353703 1.492096 0
M  V30 27 H 3.328884 -4.449479 0.782026 0
M  V30 28 H 2.818410 -4.268963 2.561860 0
M  V30 29 H -0.468654 -3.794312 0.429054 0
M  V30 30 H 0.879048 -4.711052 -0.343701 0
M  V30 31 H 0.537496 -2.995407 -0.777795 0
M  V30 32 H 2.962622 -1.869415 1.696856 0
M  V30 33 H 2.548011 -2.865436 -1.118010 0
M  V30 34 H 4.001200 -2.754102 -0.131170 0
M  V30 35 H 4.506154 -0.637991 -0.724267 0
M  V30 36 H 3.695937 -1.233962 -2.168509 0
M  V30 37 H -0.886441 0.557927 1.736197 0
M  V30 38 H -1.329303 3.567060 2.899977 0
M  V30 39 H -3.365695 4.959241 3.272264 0
M  V30 40 H -5.447841 4.417465 2.109991 0
M  V30 41 H -3.568214 1.142017 0.203731 0
M  V30 42 H 0.270306 -1.277713 0.761563 0
M  V30 43 H 1.304761 -0.356890 1.874088 0
M  V30 END ATOM
M  V30 BEGIN BOND
M  V30 1 1 1 2
M  V30 2 1 2 3
M  V30 3 1 2 4
M  V30 4 1 2 5
M  V30 5 1 5 6
M  V30 6 1 6 7
M  V30 7 1 7 8
M  V30 8 1 8 9
M  V30 9 1 9 10
M  V30 10 2 10 11
M  V30 11 1 11 12
M  V30 12 2 12 13
M  V30 13 1 12 14
M  V30 14 1 14 15
M  V30 15 2 15 16
M  V30 16 1 16 17
M  V30 17 2 17 18
M  V30 18 1 18 19
M  V30 19 2 19 20
M  V30 20 1 11 21
M  V30 21 1 21 22
M  V30 22 1 22 5
M  V30 23 2 21 8
M  V30 24 1 20 15
M  V30 25 1 1 23
M  V30 26 1 1 24
M  V30 27 1 1 25
M  V30 28 1 3 26
M  V30 29 1 3 27
M  V30 30 1 3 28
M  V30 31 1 4 29
M  V30 32 1 4 30
M  V30 33 1 4 31
M  V30 34 1 5 32
M  V30 35 1 6 33
M  V30 36 1 6 34
M  V30 37 1 7 35
M  V30 38 1 7 36
M  V30 39 1 14 37
M  V30 40 1 16 38
M  V30 41 1 17 39
M  V30 42 1 18 40
M  V30 43 1 20 41
M  V30 44 1 22 42
M  V30 45 1 22 43
M  V30 END BOND
M  V30 END CTAB
M  END
>  <Dataset>  (317) 
ChEMBL_Kinases

>  <Ligand_Instance>  (317) 
nan

>  <PDB_ID>  (317) 
nan

>  <Standardized_SMILES>  (317) 
CC(C)(C)C1CCc2onc(C(=O)Nc3cccnc3)c2C1

>  <Name>  (317) 
nan

>  <Pocket>  (317) 
nan

>  <ATP_Site>  (317) 
nan

>  <Peripheral>  (317) 
nan

>  <Num_H_Atoms_ProtBoundConf>  (317) 
nan

>  <Num_Resolved_Atoms>  (317) 
nan

>  <Num_Not_Resolved_Atoms>  (317) 
nan

$$$$
CHEMBL1484751
     RDKit          3D

  0  0  0  0  0  0  0  0  0  0999 V3000
M  V30 BEGIN CTAB
M  V30 COUNTS 26 28 0 0 0
M  V30 BEGIN ATOM
M  V30 1 N 2.879132 -1.788840 3.951527 0
M  V30 2 C 2.222034 -2.092612 2.717849 0
M  V30 3 N 2.172382 -3.324747 2.195712 0
M  V30 4 C 1.516267 -3.479160 1.016664 0
M  V30 5 N 0.912797 -2.467586 0.341413 0
M  V30 6 C 0.940301 -1.199566 0.838325 0
M  V30 7 C 1.610666 -1.031160 2.046759 0
M  V30 8 N 1.526354 0.292542 2.371826 0
M  V30 9 C 0.832444 0.921672 1.405948 0
M  V30 10 N 0.482105 0.012463 0.483112 0
M  V30 11 C -0.258912 0.170171 -0.730691 0 CFG=2
M  V30 12 C -0.806740 1.535560 -0.975906 0
M  V30 13 C -2.308539 1.348118 -1.026704 0
M  V30 14 C -2.466978 -0.043018 -0.481162 0
M  V30 15 O -1.309916 -0.731479 -0.820096 0
M  V30 16 H 3.819153 -1.418188 4.253095 0
M  V30 17 H 2.081062 -2.064169 4.596713 0
M  V30 18 H 1.501179 -4.498475 0.629251 0
M  V30 19 H 0.605188 1.966826 1.387256 0
M  V30 20 H 0.430933 -0.069119 -1.579928 0
M  V30 21 H -0.478920 1.970784 -1.962278 0
M  V30 22 H -0.613055 2.288008 -0.217187 0
M  V30 23 H -2.852082 2.054915 -0.360056 0
M  V30 24 H -2.707234 1.459856 -2.054854 0
M  V30 25 H -2.588090 -0.029091 0.621536 0
M  V30 26 H -3.365574 -0.520636 -0.929979 0
M  V30 END ATOM
M  V30 BEGIN BOND
M  V30 1 1 1 2
M  V30 2 2 2 3
M  V30 3 1 3 4
M  V30 4 2 4 5
M  V30 5 1 5 6
M  V30 6 2 6 7
M  V30 7 1 7 8
M  V30 8 2 8 9
M  V30 9 1 9 10
M  V30 10 1 10 11
M  V30 11 1 11 12
M  V30 12 1 12 13
M  V30 13 1 13 14
M  V30 14 1 14 15
M  V30 15 1 7 2
M  V30 16 1 15 11
M  V30 17 1 10 6
M  V30 18 1 1 16
M  V30 19 1 1 17
M  V30 20 1 4 18
M  V30 21 1 9 19
M  V30 22 1 11 20 CFG=3
M  V30 23 1 12 21
M  V30 24 1 12 22
M  V30 25 1 13 23
M  V30 26 1 13 24
M  V30 27 1 14 25
M  V30 28 1 14 26
M  V30 END BOND
M  V30 END CTAB
M  END
>  <Dataset>  (318) 
ChEMBL_Kinases

>  <Ligand_Instance>  (318) 
nan

>  <PDB_ID>  (318) 
nan

>  <Standardized_SMILES>  (318) 
Nc1ncnc2c1ncn2[C@@H]1CCCO1

>  <Name>  (318) 
nan

>  <Pocket>  (318) 
nan

>  <ATP_Site>  (318) 
nan

>  <Peripheral>  (318) 
nan

>  <Num_H_Atoms_ProtBoundConf>  (318) 
nan

>  <Num_Resolved_Atoms>  (318) 
nan

>  <Num_Not_Resolved_Atoms>  (318) 
nan

$$$$
CHEMBL1484944
     RDKit          3D

  0  0  0  0  0  0  0  0  0  0999 V3000
M  V30 BEGIN CTAB
M  V30 COUNTS 45 48 0 0 0
M  V30 BEGIN ATOM
M  V30 1 C 0.392634 -4.845751 2.336883 0
M  V30 2 O 0.577107 -3.669556 1.607494 0
M  V30 3 C 0.916800 -3.610242 0.282960 0
M  V30 4 C 1.099816 -4.778375 -0.419939 0
M  V30 5 C 1.441186 -4.692002 -1.751252 0
M  V30 6 C 1.595972 -3.472757 -2.365444 0
M  V30 7 C 1.423125 -2.276219 -1.702421 0
M  V30 8 N 1.593291 -1.042117 -2.376700 0
M  V30 9 C 1.460373 0.278002 -1.870305 0
M  V30 10 N 1.669557 1.313794 -2.695232 0
M  V30 11 C 1.574329 2.600226 -2.335467 0
M  V30 12 C 1.239698 2.899583 -1.033400 0
M  V30 13 N 1.130109 4.161386 -0.617386 0
M  V30 14 C 0.804668 4.481993 0.648699 0
M  V30 15 C 0.589533 3.415905 1.497105 0
M  V30 16 O 0.278950 3.677471 2.705788 0
M  V30 17 N 0.692251 2.139809 1.108018 0
M  V30 18 C 0.454924 1.077770 2.042966 0
M  V30 19 C -0.987242 0.629409 2.090697 0 CFG=1
M  V30 20 C -1.178222 -0.484547 3.086335 0
M  V30 21 C -2.375219 -0.080182 3.878500 0
M  V30 22 C -2.698225 1.291194 3.396238 0
M  V30 23 O -1.865710 1.639393 2.370195 0
M  V30 24 C 1.023343 1.845221 -0.180342 0
M  V30 25 N 1.136868 0.600258 -0.611814 0
M  V30 26 C 1.082934 -2.413577 -0.375255 0
M  V30 27 H 1.337640 -5.239147 2.787282 0
M  V30 28 H -0.066896 -5.641083 1.721501 0
M  V30 29 H -0.326243 -4.707205 3.192855 0
M  V30 30 H 0.997802 -5.771559 -0.013386 0
M  V30 31 H 1.592366 -5.594310 -2.332450 0
M  V30 32 H 1.868467 -3.475916 -3.427492 0
M  V30 33 H 1.856899 -1.129673 -3.403431 0
M  V30 34 H 1.761820 3.349857 -3.073258 0
M  V30 35 H 0.708023 5.499355 1.016424 0
M  V30 36 H 1.090610 0.205188 1.862441 0
M  V30 37 H 0.701243 1.475147 3.063411 0
M  V30 38 H -1.255230 0.208675 1.097649 0
M  V30 39 H -0.256260 -0.656493 3.689025 0
M  V30 40 H -1.413052 -1.465767 2.603224 0
M  V30 41 H -2.075554 -0.090212 4.950225 0
M  V30 42 H -3.249148 -0.783667 3.761453 0
M  V30 43 H -2.678135 2.015112 4.251415 0
M  V30 44 H -3.763880 1.289797 3.025759 0
M  V30 45 H 0.925511 -1.547191 0.230576 0
M  V30 END ATOM
M  V30 BEGIN BOND
M  V30 1 1 1 2
M  V30 2 1 2 3
M  V30 3 2 3 4
M  V30 4 1 4 5
M  V30 5 2 5 6
M  V30 6 1 6 7
M  V30 7 1 7 8
M  V30 8 1 8 9
M  V30 9 2 9 10
M  V30 10 1 10 11
M  V30 11 2 11 12
M  V30 12 1 12 13
M  V30 13 2 13 14
M  V30 14 1 14 15
M  V30 15 2 15 16
M  V30 16 1 15 17
M  V30 17 1 17 18
M  V30 18 1 18 19
M  V30 19 1 19 20
M  V30 20 1 20 21
M  V30 21 1 21 22
M  V30 22 1 22 23
M  V30 23 1 17 24
M  V30 24 2 24 25
M  V30 25 2 7 26
M  V30 26 1 26 3
M  V30 27 1 25 9
M  V30 28 1 24 12
M  V30 29 1 23 19
M  V30 30 1 1 27
M  V30 31 1 1 28
M  V30 32 1 1 29
M  V30 33 1 4 30
M  V30 34 1 5 31
M  V30 35 1 6 32
M  V30 36 1 8 33
M  V30 37 1 11 34
M  V30 38 1 14 35
M  V30 39 1 18 36
M  V30 40 1 18 37
M  V30 41 1 19 38 CFG=3
M  V30 42 1 20 39
M  V30 43 1 20 40
M  V30 44 1 21 41
M  V30 45 1 21 42
M  V30 46 1 22 43
M  V30 47 1 22 44
M  V30 48 1 26 45
M  V30 END BOND
M  V30 END CTAB
M  END
>  <Dataset>  (319) 
ChEMBL_Kinases

>  <Ligand_Instance>  (319) 
nan

>  <PDB_ID>  (319) 
nan

>  <Standardized_SMILES>  (319) 
COc1cccc(Nc2ncc3ncc(=O)n(C[C@H]4CCCO4)c3n2)c1

>  <Name>  (319) 
nan

>  <Pocket>  (319) 
nan

>  <ATP_Site>  (319) 
nan

>  <Peripheral>  (319) 
nan

>  <Num_H_Atoms_ProtBoundConf>  (319) 
nan

>  <Num_Resolved_Atoms>  (319) 
nan

>  <Num_Not_Resolved_Atoms>  (319) 
nan

$$$$
CHEMBL1485069
     RDKit          3D

  0  0  0  0  0  0  0  0  0  0999 V3000
M  V30 BEGIN CTAB
M  V30 COUNTS 62 62 0 0 0
M  V30 BEGIN ATOM
M  V30 1 C 1.353785 -5.807696 -0.398558 0
M  V30 2 O 0.514755 -5.024082 -1.183072 0
M  V30 3 C -0.069830 -4.068643 -0.398283 0 CFG=1
M  V30 4 C 0.334043 -2.674645 -0.897387 0
M  V30 5 O 1.727299 -2.431605 -0.820010 0
M  V30 6 C 2.177307 -1.244415 -1.377463 0
M  V30 7 O 1.071602 -0.805318 -1.790776 0
M  V30 8 C 2.792736 -0.028618 -1.922996 0 CFG=1
M  V30 9 C 3.948478 -0.464877 -2.802240 0
M  V30 10 N 1.844332 0.777954 -2.700510 0
M  V30 11 C 0.975792 1.730009 -3.294444 0
M  V30 12 O 1.509545 2.207725 -2.265109 0
M  V30 13 C 0.453038 3.146718 -3.135586 0
M  V30 14 C 0.921753 3.745372 -1.897530 0
M  V30 15 C -0.135585 4.137313 -1.223025 0
M  V30 16 C -1.509659 4.419346 -0.806091 0 CFG=1
M  V30 17 C -2.542534 4.014986 -1.855331 0
M  V30 18 C -1.793060 3.631179 0.441639 0 CFG=2
M  V30 19 O -0.679281 3.516458 1.247074 0
M  V30 20 C -0.706702 4.284835 2.389340 0
M  V30 21 C -2.594393 2.404451 0.348702 0
M  V30 22 O -1.979479 1.305046 -0.228552 0
M  V30 23 C -2.578696 0.049439 -0.347281 0
M  V30 24 O -3.500866 0.666501 0.233665 0
M  V30 25 C -3.205061 -1.283984 -0.477651 0
M  V30 26 C -2.736863 -2.041473 0.711545 0
M  V30 27 C -2.088617 -3.179020 0.589639 0
M  V30 28 C -1.612833 -4.083565 -0.450813 0 CFG=2
M  V30 29 C -2.044871 -5.488671 -0.132051 0
M  V30 30 H 2.163636 -5.182070 0.078632 0
M  V30 31 H 1.919756 -6.548780 -1.010217 0
M  V30 32 H 0.799595 -6.270686 0.437884 0
M  V30 33 H 0.230615 -4.151238 0.633772 0
M  V30 34 H -0.171439 -1.894099 -0.296691 0
M  V30 35 H -0.065662 -2.649894 -1.923004 0
M  V30 36 H 3.255965 0.600525 -1.121172 0
M  V30 37 H 4.809041 -0.811538 -2.234408 0
M  V30 38 H 3.602363 -1.193386 -3.592487 0
M  V30 39 H 4.273846 0.429404 -3.393890 0
M  V30 40 H 1.565758 0.047870 -3.434857 0
M  V30 41 H -0.635708 3.126597 -3.316207 0
M  V30 42 H 0.866063 3.709543 -3.993267 0
M  V30 43 H 1.960050 3.829393 -1.653695 0
M  V30 44 H 0.387716 4.541507 -0.347389 0
M  V30 45 H -1.654548 5.515438 -0.605601 0
M  V30 46 H -2.443211 4.563396 -2.804790 0
M  V30 47 H -3.572806 4.265556 -1.504020 0
M  V30 48 H -2.518118 2.934158 -1.889766 0
M  V30 49 H -2.459868 4.416413 1.042088 0
M  V30 50 H 0.260806 4.082606 2.935811 0
M  V30 51 H -0.712910 5.371817 2.193192 0
M  V30 52 H -1.509653 3.953774 3.076700 0
M  V30 53 H -3.638167 2.614888 -0.034733 0
M  V30 54 H -2.805175 2.121773 1.438910 0
M  V30 55 H -2.894442 -1.766420 -1.431269 0
M  V30 56 H -4.294888 -1.277468 -0.488642 0
M  V30 57 H -2.957928 -1.609976 1.650616 0
M  V30 58 H -1.792806 -3.609930 1.564120 0
M  V30 59 H -1.970366 -3.856504 -1.467684 0
M  V30 60 H -1.876944 -6.172930 -0.988021 0
M  V30 61 H -3.148793 -5.519013 0.044188 0
M  V30 62 H -1.529208 -5.919630 0.747578 0
M  V30 END ATOM
M  V30 BEGIN BOND
M  V30 1 1 1 2
M  V30 2 1 2 3
M  V30 3 1 3 4
M  V30 4 1 4 5
M  V30 5 1 5 6
M  V30 6 2 6 7
M  V30 7 1 6 8
M  V30 8 1 8 9
M  V30 9 1 8 10
M  V30 10 1 10 11
M  V30 11 2 11 12
M  V30 12 1 11 13
M  V30 13 1 13 14
M  V30 14 2 14 15
M  V30 15 1 15 16
M  V30 16 1 16 17
M  V30 17 1 16 18
M  V30 18 1 18 19
M  V30 19 1 19 20
M  V30 20 1 18 21
M  V30 21 1 21 22
M  V30 22 1 22 23
M  V30 23 2 23 24
M  V30 24 1 23 25
M  V30 25 1 25 26
M  V30 26 2 26 27
M  V30 27 1 27 28
M  V30 28 1 28 29
M  V30 29 1 28 3
M  V30 30 1 1 30
M  V30 31 1 1 31
M  V30 32 1 1 32
M  V30 33 1 3 33 CFG=1
M  V30 34 1 4 34
M  V30 35 1 4 35
M  V30 36 1 8 36 CFG=1
M  V30 37 1 9 37
M  V30 38 1 9 38
M  V30 39 1 9 39
M  V30 40 1 10 40
M  V30 41 1 13 41
M  V30 42 1 13 42
M  V30 43 1 14 43
M  V30 44 1 15 44
M  V30 45 1 16 45 CFG=1
M  V30 46 1 17 46
M  V30 47 1 17 47
M  V30 48 1 17 48
M  V30 49 1 18 49 CFG=1
M  V30 50 1 20 50
M  V30 51 1 20 51
M  V30 52 1 20 52
M  V30 53 1 21 53
M  V30 54 1 21 54
M  V30 55 1 25 55
M  V30 56 1 25 56
M  V30 57 1 26 57
M  V30 58 1 27 58
M  V30 59 1 28 59 CFG=3
M  V30 60 1 29 60
M  V30 61 1 29 61
M  V30 62 1 29 62
M  V30 END BOND
M  V30 END CTAB
M  END
>  <Dataset>  (320) 
ChEMBL_Kinases

>  <Ligand_Instance>  (320) 
nan

>  <PDB_ID>  (320) 
nan

>  <Standardized_SMILES>  (320) 
CO[C@H]1COC(=O)[C@@H](C)NC(=O)C/C=C\[C@@H](C)[C@H](OC)COC(=O)C/C=C\[C@@H]1C

>  <Name>  (320) 
nan

>  <Pocket>  (320) 
nan

>  <ATP_Site>  (320) 
nan

>  <Peripheral>  (320) 
nan

>  <Num_H_Atoms_ProtBoundConf>  (320) 
nan

>  <Num_Resolved_Atoms>  (320) 
nan

>  <Num_Not_Resolved_Atoms>  (320) 
nan

$$$$
CHEMBL1485078
     RDKit          3D

  0  0  0  0  0  0  0  0  0  0999 V3000
M  V30 BEGIN CTAB
M  V30 COUNTS 54 57 0 0 0
M  V30 BEGIN ATOM
M  V30 1 C 9.088498 -2.417047 -0.821503 0
M  V30 2 O 8.689273 -1.660735 -1.929737 0
M  V30 3 C 7.427281 -1.121107 -2.113432 0
M  V30 4 C 6.383987 -1.275129 -1.198365 0
M  V30 5 C 5.121928 -0.742855 -1.369748 0
M  V30 6 C 4.907272 -0.018436 -2.526540 0
M  V30 7 C 3.570679 0.543017 -2.719846 0
M  V30 8 N 3.086943 1.281624 -3.726827 0
M  V30 9 N 1.813582 1.595325 -3.524240 0
M  V30 10 C 1.481266 1.023008 -2.325094 0
M  V30 11 N 0.335701 0.930162 -1.485780 0
M  V30 12 C -0.176490 1.720890 -0.427190 0
M  V30 13 O 0.349840 2.795222 0.030667 0
M  V30 14 C -1.414041 1.341915 0.254902 0
M  V30 15 C -1.664870 1.887366 1.501771 0
M  V30 16 C -2.848953 1.488960 2.103570 0
M  V30 17 C -3.817994 0.616706 1.623848 0
M  V30 18 S -5.208606 0.251078 2.576015 0
M  V30 19 O -5.361386 1.405250 3.576996 0
M  V30 20 O -6.490745 0.340673 1.755614 0
M  V30 21 N -5.141821 -1.161272 3.494206 0
M  V30 22 C -4.084403 -1.130559 4.457034 0
M  V30 23 O -3.126373 -2.059348 4.065022 0
M  V30 24 C -3.505143 -2.595478 2.848350 0
M  V30 25 C -5.003146 -2.405706 2.854498 0
M  V30 26 C -5.684098 -2.627240 1.564062 0
M  V30 27 C -5.517255 -3.480641 3.834857 0
M  V30 28 C -3.488756 0.117128 0.366096 0
M  V30 29 C -2.334991 0.453462 -0.310826 0
M  V30 30 O 2.560920 0.414227 -1.897690 0
M  V30 31 C 5.891506 0.178070 -3.480149 0
M  V30 32 C 7.137633 -0.386700 -3.242687 0
M  V30 33 H 9.832846 -3.165860 -1.214375 0
M  V30 34 H 9.614339 -1.844007 -0.031414 0
M  V30 35 H 8.267495 -2.971514 -0.340093 0
M  V30 36 H 6.554854 -1.844042 -0.291604 0
M  V30 37 H 4.331645 -0.874170 -0.646205 0
M  V30 38 H -0.177077 0.063119 -1.788962 0
M  V30 39 H -0.999799 2.579881 2.000687 0
M  V30 40 H -3.034156 1.923969 3.080008 0
M  V30 41 H -4.512112 -1.350042 5.459569 0
M  V30 42 H -3.654061 -0.120904 4.507446 0
M  V30 43 H -2.970031 -2.125587 2.035005 0
M  V30 44 H -3.221863 -3.691703 2.835257 0
M  V30 45 H -5.997901 -1.762152 0.984676 0
M  V30 46 H -6.549579 -3.313197 1.706526 0
M  V30 47 H -4.986576 -3.216923 0.904242 0
M  V30 48 H -6.536281 -3.147835 4.126879 0
M  V30 49 H -4.815860 -3.463057 4.690422 0
M  V30 50 H -5.516503 -4.433745 3.270906 0
M  V30 51 H -4.217847 -0.576221 -0.068478 0
M  V30 52 H -2.144331 0.025322 -1.284060 0
M  V30 53 H 5.694566 0.749147 -4.378999 0
M  V30 54 H 7.951953 -0.265761 -3.956586 0
M  V30 END ATOM
M  V30 BEGIN BOND
M  V30 1 1 1 2
M  V30 2 1 2 3
M  V30 3 2 3 4
M  V30 4 1 4 5
M  V30 5 2 5 6
M  V30 6 1 6 7
M  V30 7 2 7 8
M  V30 8 1 8 9
M  V30 9 2 9 10
M  V30 10 1 10 11
M  V30 11 1 11 12
M  V30 12 2 12 13
M  V30 13 1 12 14
M  V30 14 2 14 15
M  V30 15 1 15 16
M  V30 16 2 16 17
M  V30 17 1 17 18
M  V30 18 2 18 19
M  V30 19 2 18 20
M  V30 20 1 18 21
M  V30 21 1 21 22
M  V30 22 1 22 23
M  V30 23 1 23 24
M  V30 24 1 24 25
M  V30 25 1 25 26
M  V30 26 1 25 27
M  V30 27 1 17 28
M  V30 28 2 28 29
M  V30 29 1 10 30
M  V30 30 1 6 31
M  V30 31 2 31 32
M  V30 32 1 32 3
M  V30 33 1 30 7
M  V30 34 1 29 14
M  V30 35 1 25 21
M  V30 36 1 1 33
M  V30 37 1 1 34
M  V30 38 1 1 35
M  V30 39 1 4 36
M  V30 40 1 5 37
M  V30 41 1 11 38
M  V30 42 1 15 39
M  V30 43 1 16 40
M  V30 44 1 22 41
M  V30 45 1 22 42
M  V30 46 1 24 43
M  V30 47 1 24 44
M  V30 48 1 26 45
M  V30 49 1 26 46
M  V30 50 1 26 47
M  V30 51 1 27 48
M  V30 52 1 27 49
M  V30 53 1 27 50
M  V30 54 1 28 51
M  V30 55 1 29 52
M  V30 56 1 31 53
M  V30 57 1 32 54
M  V30 END BOND
M  V30 END CTAB
M  END
>  <Dataset>  (321) 
ChEMBL_Kinases

>  <Ligand_Instance>  (321) 
nan

>  <PDB_ID>  (321) 
nan

>  <Standardized_SMILES>  (321) 
COc1ccc(-c2nnc(NC(=O)c3ccc(S(=O)(=O)N4COCC4(C)C)cc3)o2)cc1

>  <Name>  (321) 
nan

>  <Pocket>  (321) 
nan

>  <ATP_Site>  (321) 
nan

>  <Peripheral>  (321) 
nan

>  <Num_H_Atoms_ProtBoundConf>  (321) 
nan

>  <Num_Resolved_Atoms>  (321) 
nan

>  <Num_Not_Resolved_Atoms>  (321) 
nan

$$$$
CHEMBL1485124
     RDKit          3D

  0  0  0  0  0  0  0  0  0  0999 V3000
M  V30 BEGIN CTAB
M  V30 COUNTS 34 35 0 0 0
M  V30 BEGIN ATOM
M  V30 1 O -1.186326 -4.279276 3.588365 0
M  V30 2 C -1.145937 -3.017813 2.961220 0
M  V30 3 C 0.024516 -2.246930 3.499280 0
M  V30 4 N 0.058778 -0.951605 2.852328 0
M  V30 5 C 0.286448 -0.790551 1.461897 0
M  V30 6 N 0.492505 -1.882014 0.710111 0
M  V30 7 C 0.724695 -1.844101 -0.610158 0
M  V30 8 C 0.930257 -2.999180 -1.335405 0
M  V30 9 C 1.162710 -2.881009 -2.687078 0
M  V30 10 C 1.186296 -1.630619 -3.286365 0
M  V30 11 C 0.980222 -0.470853 -2.559980 0
M  V30 12 C 0.744896 -0.594467 -1.190127 0
M  V30 13 N 0.541379 0.511363 -0.457995 0
M  V30 14 C 0.308638 0.476335 0.864267 0
M  V30 15 N 0.105000 1.672305 1.604362 0
M  V30 16 C 0.098723 3.015029 1.119638 0
M  V30 17 C -0.981306 3.357534 0.148517 0
M  V30 18 O -0.962151 2.603508 -1.012940 0
M  V30 19 H -2.113521 -4.620414 3.564852 0
M  V30 20 H -2.076331 -2.451734 3.177015 0
M  V30 21 H -1.044186 -3.197537 1.876133 0
M  V30 22 H 0.060804 -2.216390 4.594180 0
M  V30 23 H 0.948127 -2.774892 3.099497 0
M  V30 24 H -0.104918 -0.192881 3.544746 0
M  V30 25 H 0.912520 -3.980489 -0.869403 0
M  V30 26 H 1.334779 -3.734842 -3.336347 0
M  V30 27 H 1.367634 -1.491278 -4.358437 0
M  V30 28 H 0.997794 0.516781 -3.027407 0
M  V30 29 H -0.060363 1.553431 2.624645 0
M  V30 30 H 0.027699 3.727309 1.954161 0
M  V30 31 H 1.079589 3.262585 0.614819 0
M  V30 32 H -1.994059 3.336196 0.633872 0
M  V30 33 H -0.832517 4.431249 -0.147433 0
M  V30 34 H -1.874001 2.241766 -1.156590 0
M  V30 END ATOM
M  V30 BEGIN BOND
M  V30 1 1 1 2
M  V30 2 1 2 3
M  V30 3 1 3 4
M  V30 4 1 4 5
M  V30 5 2 5 6
M  V30 6 1 6 7
M  V30 7 2 7 8
M  V30 8 1 8 9
M  V30 9 2 9 10
M  V30 10 1 10 11
M  V30 11 2 11 12
M  V30 12 1 12 13
M  V30 13 2 13 14
M  V30 14 1 14 15
M  V30 15 1 15 16
M  V30 16 1 16 17
M  V30 17 1 17 18
M  V30 18 1 14 5
M  V30 19 1 12 7
M  V30 20 1 1 19
M  V30 21 1 2 20
M  V30 22 1 2 21
M  V30 23 1 3 22
M  V30 24 1 3 23
M  V30 25 1 4 24
M  V30 26 1 8 25
M  V30 27 1 9 26
M  V30 28 1 10 27
M  V30 29 1 11 28
M  V30 30 1 15 29
M  V30 31 1 16 30
M  V30 32 1 16 31
M  V30 33 1 17 32
M  V30 34 1 17 33
M  V30 35 1 18 34
M  V30 END BOND
M  V30 END CTAB
M  END
>  <Dataset>  (322) 
ChEMBL_Kinases

>  <Ligand_Instance>  (322) 
nan

>  <PDB_ID>  (322) 
nan

>  <Standardized_SMILES>  (322) 
OCCNc1nc2ccccc2nc1NCCO

>  <Name>  (322) 
nan

>  <Pocket>  (322) 
nan

>  <ATP_Site>  (322) 
nan

>  <Peripheral>  (322) 
nan

>  <Num_H_Atoms_ProtBoundConf>  (322) 
nan

>  <Num_Resolved_Atoms>  (322) 
nan

>  <Num_Not_Resolved_Atoms>  (322) 
nan

$$$$
CHEMBL1485132
     RDKit          3D

  0  0  0  0  0  0  0  0  0  0999 V3000
M  V30 BEGIN CTAB
M  V30 COUNTS 28 30 0 0 0
M  V30 BEGIN ATOM
M  V30 1 N 0.930664 -0.843589 2.163112 0
M  V30 2 C 1.361602 -0.888677 1.077802 0
M  V30 3 C 1.895319 -0.937723 -0.274260 0
M  V30 4 C 3.183126 -0.912151 -0.535922 0
M  V30 5 C 4.140842 -0.832726 0.564755 0
M  V30 6 C 4.159059 -1.446932 1.804973 0
M  V30 7 C 5.309894 -0.999239 2.466061 0
M  V30 8 C 5.936394 -0.133941 1.590692 0
M  V30 9 N 5.239699 -0.028850 0.445610 0
M  V30 10 S 0.654985 -1.031840 -1.572218 0
M  V30 11 C -0.993962 -1.013949 -0.759913 0
M  V30 12 N -1.873080 -1.560851 -0.292054 0
M  V30 13 C -2.974115 -1.085197 0.229372 0
M  V30 14 C -4.033692 -1.765130 0.793705 0
M  V30 15 C -5.108810 -1.093150 1.291391 0
M  V30 16 C -5.257688 0.303843 1.288531 0
M  V30 17 C -4.210545 0.992985 0.730381 0
M  V30 18 C -3.123062 0.244207 0.230436 0
M  V30 19 S -1.546475 0.822904 -0.585798 0
M  V30 20 H 3.532694 -0.951366 -1.579098 0
M  V30 21 H 3.386780 -2.146594 2.149616 0
M  V30 22 H 5.492501 -1.372263 3.454396 0
M  V30 23 H 6.867342 0.354038 1.884161 0
M  V30 24 H 5.504112 0.572982 -0.387908 0
M  V30 25 H -4.111440 -2.856828 0.892212 0
M  V30 26 H -5.967308 -1.614660 1.746247 0
M  V30 27 H -6.063621 0.911241 1.655585 0
M  V30 28 H -4.125608 2.060471 0.630742 0
M  V30 END ATOM
M  V30 BEGIN BOND
M  V30 1 3 1 2
M  V30 2 1 2 3
M  V30 3 2 3 4
M  V30 4 1 4 5
M  V30 5 2 5 6
M  V30 6 1 6 7
M  V30 7 2 7 8
M  V30 8 1 8 9
M  V30 9 1 3 10
M  V30 10 1 10 11
M  V30 11 2 11 12
M  V30 12 1 12 13
M  V30 13 2 13 14
M  V30 14 1 14 15
M  V30 15 2 15 16
M  V30 16 1 16 17
M  V30 17 2 17 18
M  V30 18 1 18 19
M  V30 19 1 9 5
M  V30 20 1 19 11
M  V30 21 1 18 13
M  V30 22 1 4 20
M  V30 23 1 6 21
M  V30 24 1 7 22
M  V30 25 1 8 23
M  V30 26 1 9 24
M  V30 27 1 14 25
M  V30 28 1 15 26
M  V30 29 1 16 27
M  V30 30 1 17 28
M  V30 END BOND
M  V30 END CTAB
M  END
>  <Dataset>  (323) 
ChEMBL_Kinases

>  <Ligand_Instance>  (323) 
nan

>  <PDB_ID>  (323) 
nan

>  <Standardized_SMILES>  (323) 
N#C/C(=C\c1ccc[nH]1)Sc1nc2ccccc2s1

>  <Name>  (323) 
nan

>  <Pocket>  (323) 
nan

>  <ATP_Site>  (323) 
nan

>  <Peripheral>  (323) 
nan

>  <Num_H_Atoms_ProtBoundConf>  (323) 
nan

>  <Num_Resolved_Atoms>  (323) 
nan

>  <Num_Not_Resolved_Atoms>  (323) 
nan

$$$$
CHEMBL1485331
     RDKit          3D

  0  0  0  0  0  0  0  0  0  0999 V3000
M  V30 BEGIN CTAB
M  V30 COUNTS 28 30 0 0 0
M  V30 BEGIN ATOM
M  V30 1 C 1.728683 -0.796875 4.557571 0
M  V30 2 C 1.753132 -0.317386 3.151740 0
M  V30 3 N 0.902312 -0.777933 2.270127 0
M  V30 4 C 0.762444 -0.478252 0.972968 0
M  V30 5 N -0.285016 -1.143404 0.250490 0
M  V30 6 C -1.118010 -2.215647 0.835439 0
M  V30 7 C -2.470635 -1.785638 0.304476 0
M  V30 8 C -2.093821 -1.790535 -1.184183 0
M  V30 9 C -0.792976 -0.983316 -1.096668 0
M  V30 10 C 1.640305 0.455770 0.472338 0
M  V30 11 C 1.673175 0.898153 -0.813287 0
M  V30 12 C 2.685377 1.881673 -1.115356 0
M  V30 13 S 3.556391 2.117228 0.521970 0
M  V30 14 C 2.537359 0.943722 1.394980 0
M  V30 15 N 2.606919 0.583378 2.689865 0
M  V30 16 H 2.649308 -0.545539 5.103987 0
M  V30 17 H 0.825717 -0.339302 5.042569 0
M  V30 18 H 1.570376 -1.908755 4.545713 0
M  V30 19 H -1.056486 -2.232994 1.936074 0
M  V30 20 H -0.898348 -3.194083 0.354268 0
M  V30 21 H -3.284363 -2.480268 0.539686 0
M  V30 22 H -2.671107 -0.728050 0.571758 0
M  V30 23 H -1.888302 -2.850949 -1.435850 0
M  V30 24 H -2.849376 -1.309422 -1.806721 0
M  V30 25 H -1.129129 0.063936 -1.285429 0
M  V30 26 H -0.115869 -1.355874 -1.869464 0
M  V30 27 H 1.088017 0.658385 -1.674376 0
M  V30 28 H 2.879527 2.378986 -2.132075 0
M  V30 END ATOM
M  V30 BEGIN BOND
M  V30 1 1 1 2
M  V30 2 2 2 3
M  V30 3 1 3 4
M  V30 4 1 4 5
M  V30 5 1 5 6
M  V30 6 1 6 7
M  V30 7 1 7 8
M  V30 8 1 8 9
M  V30 9 2 4 10
M  V30 10 1 10 11
M  V30 11 2 11 12
M  V30 12 1 12 13
M  V30 13 1 13 14
M  V30 14 2 14 15
M  V30 15 1 15 2
M  V30 16 1 9 5
M  V30 17 1 14 10
M  V30 18 1 1 16
M  V30 19 1 1 17
M  V30 20 1 1 18
M  V30 21 1 6 19
M  V30 22 1 6 20
M  V30 23 1 7 21
M  V30 24 1 7 22
M  V30 25 1 8 23
M  V30 26 1 8 24
M  V30 27 1 9 25
M  V30 28 1 9 26
M  V30 29 1 11 27
M  V30 30 1 12 28
M  V30 END BOND
M  V30 END CTAB
M  END
>  <Dataset>  (324) 
ChEMBL_Kinases

>  <Ligand_Instance>  (324) 
nan

>  <PDB_ID>  (324) 
nan

>  <Standardized_SMILES>  (324) 
Cc1nc(N2CCCC2)c2ccsc2n1

>  <Name>  (324) 
nan

>  <Pocket>  (324) 
nan

>  <ATP_Site>  (324) 
nan

>  <Peripheral>  (324) 
nan

>  <Num_H_Atoms_ProtBoundConf>  (324) 
nan

>  <Num_Resolved_Atoms>  (324) 
nan

>  <Num_Not_Resolved_Atoms>  (324) 
nan

$$$$
CHEMBL1485461
     RDKit          3D

  0  0  0  0  0  0  0  0  0  0999 V3000
M  V30 BEGIN CTAB
M  V30 COUNTS 58 61 0 0 0
M  V30 BEGIN ATOM
M  V30 1 C 1.924298 -2.618653 4.956984 0
M  V30 2 C 2.950079 -3.458593 5.189819 0
M  V30 3 C 3.435267 -3.442991 3.762552 0
M  V30 4 N 2.605396 -2.595604 2.941404 0
M  V30 5 C 2.985507 -1.308129 2.870012 0
M  V30 6 O 3.982090 -0.836924 3.458727 0
M  V30 7 C 2.215425 -0.468628 2.093479 0
M  V30 8 C 2.554902 0.864556 1.989690 0
M  V30 9 C 1.781911 1.737487 1.212230 0
M  V30 10 C 0.659741 1.238022 0.541970 0
M  V30 11 C -0.121809 2.163758 -0.258746 0
M  V30 12 O 0.290502 3.361520 -0.280101 0
M  V30 13 N -1.265244 1.842529 -0.989877 0
M  V30 14 C -2.087608 2.711258 -1.805680 0
M  V30 15 C -2.932596 3.532908 -0.902819 0
M  V30 16 C -2.676721 4.771447 -0.352555 0
M  V30 17 C -3.580574 5.385643 0.468686 0
M  V30 18 C -4.797535 4.825177 0.805443 0
M  V30 19 C -5.083694 3.577187 0.265928 0
M  V30 20 C -4.166467 2.964682 -0.561458 0
M  V30 21 C 0.385013 -0.103945 0.694035 0
M  V30 22 C 1.117463 -0.992135 1.445463 0
M  V30 23 N 0.708504 -2.272642 1.492886 0
M  V30 24 C -0.416784 -2.835690 0.809081 0
M  V30 25 C -0.112496 -3.401287 -0.526366 0
M  V30 26 C 0.267271 -4.743726 -0.652381 0
M  V30 27 C 0.567695 -5.352810 -1.851240 0
M  V30 28 C 0.502570 -4.631396 -3.023135 0
M  V30 29 C 0.816924 -5.249385 -4.321516 0
M  V30 30 C 0.134560 -3.305708 -2.963354 0
M  V30 31 C -0.152826 -2.754449 -1.740122 0
M  V30 32 C 1.526374 -3.030334 2.283001 0
M  V30 33 O 1.306043 -4.256243 2.453717 0
M  V30 34 H 1.179678 -1.941032 4.535035 0
M  V30 35 H 1.044278 -2.005728 5.158499 0
M  V30 36 H 2.639607 -3.503259 6.232149 0
M  V30 37 H 4.469628 -3.097136 3.776629 0
M  V30 38 H 3.369213 -4.518242 3.435163 0
M  V30 39 H 3.431822 1.240844 2.517441 0
M  V30 40 H 2.103735 2.778297 1.171130 0
M  V30 41 H -1.566311 0.849324 -0.942095 0
M  V30 42 H -1.436725 3.435816 -2.350106 0
M  V30 43 H -2.727555 2.146161 -2.500155 0
M  V30 44 H -1.723934 5.181406 -0.634403 0
M  V30 45 H -3.318815 6.359764 0.869127 0
M  V30 46 H -5.509043 5.302567 1.448260 0
M  V30 47 H -6.027499 3.106159 0.506968 0
M  V30 48 H -4.471945 1.985784 -0.941566 0
M  V30 49 H -0.476040 -0.440867 0.182614 0
M  V30 50 H -1.314952 -2.187873 0.799639 0
M  V30 51 H -0.751055 -3.717614 1.436872 0
M  V30 52 H 0.352108 -5.413750 0.185627 0
M  V30 53 H 0.860228 -6.388581 -1.941412 0
M  V30 54 H 0.699906 -6.346007 -4.250018 0
M  V30 55 H 1.847332 -4.939033 -4.612132 0
M  V30 56 H 0.104646 -4.792541 -5.066562 0
M  V30 57 H 0.078231 -2.725492 -3.872875 0
M  V30 58 H -0.435111 -1.723721 -1.762322 0
M  V30 END ATOM
M  V30 BEGIN BOND
M  V30 1 2 1 2
M  V30 2 1 2 3
M  V30 3 1 3 4
M  V30 4 1 4 5
M  V30 5 2 5 6
M  V30 6 1 5 7
M  V30 7 2 7 8
M  V30 8 1 8 9
M  V30 9 2 9 10
M  V30 10 1 10 11
M  V30 11 2 11 12
M  V30 12 1 11 13
M  V30 13 1 13 14
M  V30 14 1 14 15
M  V30 15 2 15 16
M  V30 16 1 16 17
M  V30 17 2 17 18
M  V30 18 1 18 19
M  V30 19 2 19 20
M  V30 20 1 10 21
M  V30 21 2 21 22
M  V30 22 1 22 23
M  V30 23 1 23 24
M  V30 24 1 24 25
M  V30 25 2 25 26
M  V30 26 1 26 27
M  V30 27 2 27 28
M  V30 28 1 28 29
M  V30 29 1 28 30
M  V30 30 2 30 31
M  V30 31 1 23 32
M  V30 32 2 32 33
M  V30 33 1 32 4
M  V30 34 1 22 7
M  V30 35 1 31 25
M  V30 36 1 20 15
M  V30 37 1 1 34
M  V30 38 1 1 35
M  V30 39 1 2 36
M  V30 40 1 3 37
M  V30 41 1 3 38
M  V30 42 1 8 39
M  V30 43 1 9 40
M  V30 44 1 13 41
M  V30 45 1 14 42
M  V30 46 1 14 43
M  V30 47 1 16 44
M  V30 48 1 17 45
M  V30 49 1 18 46
M  V30 50 1 19 47
M  V30 51 1 20 48
M  V30 52 1 21 49
M  V30 53 1 24 50
M  V30 54 1 24 51
M  V30 55 1 26 52
M  V30 56 1 27 53
M  V30 57 1 29 54
M  V30 58 1 29 55
M  V30 59 1 29 56
M  V30 60 1 30 57
M  V30 61 1 31 58
M  V30 END BOND
M  V30 END CTAB
M  END
>  <Dataset>  (325) 
ChEMBL_Kinases

>  <Ligand_Instance>  (325) 
nan

>  <PDB_ID>  (325) 
nan

>  <Standardized_SMILES>  (325) 
C=CCn1c(=O)c2ccc(C(=O)NCc3ccccc3)cc2n(Cc2ccc(C)cc2)c1=O

>  <Name>  (325) 
nan

>  <Pocket>  (325) 
nan

>  <ATP_Site>  (325) 
nan

>  <Peripheral>  (325) 
nan

>  <Num_H_Atoms_ProtBoundConf>  (325) 
nan

>  <Num_Resolved_Atoms>  (325) 
nan

>  <Num_Not_Resolved_Atoms>  (325) 
nan

$$$$
CHEMBL148471
     RDKit          3D

  0  0  0  0  0  0  0  0  0  0999 V3000
M  V30 BEGIN CTAB
M  V30 COUNTS 38 43 0 0 0
M  V30 BEGIN ATOM
M  V30 1 O 1.979636 -1.154954 4.323213 0
M  V30 2 C 1.154971 -1.427191 3.439660 0
M  V30 3 N 0.331979 -2.549277 3.702936 0
M  V30 4 C -0.571940 -2.720569 2.563186 0
M  V30 5 C -0.171014 -1.606701 1.671296 0
M  V30 6 C -0.718568 -1.307343 0.438230 0
M  V30 7 C -0.256103 -0.238593 -0.299705 0
M  V30 8 C 0.767320 0.524200 0.224629 0
M  V30 9 N 1.403385 1.610815 -0.274219 0
M  V30 10 C 2.329502 1.963960 0.654162 0
M  V30 11 C 3.206296 3.024199 0.555735 0
M  V30 12 C 4.104959 3.284165 1.567949 0
M  V30 13 C 4.070741 2.425743 2.671862 0
M  V30 14 C 3.180758 1.389402 2.718120 0
M  V30 15 C 2.287276 1.112409 1.736686 0
M  V30 16 C 1.311645 0.224518 1.453233 0
M  V30 17 C 0.847645 -0.829535 2.169059 0
M  V30 18 C -0.982101 -0.093963 -1.594913 0
M  V30 19 C -1.957072 -1.212530 -1.566765 0
M  V30 20 C -2.925787 -1.641569 -2.457502 0
M  V30 21 C -3.730026 -2.733459 -2.206467 0
M  V30 22 C -3.560020 -3.415554 -1.030406 0
M  V30 23 C -2.588459 -2.977508 -0.147486 0
M  V30 24 C -1.775130 -1.887908 -0.381659 0
M  V30 25 H 0.252405 -3.225223 4.492513 0
M  V30 26 H -1.588347 -2.635661 2.947910 0
M  V30 27 H -0.307441 -3.674977 2.087457 0
M  V30 28 H 1.205688 2.076789 -1.201280 0
M  V30 29 H 3.228206 3.682710 -0.297698 0
M  V30 30 H 4.796145 4.112187 1.500815 0
M  V30 31 H 4.795258 2.655626 3.460600 0
M  V30 32 H 3.250017 0.821803 3.587323 0
M  V30 33 H -0.279719 -0.295749 -2.454286 0
M  V30 34 H -1.436257 0.896479 -1.698899 0
M  V30 35 H -3.069673 -1.112425 -3.388022 0
M  V30 36 H -4.493640 -3.069157 -2.911978 0
M  V30 37 H -4.149176 -4.278075 -0.762167 0
M  V30 38 H -2.468637 -3.538219 0.789059 0
M  V30 END ATOM
M  V30 BEGIN BOND
M  V30 1 2 1 2
M  V30 2 1 2 3
M  V30 3 1 3 4
M  V30 4 1 4 5
M  V30 5 2 5 6
M  V30 6 1 6 7
M  V30 7 2 7 8
M  V30 8 1 8 9
M  V30 9 1 9 10
M  V30 10 2 10 11
M  V30 11 1 11 12
M  V30 12 2 12 13
M  V30 13 1 13 14
M  V30 14 2 14 15
M  V30 15 1 15 16
M  V30 16 2 16 17
M  V30 17 1 7 18
M  V30 18 1 18 19
M  V30 19 2 19 20
M  V30 20 1 20 21
M  V30 21 2 21 22
M  V30 22 1 22 23
M  V30 23 2 23 24
M  V30 24 1 17 2
M  V30 25 1 24 19
M  V30 26 1 17 5
M  V30 27 1 24 6
M  V30 28 1 16 8
M  V30 29 1 15 10
M  V30 30 1 3 25
M  V30 31 1 4 26
M  V30 32 1 4 27
M  V30 33 1 9 28
M  V30 34 1 11 29
M  V30 35 1 12 30
M  V30 36 1 13 31
M  V30 37 1 14 32
M  V30 38 1 18 33
M  V30 39 1 18 34
M  V30 40 1 20 35
M  V30 41 1 21 36
M  V30 42 1 22 37
M  V30 43 1 23 38
M  V30 END BOND
M  V30 END CTAB
M  END
>  <Dataset>  (326) 
ChEMBL_Kinases

>  <Ligand_Instance>  (326) 
nan

>  <PDB_ID>  (326) 
nan

>  <Standardized_SMILES>  (326) 
O=C1NCc2c3c(c4[nH]c5ccccc5c4c21)Cc1ccccc1-3

>  <Name>  (326) 
nan

>  <Pocket>  (326) 
nan

>  <ATP_Site>  (326) 
nan

>  <Peripheral>  (326) 
nan

>  <Num_H_Atoms_ProtBoundConf>  (326) 
nan

>  <Num_Resolved_Atoms>  (326) 
nan

>  <Num_Not_Resolved_Atoms>  (326) 
nan

$$$$
CHEMBL3662964
     RDKit          3D

  0  0  0  0  0  0  0  0  0  0999 V3000
M  V30 BEGIN CTAB
M  V30 COUNTS 45 48 0 0 0
M  V30 BEGIN ATOM
M  V30 1 C -1.165800 -6.443482 1.659550 0
M  V30 2 C -0.693303 -6.151802 0.263655 0
M  V30 3 C -0.477795 -4.843589 -0.108051 0
M  V30 4 C -0.041653 -4.460793 -1.370900 0
M  V30 5 C 0.176471 -3.054992 -1.728671 0
M  V30 6 N -0.241815 -2.484713 -2.887509 0
M  V30 7 N 0.099015 -1.205878 -2.928128 0
M  V30 8 C 0.760501 -0.878133 -1.790083 0
M  V30 9 C 1.350435 0.264060 -1.255229 0
M  V30 10 C 1.954209 0.190543 -0.005971 0
M  V30 11 N 2.560697 1.383437 0.533332 0
M  V30 12 C 1.687681 2.207040 1.326115 0
M  V30 13 O 0.492266 2.000848 1.587859 0
M  V30 14 N 2.330601 3.378361 1.840235 0
M  V30 15 C 1.791193 4.443994 2.673901 0
M  V30 16 C 0.356596 4.184411 2.980532 0
M  V30 17 C -0.009020 3.455551 4.106509 0
M  V30 18 C -1.320697 3.170514 4.462279 0
M  V30 19 C -2.329317 3.653337 3.625881 0
M  V30 20 N -1.980828 4.363969 2.527485 0 CHG=1 VAL=4
M  V30 21 O -3.005396 4.822229 1.728773 0 CHG=-1 VAL=1
M  V30 22 C -0.700353 4.623312 2.210083 0
M  V30 23 N 1.963026 -0.976345 0.670814 0
M  V30 24 C 1.404778 -2.102835 0.190473 0
M  V30 25 C 0.806048 -2.041545 -1.041793 0
M  V30 26 C 0.177243 -5.499657 -2.282244 0
M  V30 27 C -0.042003 -6.810047 -1.899466 0
M  V30 28 N -0.471106 -7.109359 -0.639574 0
M  V30 29 H -0.834605 -7.440995 2.008157 0
M  V30 30 H -0.838080 -5.645709 2.359845 0
M  V30 31 H -2.267406 -6.417384 1.639583 0
M  V30 32 H -0.659561 -4.083354 0.625614 0
M  V30 33 H -0.086840 -0.508901 -3.693605 0
M  V30 34 H 1.312546 1.166380 -1.840707 0
M  V30 35 H 3.574326 1.577455 0.323237 0
M  V30 36 H 3.332290 3.613951 1.659701 0
M  V30 37 H 2.320034 4.430427 3.671826 0
M  V30 38 H 1.958709 5.438134 2.235460 0
M  V30 39 H 0.775576 3.083785 4.751097 0
M  V30 40 H -1.493462 2.592825 5.363180 0
M  V30 41 H -3.354246 3.432719 3.900555 0
M  V30 42 H -0.446350 5.197983 1.319834 0
M  V30 43 H 1.467031 -2.987013 0.814445 0
M  V30 44 H 0.516945 -5.258028 -3.278593 0
M  V30 45 H 0.120254 -7.643713 -2.589339 0
M  V30 END ATOM
M  V30 BEGIN BOND
M  V30 1 1 1 2
M  V30 2 2 2 3
M  V30 3 1 3 4
M  V30 4 1 4 5
M  V30 5 2 5 6
M  V30 6 1 6 7
M  V30 7 1 7 8
M  V30 8 2 8 9
M  V30 9 1 9 10
M  V30 10 1 10 11
M  V30 11 1 11 12
M  V30 12 2 12 13
M  V30 13 1 12 14
M  V30 14 1 14 15
M  V30 15 1 15 16
M  V30 16 2 16 17
M  V30 17 1 17 18
M  V30 18 2 18 19
M  V30 19 1 19 20
M  V30 20 1 20 21
M  V30 21 2 20 22
M  V30 22 2 10 23
M  V30 23 1 23 24
M  V30 24 2 24 25
M  V30 25 2 4 26
M  V30 26 1 26 27
M  V30 27 2 27 28
M  V30 28 1 28 2
M  V30 29 1 25 5
M  V30 30 1 25 8
M  V30 31 1 22 16
M  V30 32 1 1 29
M  V30 33 1 1 30
M  V30 34 1 1 31
M  V30 35 1 3 32
M  V30 36 1 7 33
M  V30 37 1 9 34
M  V30 38 1 11 35
M  V30 39 1 14 36
M  V30 40 1 15 37
M  V30 41 1 15 38
M  V30 42 1 17 39
M  V30 43 1 18 40
M  V30 44 1 19 41
M  V30 45 1 22 42
M  V30 46 1 24 43
M  V30 47 1 26 44
M  V30 48 1 27 45
M  V30 END BOND
M  V30 END CTAB
M  END
>  <Dataset>  (327) 
ChEMBL_Kinases

>  <Ligand_Instance>  (327) 
nan

>  <PDB_ID>  (327) 
nan

>  <Standardized_SMILES>  (327) 
Cc1cc(-c2n[nH]c3cc(NC(=O)NCc4ccc[n+]([O-])c4)ncc23)ccn1

>  <Name>  (327) 
nan

>  <Pocket>  (327) 
nan

>  <ATP_Site>  (327) 
nan

>  <Peripheral>  (327) 
nan

>  <Num_H_Atoms_ProtBoundConf>  (327) 
nan

>  <Num_Resolved_Atoms>  (327) 
nan

>  <Num_Not_Resolved_Atoms>  (327) 
nan

$$$$
CHEMBL3662963
     RDKit          3D

  0  0  0  0  0  0  0  0  0  0999 V3000
M  V30 BEGIN CTAB
M  V30 COUNTS 52 56 0 0 0
M  V30 BEGIN ATOM
M  V30 1 C 2.466241 -8.285792 0.422361 0
M  V30 2 C 3.118712 -7.374665 -0.559446 0
M  V30 3 C 2.994420 -6.015961 -0.355208 0
M  V30 4 C 3.602396 -5.176175 -1.270199 0
M  V30 5 C 3.571037 -3.707224 -1.206042 0
M  V30 6 N 4.646904 -2.920860 -1.397810 0
M  V30 7 N 4.300580 -1.649454 -1.276247 0
M  V30 8 C 2.982592 -1.639999 -1.003141 0
M  V30 9 C 2.102257 -0.583456 -0.779510 0
M  V30 10 C 0.785237 -0.851513 -0.517501 0
M  V30 11 N -0.248025 0.099488 -0.266377 0
M  V30 12 C -0.602080 0.598373 1.021078 0
M  V30 13 O 0.096114 0.118064 1.978121 0
M  V30 14 N -1.630891 1.538203 1.222244 0
M  V30 15 C -1.922294 1.993133 2.589775 0
M  V30 16 C -3.306478 1.475412 2.937111 0
M  V30 17 C -4.316155 1.814542 1.852640 0
M  V30 18 C -4.377694 3.311611 1.848924 0
M  V30 19 N -5.305449 4.235194 1.541688 0
M  V30 20 N -4.803157 5.442525 1.727861 0
M  V30 21 C -3.524067 5.362612 2.165308 0
M  V30 22 C -2.693387 6.575722 2.464109 0
M  V30 23 C -3.233088 3.996389 2.249162 0
M  V30 24 C -1.910645 3.480072 2.696388 0
M  V30 25 N 0.325631 -2.118940 -0.472133 0
M  V30 26 C 1.137534 -3.184840 -0.681971 0
M  V30 27 C 2.464589 -2.917556 -0.946089 0
M  V30 28 C 4.311900 -5.696697 -2.354828 0
M  V30 29 C 4.407633 -7.076109 -2.515874 0
M  V30 30 N 3.806052 -7.874355 -1.610142 0
M  V30 31 H 2.680065 -9.346064 0.203742 0
M  V30 32 H 1.361842 -8.157636 0.261682 0
M  V30 33 H 2.785072 -7.989116 1.442348 0
M  V30 34 H 2.458316 -5.549751 0.465161 0
M  V30 35 H 4.890411 -0.781176 -1.364223 0
M  V30 36 H 2.384050 0.447291 -0.797376 0
M  V30 37 H -0.766957 0.438254 -1.104269 0
M  V30 38 H -2.166338 1.894344 0.403447 0
M  V30 39 H -1.219980 1.469080 3.268626 0
M  V30 40 H -3.314272 0.403730 3.176695 0
M  V30 41 H -3.631505 2.048711 3.843940 0
M  V30 42 H -5.298779 1.431846 2.255972 0
M  V30 43 H -4.086884 1.393895 0.875228 0
M  V30 44 H -6.261606 3.961016 1.210803 0
M  V30 45 H -2.985868 7.369737 1.757782 0
M  V30 46 H -2.921601 6.963284 3.486397 0
M  V30 47 H -1.611133 6.350013 2.428991 0
M  V30 48 H -1.081119 3.864395 2.038413 0
M  V30 49 H -1.643051 3.796814 3.713158 0
M  V30 50 H 0.798200 -4.219093 -0.652340 0
M  V30 51 H 4.808025 -5.096938 -3.102444 0
M  V30 52 H 4.941033 -7.556923 -3.332293 0
M  V30 END ATOM
M  V30 BEGIN BOND
M  V30 1 1 1 2
M  V30 2 2 2 3
M  V30 3 1 3 4
M  V30 4 1 4 5
M  V30 5 2 5 6
M  V30 6 1 6 7
M  V30 7 1 7 8
M  V30 8 2 8 9
M  V30 9 1 9 10
M  V30 10 1 10 11
M  V30 11 1 11 12
M  V30 12 2 12 13
M  V30 13 1 12 14
M  V30 14 1 14 15
M  V30 15 1 15 16
M  V30 16 1 16 17
M  V30 17 1 17 18
M  V30 18 1 18 19
M  V30 19 1 19 20
M  V30 20 2 20 21
M  V30 21 1 21 22
M  V30 22 1 21 23
M  V30 23 1 23 24
M  V30 24 2 10 25
M  V30 25 1 25 26
M  V30 26 2 26 27
M  V30 27 2 4 28
M  V30 28 1 28 29
M  V30 29 2 29 30
M  V30 30 1 30 2
M  V30 31 1 27 5
M  V30 32 1 27 8
M  V30 33 1 24 15
M  V30 34 2 23 18
M  V30 35 1 1 31
M  V30 36 1 1 32
M  V30 37 1 1 33
M  V30 38 1 3 34
M  V30 39 1 7 35
M  V30 40 1 9 36
M  V30 41 1 11 37
M  V30 42 1 14 38
M  V30 43 1 15 39
M  V30 44 1 16 40
M  V30 45 1 16 41
M  V30 46 1 17 42
M  V30 47 1 17 43
M  V30 48 1 19 44
M  V30 49 1 22 45
M  V30 50 1 22 46
M  V30 51 1 22 47
M  V30 52 1 24 48
M  V30 53 1 24 49
M  V30 54 1 26 50
M  V30 55 1 28 51
M  V30 56 1 29 52
M  V30 END BOND
M  V30 END CTAB
M  END
>  <Dataset>  (328) 
ChEMBL_Kinases

>  <Ligand_Instance>  (328) 
nan

>  <PDB_ID>  (328) 
nan

>  <Standardized_SMILES>  (328) 
Cc1cc(-c2n[nH]c3cc(NC(=O)NC4CCc5[nH]nc(C)c5C4)ncc23)ccn1

>  <Name>  (328) 
nan

>  <Pocket>  (328) 
nan

>  <ATP_Site>  (328) 
nan

>  <Peripheral>  (328) 
nan

>  <Num_H_Atoms_ProtBoundConf>  (328) 
nan

>  <Num_Resolved_Atoms>  (328) 
nan

>  <Num_Not_Resolved_Atoms>  (328) 
nan

$$$$
CHEMBL3662962
     RDKit          3D

  0  0  0  0  0  0  0  0  0  0999 V3000
M  V30 BEGIN CTAB
M  V30 COUNTS 49 53 0 0 0
M  V30 BEGIN ATOM
M  V30 1 C -0.786300 -7.488886 -2.379334 0
M  V30 2 C 0.191593 -6.547218 -3.025359 0
M  V30 3 C 0.746068 -5.558046 -2.232424 0
M  V30 4 C 1.646880 -4.683563 -2.809891 0
M  V30 5 C 2.266901 -3.619149 -2.028632 0
M  V30 6 N 3.555885 -3.217606 -1.981376 0
M  V30 7 N 3.743554 -2.223754 -1.159976 0
M  V30 8 C 2.568555 -1.901341 -0.603567 0
M  V30 9 C 2.209870 -0.939550 0.318131 0
M  V30 10 C 0.894846 -0.827190 0.724500 0
M  V30 11 N 0.368237 0.112799 1.666604 0
M  V30 12 C -0.111630 1.377551 1.246443 0
M  V30 13 O -0.100332 1.729408 0.062028 0
M  V30 14 N -0.596199 2.178686 2.311840 0
M  V30 15 C -1.147141 3.494679 2.256277 0
M  V30 16 C -0.314728 4.521852 3.005092 0
M  V30 17 C -0.431338 4.400331 4.485721 0
M  V30 18 C -1.657442 3.689718 4.917456 0
M  V30 19 N -1.888082 3.352141 6.199411 0
M  V30 20 N -3.058261 2.737703 6.235972 0
M  V30 21 C -3.604696 2.661930 5.009732 0
M  V30 22 C -2.723199 3.263974 4.162636 0
M  V30 23 C -2.576522 3.585455 2.718608 0
M  V30 24 N -0.029959 -1.676796 0.201642 0
M  V30 25 C 0.348764 -2.616661 -0.705651 0
M  V30 26 C 1.648979 -2.765161 -1.140030 0
M  V30 27 C 1.959670 -4.826542 -4.147977 0
M  V30 28 C 1.396892 -5.824318 -4.936984 0
M  V30 29 N 0.525423 -6.649117 -4.324345 0
M  V30 30 H -0.553943 -7.535182 -1.280210 0
M  V30 31 H -1.844292 -7.112878 -2.498881 0
M  V30 32 H -0.680346 -8.487112 -2.823652 0
M  V30 33 H 0.466276 -5.493669 -1.197192 0
M  V30 34 H 4.645024 -1.740794 -0.950964 0
M  V30 35 H 2.892971 -0.250770 0.757673 0
M  V30 36 H 0.383782 -0.239253 2.653870 0
M  V30 37 H -0.631437 1.936725 3.327854 0
M  V30 38 H -1.139069 3.816825 1.192416 0
M  V30 39 H -0.565477 5.524907 2.663578 0
M  V30 40 H 0.742759 4.307209 2.726538 0
M  V30 41 H 0.486954 3.967162 4.944641 0
M  V30 42 H -0.504502 5.421928 4.913709 0
M  V30 43 H -1.399343 3.449138 7.124136 0
M  V30 44 H -4.522824 2.239741 4.685436 0
M  V30 45 H -2.850308 4.676922 2.645857 0
M  V30 46 H -3.263885 3.053445 2.059932 0
M  V30 47 H -0.409393 -3.260544 -1.088467 0
M  V30 48 H 2.667171 -4.164257 -4.664184 0
M  V30 49 H 1.626493 -5.958322 -5.993038 0
M  V30 END ATOM
M  V30 BEGIN BOND
M  V30 1 1 1 2
M  V30 2 2 2 3
M  V30 3 1 3 4
M  V30 4 1 4 5
M  V30 5 2 5 6
M  V30 6 1 6 7
M  V30 7 1 7 8
M  V30 8 2 8 9
M  V30 9 1 9 10
M  V30 10 1 10 11
M  V30 11 1 11 12
M  V30 12 2 12 13
M  V30 13 1 12 14
M  V30 14 1 14 15
M  V30 15 1 15 16
M  V30 16 1 16 17
M  V30 17 1 17 18
M  V30 18 1 18 19
M  V30 19 1 19 20
M  V30 20 2 20 21
M  V30 21 1 21 22
M  V30 22 1 22 23
M  V30 23 2 10 24
M  V30 24 1 24 25
M  V30 25 2 25 26
M  V30 26 2 4 27
M  V30 27 1 27 28
M  V30 28 2 28 29
M  V30 29 1 29 2
M  V30 30 1 26 5
M  V30 31 1 26 8
M  V30 32 1 23 15
M  V30 33 2 22 18
M  V30 34 1 1 30
M  V30 35 1 1 31
M  V30 36 1 1 32
M  V30 37 1 3 33
M  V30 38 1 7 34
M  V30 39 1 9 35
M  V30 40 1 11 36
M  V30 41 1 14 37
M  V30 42 1 15 38
M  V30 43 1 16 39
M  V30 44 1 16 40
M  V30 45 1 17 41
M  V30 46 1 17 42
M  V30 47 1 19 43
M  V30 48 1 21 44
M  V30 49 1 23 45
M  V30 50 1 23 46
M  V30 51 1 25 47
M  V30 52 1 27 48
M  V30 53 1 28 49
M  V30 END BOND
M  V30 END CTAB
M  END
>  <Dataset>  (329) 
ChEMBL_Kinases

>  <Ligand_Instance>  (329) 
nan

>  <PDB_ID>  (329) 
nan

>  <Standardized_SMILES>  (329) 
Cc1cc(-c2n[nH]c3cc(NC(=O)NC4CCc5[nH]ncc5C4)ncc23)ccn1

>  <Name>  (329) 
nan

>  <Pocket>  (329) 
nan

>  <ATP_Site>  (329) 
nan

>  <Peripheral>  (329) 
nan

>  <Num_H_Atoms_ProtBoundConf>  (329) 
nan

>  <Num_Resolved_Atoms>  (329) 
nan

>  <Num_Not_Resolved_Atoms>  (329) 
nan

$$$$
CHEMBL3662961
     RDKit          3D

  0  0  0  0  0  0  0  0  0  0999 V3000
M  V30 BEGIN CTAB
M  V30 COUNTS 51 55 0 0 0
M  V30 BEGIN ATOM
M  V30 1 C 1.763970 -8.977610 -0.606803 0
M  V30 2 C 2.651123 -7.799020 -0.655844 0
M  V30 3 C 2.136347 -6.560727 -0.924696 0
M  V30 4 C 2.971993 -5.482343 -0.957902 0
M  V30 5 C 2.646388 -4.084492 -1.219164 0
M  V30 6 N 3.418771 -3.341735 -2.072140 0
M  V30 7 N 2.916690 -2.102839 -2.131483 0
M  V30 8 C 1.831663 -1.997820 -1.343789 0
M  V30 9 C 0.910128 -1.015137 -0.988604 0
M  V30 10 C -0.127106 -1.312506 -0.090968 0
M  V30 11 N -0.908866 -0.155560 0.111162 0
M  V30 12 C -0.969619 0.936283 0.963929 0
M  V30 13 O 0.055654 0.550638 1.677522 0
M  V30 14 N -1.373272 2.121631 1.545682 0
M  V30 15 C -0.800667 2.807239 2.679542 0
M  V30 16 C -1.882791 2.806127 3.766736 0
M  V30 17 C -3.209207 3.212616 3.160393 0
M  V30 18 C -3.062207 4.429372 2.340176 0
M  V30 19 C -4.232472 5.046732 1.985965 0
M  V30 20 C -4.161505 6.195279 1.215318 0
M  V30 21 C -2.917885 6.644446 0.852421 0
M  V30 22 N -1.758793 6.018631 1.212180 0
M  V30 23 C -1.814601 4.886837 1.971284 0
M  V30 24 C -0.534574 4.247715 2.338653 0
M  V30 25 N -0.253217 -2.543134 0.442260 0
M  V30 26 C 0.639103 -3.528531 0.110517 0
M  V30 27 C 1.659696 -3.243472 -0.769427 0
M  V30 28 C 4.322046 -5.758881 -0.704802 0
M  V30 29 C 4.830714 -7.012126 -0.434945 0
M  V30 30 N 3.963742 -8.065239 -0.410045 0
M  V30 31 H 2.312680 -9.927868 -0.452706 0
M  V30 32 H 1.115976 -9.115358 -1.479702 0
M  V30 33 H 1.081508 -8.839960 0.283592 0
M  V30 34 H 1.094875 -6.352495 -1.120551 0
M  V30 35 H 3.255585 -1.284910 -2.679560 0
M  V30 36 H 1.112320 -0.074855 -1.478245 0
M  V30 37 H -1.741678 0.262570 -0.376510 0
M  V30 38 H -2.179734 2.250957 0.853509 0
M  V30 39 H 0.081221 2.263186 3.022056 0
M  V30 40 H -1.955789 1.825360 4.279601 0
M  V30 41 H -1.649917 3.531172 4.570732 0
M  V30 42 H -3.971492 3.375083 3.949009 0
M  V30 43 H -3.606408 2.399960 2.481338 0
M  V30 44 H -5.217641 4.734499 2.246810 0
M  V30 45 H -4.959636 6.822664 0.838236 0
M  V30 46 H -2.739278 7.528430 0.253278 0
M  V30 47 H -0.179158 4.751548 3.280448 0
M  V30 48 H 0.256177 4.411431 1.594852 0
M  V30 49 H 0.508761 -4.504739 0.558949 0
M  V30 50 H 5.033054 -4.957634 -0.715073 0
M  V30 51 H 5.885029 -7.148122 -0.248530 0
M  V30 END ATOM
M  V30 BEGIN BOND
M  V30 1 1 1 2
M  V30 2 2 2 3
M  V30 3 1 3 4
M  V30 4 1 4 5
M  V30 5 2 5 6
M  V30 6 1 6 7
M  V30 7 1 7 8
M  V30 8 2 8 9
M  V30 9 1 9 10
M  V30 10 1 10 11
M  V30 11 1 11 12
M  V30 12 2 12 13
M  V30 13 1 12 14
M  V30 14 1 14 15
M  V30 15 1 15 16
M  V30 16 1 16 17
M  V30 17 1 17 18
M  V30 18 2 18 19
M  V30 19 1 19 20
M  V30 20 2 20 21
M  V30 21 1 21 22
M  V30 22 2 22 23
M  V30 23 1 23 24
M  V30 24 2 10 25
M  V30 25 1 25 26
M  V30 26 2 26 27
M  V30 27 2 4 28
M  V30 28 1 28 29
M  V30 29 2 29 30
M  V30 30 1 30 2
M  V30 31 1 27 5
M  V30 32 1 27 8
M  V30 33 1 24 15
M  V30 34 1 23 18
M  V30 35 1 1 31
M  V30 36 1 1 32
M  V30 37 1 1 33
M  V30 38 1 3 34
M  V30 39 1 7 35
M  V30 40 1 9 36
M  V30 41 1 11 37
M  V30 42 1 14 38
M  V30 43 1 15 39
M  V30 44 1 16 40
M  V30 45 1 16 41
M  V30 46 1 17 42
M  V30 47 1 17 43
M  V30 48 1 19 44
M  V30 49 1 20 45
M  V30 50 1 21 46
M  V30 51 1 24 47
M  V30 52 1 24 48
M  V30 53 1 26 49
M  V30 54 1 28 50
M  V30 55 1 29 51
M  V30 END BOND
M  V30 END CTAB
M  END
>  <Dataset>  (330) 
ChEMBL_Kinases

>  <Ligand_Instance>  (330) 
nan

>  <PDB_ID>  (330) 
nan

>  <Standardized_SMILES>  (330) 
Cc1cc(-c2n[nH]c3cc(NC(=O)NC4CCc5cccnc5C4)ncc23)ccn1

>  <Name>  (330) 
nan

>  <Pocket>  (330) 
nan

>  <ATP_Site>  (330) 
nan

>  <Peripheral>  (330) 
nan

>  <Num_H_Atoms_ProtBoundConf>  (330) 
nan

>  <Num_Resolved_Atoms>  (330) 
nan

>  <Num_Not_Resolved_Atoms>  (330) 
nan

$$$$
CHEMBL3662960
     RDKit          3D

  0  0  0  0  0  0  0  0  0  0999 V3000
M  V30 BEGIN CTAB
M  V30 COUNTS 50 54 0 0 0
M  V30 BEGIN ATOM
M  V30 1 C -0.472881 -7.756007 -2.140008 0
M  V30 2 C 0.911790 -7.203660 -2.056972 0
M  V30 3 C 1.043697 -5.823086 -2.060557 0
M  V30 4 C 2.290843 -5.218570 -1.986695 0
M  V30 5 C 2.496072 -3.771294 -1.986230 0
M  V30 6 N 3.424474 -3.079985 -2.709108 0
M  V30 7 N 3.319989 -1.775223 -2.456637 0
M  V30 8 C 2.317901 -1.642669 -1.567623 0
M  V30 9 C 1.830386 -0.475261 -0.998621 0
M  V30 10 C 0.785907 -0.590353 -0.103354 0
M  V30 11 N 0.136310 0.468310 0.593292 0
M  V30 12 C 0.489284 0.995738 1.861076 0
M  V30 13 O 1.485598 0.454201 2.408460 0
M  V30 14 N -0.299195 2.045452 2.355182 0
M  V30 15 C -0.022620 2.660740 3.650007 0
M  V30 16 C -1.215604 2.491979 4.529456 0
M  V30 17 C -2.522095 2.668995 3.808510 0
M  V30 18 C -2.482951 4.004512 3.130503 0
M  V30 19 N -3.479314 4.726571 2.618316 0
M  V30 20 C -3.489583 5.720869 2.108042 0
M  V30 21 N -4.680726 6.444334 1.567256 0
M  V30 22 S -1.626169 6.190846 2.134386 0
M  V30 23 C -1.246094 4.612770 2.996388 0
M  V30 24 C 0.128092 4.151376 3.428435 0
M  V30 25 N 0.245586 -1.796426 0.217879 0
M  V30 26 C 0.719959 -2.938761 -0.336575 0
M  V30 27 C 1.765418 -2.868990 -1.238306 0
M  V30 28 C 3.406350 -6.058855 -1.908674 0
M  V30 29 C 3.257632 -7.430627 -1.906230 0
M  V30 30 N 2.011000 -7.981981 -1.980521 0
M  V30 31 H -0.499975 -8.840959 -2.002326 0
M  V30 32 H -0.939846 -7.533164 -3.130725 0
M  V30 33 H -1.131457 -7.221485 -1.399937 0
M  V30 34 H 0.172995 -5.196023 -2.121201 0
M  V30 35 H 3.905640 -1.007771 -2.871607 0
M  V30 36 H 2.175311 0.527393 -1.174856 0
M  V30 37 H -0.644724 0.759956 -0.034201 0
M  V30 38 H -1.111197 2.428780 1.822532 0
M  V30 39 H 0.850050 2.196215 4.143541 0
M  V30 40 H -1.190819 1.551672 5.117548 0
M  V30 41 H -1.168324 3.314097 5.296246 0
M  V30 42 H -3.374259 2.590851 4.511911 0
M  V30 43 H -2.625293 1.826909 3.090620 0
M  V30 44 H -4.911800 6.160476 0.581860 0
M  V30 45 H -5.199202 7.156735 2.156892 0
M  V30 46 H 0.370378 4.652681 4.383414 0
M  V30 47 H 0.865623 4.357923 2.621913 0
M  V30 48 H 0.307658 -3.912081 -0.097994 0
M  V30 49 H 4.383871 -5.589928 -1.850734 0
M  V30 50 H 4.137838 -8.088661 -1.844707 0
M  V30 END ATOM
M  V30 BEGIN BOND
M  V30 1 1 1 2
M  V30 2 2 2 3
M  V30 3 1 3 4
M  V30 4 1 4 5
M  V30 5 2 5 6
M  V30 6 1 6 7
M  V30 7 1 7 8
M  V30 8 2 8 9
M  V30 9 1 9 10
M  V30 10 1 10 11
M  V30 11 1 11 12
M  V30 12 2 12 13
M  V30 13 1 12 14
M  V30 14 1 14 15
M  V30 15 1 15 16
M  V30 16 1 16 17
M  V30 17 1 17 18
M  V30 18 1 18 19
M  V30 19 2 19 20
M  V30 20 1 20 21
M  V30 21 1 20 22
M  V30 22 1 22 23
M  V30 23 1 23 24
M  V30 24 2 10 25
M  V30 25 1 25 26
M  V30 26 2 26 27
M  V30 27 2 4 28
M  V30 28 1 28 29
M  V30 29 2 29 30
M  V30 30 1 30 2
M  V30 31 1 27 5
M  V30 32 1 27 8
M  V30 33 1 24 15
M  V30 34 2 23 18
M  V30 35 1 1 31
M  V30 36 1 1 32
M  V30 37 1 1 33
M  V30 38 1 3 34
M  V30 39 1 7 35
M  V30 40 1 9 36
M  V30 41 1 11 37
M  V30 42 1 14 38
M  V30 43 1 15 39
M  V30 44 1 16 40
M  V30 45 1 16 41
M  V30 46 1 17 42
M  V30 47 1 17 43
M  V30 48 1 21 44
M  V30 49 1 21 45
M  V30 50 1 24 46
M  V30 51 1 24 47
M  V30 52 1 26 48
M  V30 53 1 28 49
M  V30 54 1 29 50
M  V30 END BOND
M  V30 END CTAB
M  END
>  <Dataset>  (331) 
ChEMBL_Kinases

>  <Ligand_Instance>  (331) 
nan

>  <PDB_ID>  (331) 
nan

>  <Standardized_SMILES>  (331) 
Cc1cc(-c2n[nH]c3cc(NC(=O)NC4CCc5nc(N)sc5C4)ncc23)ccn1

>  <Name>  (331) 
nan

>  <Pocket>  (331) 
nan

>  <ATP_Site>  (331) 
nan

>  <Peripheral>  (331) 
nan

>  <Num_H_Atoms_ProtBoundConf>  (331) 
nan

>  <Num_Resolved_Atoms>  (331) 
nan

>  <Num_Not_Resolved_Atoms>  (331) 
nan

$$$$
CHEMBL3662959
     RDKit          3D

  0  0  0  0  0  0  0  0  0  0999 V3000
M  V30 BEGIN CTAB
M  V30 COUNTS 47 50 0 0 0
M  V30 BEGIN ATOM
M  V30 1 C -3.789354 -3.789710 -5.468887 0
M  V30 2 C -4.123989 -3.631955 -4.039190 0
M  V30 3 C -3.076054 -3.468469 -3.152898 0
M  V30 4 C -3.377510 -3.322624 -1.831465 0
M  V30 5 C -2.484862 -3.138631 -0.693039 0
M  V30 6 N -2.541533 -3.758439 0.503490 0
M  V30 7 N -1.575922 -3.342393 1.287094 0
M  V30 8 C -0.810444 -2.415956 0.662508 0
M  V30 9 C 0.316500 -1.651055 0.998253 0
M  V30 10 C 0.858738 -0.758161 0.063958 0
M  V30 11 N 1.977445 -0.119907 0.659414 0
M  V30 12 C 1.789927 1.079475 1.382059 0
M  V30 13 O 0.699741 1.646360 1.540721 0
M  V30 14 N 2.854556 1.770107 2.014123 0
M  V30 15 C 2.876382 2.972884 2.779544 0 CFG=2
M  V30 16 C 3.830259 4.025156 2.363714 0
M  V30 17 C 3.185632 2.632459 4.217077 0
M  V30 18 C 4.069595 3.252168 5.072412 0
M  V30 19 C 4.205516 2.786852 6.354674 0
M  V30 20 C 3.470739 1.698134 6.822461 0
M  V30 21 F 3.617820 1.252960 8.090501 0
M  V30 22 C 2.603322 1.125668 5.910367 0
M  V30 23 N 2.459789 1.576331 4.638932 0
M  V30 24 N 0.264637 -0.668552 -1.141634 0
M  V30 25 C -0.816033 -1.400028 -1.466881 0
M  V30 26 C -1.399753 -2.295037 -0.598461 0
M  V30 27 C -4.701875 -3.344359 -1.441600 0
M  V30 28 C -5.717116 -3.509830 -2.359924 0
M  V30 29 N -5.410028 -3.653012 -3.660280 0
M  V30 30 H -4.297069 -2.978011 -6.015630 0
M  V30 31 H -2.697165 -3.801407 -5.639063 0
M  V30 32 H -4.176556 -4.784868 -5.813164 0
M  V30 33 H -2.029719 -3.441753 -3.375047 0
M  V30 34 H -1.405564 -3.672983 2.266934 0
M  V30 35 H 0.641107 -1.869901 2.011386 0
M  V30 36 H 2.997629 -0.441150 0.641448 0
M  V30 37 H 3.845490 1.388174 1.954185 0
M  V30 38 H 1.844382 3.425815 2.815766 0
M  V30 39 H 3.705141 4.318950 1.295736 0
M  V30 40 H 3.565887 4.939638 2.945683 0
M  V30 41 H 4.889925 3.819101 2.629969 0
M  V30 42 H 4.587511 4.078682 4.625926 0
M  V30 43 H 4.897388 3.283018 7.001914 0
M  V30 44 H 2.039961 0.278286 6.294478 0
M  V30 45 H -1.220570 -1.257847 -2.456600 0
M  V30 46 H -5.076787 -3.238969 -0.418849 0
M  V30 47 H -6.777031 -3.539480 -2.150518 0
M  V30 END ATOM
M  V30 BEGIN BOND
M  V30 1 1 1 2
M  V30 2 2 2 3
M  V30 3 1 3 4
M  V30 4 1 4 5
M  V30 5 2 5 6
M  V30 6 1 6 7
M  V30 7 1 7 8
M  V30 8 2 8 9
M  V30 9 1 9 10
M  V30 10 1 10 11
M  V30 11 1 11 12
M  V30 12 2 12 13
M  V30 13 1 12 14
M  V30 14 1 14 15
M  V30 15 1 15 16
M  V30 16 1 15 17
M  V30 17 2 17 18
M  V30 18 1 18 19
M  V30 19 2 19 20
M  V30 20 1 20 21
M  V30 21 1 20 22
M  V30 22 2 22 23
M  V30 23 2 10 24
M  V30 24 1 24 25
M  V30 25 2 25 26
M  V30 26 2 4 27
M  V30 27 1 27 28
M  V30 28 2 28 29
M  V30 29 1 29 2
M  V30 30 1 26 5
M  V30 31 1 26 8
M  V30 32 1 23 17
M  V30 33 1 1 30
M  V30 34 1 1 31
M  V30 35 1 1 32
M  V30 36 1 3 33
M  V30 37 1 7 34
M  V30 38 1 9 35
M  V30 39 1 11 36
M  V30 40 1 14 37
M  V30 41 1 15 38 CFG=1
M  V30 42 1 16 39
M  V30 43 1 16 40
M  V30 44 1 16 41
M  V30 45 1 18 42
M  V30 46 1 19 43
M  V30 47 1 22 44
M  V30 48 1 25 45
M  V30 49 1 27 46
M  V30 50 1 28 47
M  V30 END BOND
M  V30 END CTAB
M  END
>  <Dataset>  (332) 
ChEMBL_Kinases

>  <Ligand_Instance>  (332) 
nan

>  <PDB_ID>  (332) 
nan

>  <Standardized_SMILES>  (332) 
Cc1cc(-c2n[nH]c3cc(NC(=O)N[C@H](C)c4ccc(F)cn4)ncc23)ccn1

>  <Name>  (332) 
nan

>  <Pocket>  (332) 
nan

>  <ATP_Site>  (332) 
nan

>  <Peripheral>  (332) 
nan

>  <Num_H_Atoms_ProtBoundConf>  (332) 
nan

>  <Num_Resolved_Atoms>  (332) 
nan

>  <Num_Not_Resolved_Atoms>  (332) 
nan

$$$$
CHEMBL3662958
     RDKit          3D

  0  0  0  0  0  0  0  0  0  0999 V3000
M  V30 BEGIN CTAB
M  V30 COUNTS 48 52 0 0 0
M  V30 BEGIN ATOM
M  V30 1 C -2.822640 -5.874106 0.795797 0
M  V30 2 C -1.455824 -6.154506 0.253588 0
M  V30 3 C -0.437060 -5.214749 0.437112 0
M  V30 4 C 0.862687 -5.404322 -0.040361 0
M  V30 5 C 1.897905 -4.397145 0.170219 0
M  V30 6 N 3.165997 -4.550083 0.570404 0
M  V30 7 N 3.793148 -3.394771 0.641232 0
M  V30 8 C 2.929998 -2.430306 0.279862 0
M  V30 9 C 3.138326 -1.080875 0.203451 0
M  V30 10 C 2.090624 -0.283547 -0.196807 0
M  V30 11 N 2.036786 1.141732 -0.359036 0
M  V30 12 C 1.638810 1.885569 0.799574 0
M  V30 13 O 1.359245 1.291620 1.876349 0
M  V30 14 N 1.560368 3.280705 0.736057 0
M  V30 15 C 1.164509 4.089327 1.882550 0
M  V30 16 C -0.216419 3.741834 2.363757 0
M  V30 17 C -0.277080 2.953047 3.532687 0
M  V30 18 S -2.130092 2.746719 3.791267 0
M  V30 19 C -2.543523 3.693877 2.375063 0
M  V30 20 C -3.821017 3.990422 1.903360 0
M  V30 21 C -3.993650 4.752376 0.769230 0
M  V30 22 C -2.807290 5.155764 0.200998 0
M  V30 23 C -1.540596 4.869745 0.656749 0
M  V30 24 C -1.407069 4.096318 1.806977 0
M  V30 25 N 0.892420 -0.861494 -0.500453 0
M  V30 26 C 0.718904 -2.207158 -0.413900 0
M  V30 27 C 1.730736 -3.041684 -0.020560 0
M  V30 28 C 1.105788 -6.600351 -0.724133 0
M  V30 29 C 0.081245 -7.535850 -0.903746 0
M  V30 30 N -1.158037 -7.287435 -0.413968 0
M  V30 31 H -3.365172 -6.789801 1.088685 0
M  V30 32 H -3.349926 -5.292148 -0.012286 0
M  V30 33 H -2.705083 -5.149215 1.625452 0
M  V30 34 H -0.710052 -4.317034 0.978260 0
M  V30 35 H 4.804185 -3.271934 0.934836 0
M  V30 36 H 4.021064 -0.531301 0.414977 0
M  V30 37 H 2.280055 1.576482 -1.277158 0
M  V30 38 H 1.794537 3.761629 -0.169161 0
M  V30 39 H 1.915745 4.022279 2.678273 0
M  V30 40 H 1.123403 5.168316 1.608654 0
M  V30 41 H 0.477246 2.548108 4.153090 0
M  V30 42 H -4.672536 3.608281 2.449024 0
M  V30 43 H -4.959925 4.984633 0.400947 0
M  V30 44 H -2.903928 5.767064 -0.706586 0
M  V30 45 H -0.707818 5.278262 0.072276 0
M  V30 46 H -0.242415 -2.638801 -0.661906 0
M  V30 47 H 2.114645 -6.792717 -1.117907 0
M  V30 48 H 0.272800 -8.469990 -1.438063 0
M  V30 END ATOM
M  V30 BEGIN BOND
M  V30 1 1 1 2
M  V30 2 2 2 3
M  V30 3 1 3 4
M  V30 4 1 4 5
M  V30 5 2 5 6
M  V30 6 1 6 7
M  V30 7 1 7 8
M  V30 8 2 8 9
M  V30 9 1 9 10
M  V30 10 1 10 11
M  V30 11 1 11 12
M  V30 12 2 12 13
M  V30 13 1 12 14
M  V30 14 1 14 15
M  V30 15 1 15 16
M  V30 16 2 16 17
M  V30 17 1 17 18
M  V30 18 1 18 19
M  V30 19 2 19 20
M  V30 20 1 20 21
M  V30 21 2 21 22
M  V30 22 1 22 23
M  V30 23 2 23 24
M  V30 24 2 10 25
M  V30 25 1 25 26
M  V30 26 2 26 27
M  V30 27 2 4 28
M  V30 28 1 28 29
M  V30 29 2 29 30
M  V30 30 1 30 2
M  V30 31 1 27 5
M  V30 32 1 27 8
M  V30 33 1 24 16
M  V30 34 1 24 19
M  V30 35 1 1 31
M  V30 36 1 1 32
M  V30 37 1 1 33
M  V30 38 1 3 34
M  V30 39 1 7 35
M  V30 40 1 9 36
M  V30 41 1 11 37
M  V30 42 1 14 38
M  V30 43 1 15 39
M  V30 44 1 15 40
M  V30 45 1 17 41
M  V30 46 1 20 42
M  V30 47 1 21 43
M  V30 48 1 22 44
M  V30 49 1 23 45
M  V30 50 1 26 46
M  V30 51 1 28 47
M  V30 52 1 29 48
M  V30 END BOND
M  V30 END CTAB
M  END
>  <Dataset>  (333) 
ChEMBL_Kinases

>  <Ligand_Instance>  (333) 
nan

>  <PDB_ID>  (333) 
nan

>  <Standardized_SMILES>  (333) 
Cc1cc(-c2n[nH]c3cc(NC(=O)NCc4csc5ccccc45)ncc23)ccn1

>  <Name>  (333) 
nan

>  <Pocket>  (333) 
nan

>  <ATP_Site>  (333) 
nan

>  <Peripheral>  (333) 
nan

>  <Num_H_Atoms_ProtBoundConf>  (333) 
nan

>  <Num_Resolved_Atoms>  (333) 
nan

>  <Num_Not_Resolved_Atoms>  (333) 
nan

$$$$
CHEMBL3662957
     RDKit          3D

  0  0  0  0  0  0  0  0  0  0999 V3000
M  V30 BEGIN CTAB
M  V30 COUNTS 51 55 0 0 0
M  V30 BEGIN ATOM
M  V30 1 C 0.945384 -8.278153 -1.119368 0
M  V30 2 C 2.196303 -7.463713 -1.140668 0
M  V30 3 C 2.067411 -6.108296 -1.336735 0
M  V30 4 C 3.153439 -5.260493 -1.374717 0
M  V30 5 C 3.083039 -3.814959 -1.578813 0
M  V30 6 N 3.815603 -3.009560 -2.370720 0
M  V30 7 N 3.424203 -1.749171 -2.258616 0
M  V30 8 C 2.404392 -1.708343 -1.369960 0
M  V30 9 C 1.668541 -0.624589 -0.922701 0
M  V30 10 C 0.659034 -0.818165 0.000005 0
M  V30 11 N -0.190978 0.183394 0.562476 0
M  V30 12 C 0.021421 0.946186 1.735851 0
M  V30 13 O 1.095101 0.698158 2.344628 0
M  V30 14 N -0.975868 1.869880 2.069502 0
M  V30 15 C -0.856018 2.705333 3.256527 0
M  V30 16 C -2.065604 2.405321 4.136217 0
M  V30 17 N -3.216148 2.329220 3.235758 0
M  V30 18 C -3.436937 3.558343 2.517784 0
M  V30 19 C -4.664905 3.906568 1.994556 0
M  V30 20 C -4.843367 5.102717 1.305847 0
M  V30 21 C -3.733708 5.926047 1.170045 0
M  V30 22 C -2.497726 5.595545 1.686019 0
M  V30 23 C -2.346426 4.387649 2.373543 0
M  V30 24 C -0.964420 4.166246 2.871225 0
M  V30 25 N 0.429605 -2.090102 0.435621 0
M  V30 26 C 1.154342 -3.134908 -0.009033 0
M  V30 27 C 2.177409 -2.998808 -0.933116 0
M  V30 28 C 4.388306 -5.857813 -1.202832 0
M  V30 29 C 4.535417 -7.219002 -1.004651 0
M  V30 30 N 3.434471 -7.999104 -0.977084 0
M  V30 31 H 1.122091 -9.310385 -0.794318 0
M  V30 32 H 0.400566 -8.177810 -2.060662 0
M  V30 33 H 0.293272 -7.785036 -0.340613 0
M  V30 34 H 1.092273 -5.678737 -1.466702 0
M  V30 35 H 3.824604 -0.909235 -2.764947 0
M  V30 36 H 1.807689 0.397245 -1.232872 0
M  V30 37 H -1.027628 0.251621 -0.074003 0
M  V30 38 H -1.833066 1.995261 1.489428 0
M  V30 39 H 0.091910 2.493287 3.800988 0
M  V30 40 H -1.952505 1.448500 4.695159 0
M  V30 41 H -2.220531 3.199726 4.904603 0
M  V30 42 H -3.877872 1.536032 3.046379 0
M  V30 43 H -5.474899 3.183209 2.159151 0
M  V30 44 H -5.825632 5.329238 0.915085 0
M  V30 45 H -3.941313 6.841030 0.623589 0
M  V30 46 H -1.755990 6.348619 1.486879 0
M  V30 47 H -0.198237 4.463796 2.135585 0
M  V30 48 H -0.880966 4.740734 3.826195 0
M  V30 49 H 0.942976 -4.128856 0.359585 0
M  V30 50 H 5.303946 -5.310763 -1.211701 0
M  V30 51 H 5.495702 -7.699612 -0.868737 0
M  V30 END ATOM
M  V30 BEGIN BOND
M  V30 1 1 1 2
M  V30 2 2 2 3
M  V30 3 1 3 4
M  V30 4 1 4 5
M  V30 5 2 5 6
M  V30 6 1 6 7
M  V30 7 1 7 8
M  V30 8 2 8 9
M  V30 9 1 9 10
M  V30 10 1 10 11
M  V30 11 1 11 12
M  V30 12 2 12 13
M  V30 13 1 12 14
M  V30 14 1 14 15
M  V30 15 1 15 16
M  V30 16 1 16 17
M  V30 17 1 17 18
M  V30 18 2 18 19
M  V30 19 1 19 20
M  V30 20 2 20 21
M  V30 21 1 21 22
M  V30 22 2 22 23
M  V30 23 1 23 24
M  V30 24 2 10 25
M  V30 25 1 25 26
M  V30 26 2 26 27
M  V30 27 2 4 28
M  V30 28 1 28 29
M  V30 29 2 29 30
M  V30 30 1 30 2
M  V30 31 1 27 5
M  V30 32 1 27 8
M  V30 33 1 24 15
M  V30 34 1 23 18
M  V30 35 1 1 31
M  V30 36 1 1 32
M  V30 37 1 1 33
M  V30 38 1 3 34
M  V30 39 1 7 35
M  V30 40 1 9 36
M  V30 41 1 11 37
M  V30 42 1 14 38
M  V30 43 1 15 39
M  V30 44 1 16 40
M  V30 45 1 16 41
M  V30 46 1 17 42
M  V30 47 1 19 43
M  V30 48 1 20 44
M  V30 49 1 21 45
M  V30 50 1 22 46
M  V30 51 1 24 47
M  V30 52 1 24 48
M  V30 53 1 26 49
M  V30 54 1 28 50
M  V30 55 1 29 51
M  V30 END BOND
M  V30 END CTAB
M  END
>  <Dataset>  (334) 
ChEMBL_Kinases

>  <Ligand_Instance>  (334) 
nan

>  <PDB_ID>  (334) 
nan

>  <Standardized_SMILES>  (334) 
Cc1cc(-c2n[nH]c3cc(NC(=O)NC4CNc5ccccc5C4)ncc23)ccn1

>  <Name>  (334) 
nan

>  <Pocket>  (334) 
nan

>  <ATP_Site>  (334) 
nan

>  <Peripheral>  (334) 
nan

>  <Num_H_Atoms_ProtBoundConf>  (334) 
nan

>  <Num_Resolved_Atoms>  (334) 
nan

>  <Num_Not_Resolved_Atoms>  (334) 
nan

$$$$
CHEMBL3662956
     RDKit          3D

  0  0  0  0  0  0  0  0  0  0999 V3000
M  V30 BEGIN CTAB
M  V30 COUNTS 49 52 0 0 0
M  V30 BEGIN ATOM
M  V30 1 C -3.197426 -5.003832 2.133486 0
M  V30 2 O -2.369622 -5.088568 3.244724 0
M  V30 3 C -1.403791 -4.119737 3.270966 0
M  V30 4 C -0.451722 -4.090464 2.133271 0 CFG=1
M  V30 5 N 0.466234 -2.968989 2.401610 0
M  V30 6 C 0.443063 -1.806268 1.576512 0
M  V30 7 O -0.371606 -1.722443 0.596908 0
M  V30 8 N 1.356745 -0.731444 1.872108 0
M  V30 9 C 1.266912 0.394403 0.996958 0
M  V30 10 C 1.948480 0.627874 -0.181957 0
M  V30 11 C 1.685412 1.805737 -0.856674 0
M  V30 12 N 2.231935 2.229468 -2.012713 0
M  V30 13 N 1.667610 3.420370 -2.269894 0
M  V30 14 C 0.785480 3.744148 -1.301793 0
M  V30 15 C -0.030343 4.953028 -1.216707 0
M  V30 16 C -1.371467 4.949043 -0.891338 0
M  V30 17 C -2.160205 6.066241 -0.804254 0
M  V30 18 C -1.550158 7.282154 -1.065337 0
M  V30 19 F -2.338512 8.394740 -0.977916 0
M  V30 20 C -0.214209 7.345093 -1.394943 0
M  V30 21 C 0.562960 6.183912 -1.475126 0
M  V30 22 C 0.772162 2.723210 -0.373201 0
M  V30 23 C 0.113227 2.450079 0.808812 0
M  V30 24 N 0.360649 1.293098 1.487213 0
M  V30 25 C 0.254211 -5.321321 1.820921 0
M  V30 26 C 0.080069 -6.619808 2.252254 0
M  V30 27 C 0.865496 -7.653111 1.829653 0
M  V30 28 C 1.898292 -7.444846 0.927642 0
M  V30 29 C 2.050416 -6.145042 0.514296 0
M  V30 30 N 1.270560 -5.108089 0.931452 0
M  V30 31 H -3.944058 -5.826947 2.201444 0
M  V30 32 H -2.664137 -5.177380 1.180596 0
M  V30 33 H -3.740797 -4.049470 2.056140 0
M  V30 34 H -1.899364 -3.118265 3.307442 0
M  V30 35 H -0.860727 -4.196332 4.237233 0
M  V30 36 H -1.033990 -3.737684 1.231737 0
M  V30 37 H 1.144651 -3.017855 3.202972 0
M  V30 38 H 2.011971 -0.848433 2.694041 0
M  V30 39 H 2.627160 -0.157450 -0.449033 0
M  V30 40 H 2.947139 1.738722 -2.594269 0
M  V30 41 H -1.859776 4.009477 -0.685517 0
M  V30 42 H -3.221563 5.985507 -0.539532 0
M  V30 43 H 0.167824 8.335524 -1.579769 0
M  V30 44 H 1.597230 6.298114 -1.736398 0
M  V30 45 H -0.599845 3.174944 1.178771 0
M  V30 46 H -0.732694 -6.714143 2.947440 0
M  V30 47 H 0.644505 -8.623027 2.227169 0
M  V30 48 H 2.518743 -8.243323 0.589879 0
M  V30 49 H 2.869776 -5.978067 -0.201678 0
M  V30 END ATOM
M  V30 BEGIN BOND
M  V30 1 1 1 2
M  V30 2 1 2 3
M  V30 3 1 3 4
M  V30 4 1 4 5
M  V30 5 1 5 6
M  V30 6 2 6 7
M  V30 7 1 6 8
M  V30 8 1 8 9
M  V30 9 2 9 10
M  V30 10 1 10 11
M  V30 11 1 11 12
M  V30 12 1 12 13
M  V30 13 2 13 14
M  V30 14 1 14 15
M  V30 15 2 15 16
M  V30 16 1 16 17
M  V30 17 2 17 18
M  V30 18 1 18 19
M  V30 19 1 18 20
M  V30 20 2 20 21
M  V30 21 1 14 22
M  V30 22 1 22 23
M  V30 23 2 23 24
M  V30 24 1 4 25
M  V30 25 2 25 26
M  V30 26 1 26 27
M  V30 27 2 27 28
M  V30 28 1 28 29
M  V30 29 2 29 30
M  V30 30 1 24 9
M  V30 31 1 30 25
M  V30 32 2 22 11
M  V30 33 1 21 15
M  V30 34 1 1 31
M  V30 35 1 1 32
M  V30 36 1 1 33
M  V30 37 1 3 34
M  V30 38 1 3 35
M  V30 39 1 4 36 CFG=3
M  V30 40 1 5 37
M  V30 41 1 8 38
M  V30 42 1 10 39
M  V30 43 1 12 40
M  V30 44 1 16 41
M  V30 45 1 17 42
M  V30 46 1 20 43
M  V30 47 1 21 44
M  V30 48 1 23 45
M  V30 49 1 26 46
M  V30 50 1 27 47
M  V30 51 1 28 48
M  V30 52 1 29 49
M  V30 END BOND
M  V30 END CTAB
M  END
>  <Dataset>  (335) 
ChEMBL_Kinases

>  <Ligand_Instance>  (335) 
nan

>  <PDB_ID>  (335) 
nan

>  <Standardized_SMILES>  (335) 
COC[C@@H](NC(=O)Nc1cc2[nH]nc(-c3ccc(F)cc3)c2cn1)c1ccccn1

>  <Name>  (335) 
nan

>  <Pocket>  (335) 
nan

>  <ATP_Site>  (335) 
nan

>  <Peripheral>  (335) 
nan

>  <Num_H_Atoms_ProtBoundConf>  (335) 
nan

>  <Num_Resolved_Atoms>  (335) 
nan

>  <Num_Not_Resolved_Atoms>  (335) 
nan

$$$$
CHEMBL3662955
     RDKit          3D

  0  0  0  0  0  0  0  0  0  0999 V3000
M  V30 BEGIN CTAB
M  V30 COUNTS 47 50 0 0 0
M  V30 BEGIN ATOM
M  V30 1 C -2.906805 -4.174630 -5.378330 0
M  V30 2 C -3.490007 -4.021385 -4.036775 0
M  V30 3 C -2.600533 -3.842261 -2.987130 0
M  V30 4 C -3.132469 -3.697564 -1.726238 0
M  V30 5 C -2.375519 -3.499899 -0.494477 0
M  V30 6 N -2.577134 -4.128981 0.696879 0
M  V30 7 N -1.701345 -3.700761 1.596426 0
M  V30 8 C -0.903692 -2.772825 0.997735 0
M  V30 9 C 0.160154 -2.007137 1.443406 0
M  V30 10 C 0.818790 -1.111541 0.608134 0
M  V30 11 N 1.916343 -0.336295 1.106807 0
M  V30 12 C 1.622893 0.926789 1.680052 0
M  V30 13 O 0.407842 1.318607 1.728680 0
M  V30 14 N 2.634928 1.746653 2.190370 0
M  V30 15 C 2.272321 3.037434 2.769051 0
M  V30 16 C 2.944733 4.101170 1.927755 0
M  V30 17 C 2.747696 3.148818 4.180169 0
M  V30 18 C 4.031729 2.742480 4.478554 0
M  V30 19 C 4.455157 2.852105 5.787764 0
M  V30 20 C 3.590154 3.358514 6.743154 0
M  V30 21 F 3.939572 3.496856 8.061579 0
M  V30 22 N 2.327036 3.758284 6.449874 0
M  V30 23 C 1.909971 3.649166 5.154649 0
M  V30 24 N 0.398120 -0.990091 -0.686326 0
M  V30 25 C -0.647046 -1.734565 -1.144651 0
M  V30 26 C -1.314029 -2.635508 -0.314611 0
M  V30 27 C -4.498205 -3.731722 -1.531339 0
M  V30 28 C -5.354782 -3.913265 -2.610040 0
M  V30 29 N -4.821301 -4.055223 -3.850909 0
M  V30 30 H -3.677599 -4.058455 -6.177022 0
M  V30 31 H -2.083745 -3.448770 -5.582298 0
M  V30 32 H -2.544124 -5.223152 -5.451870 0
M  V30 33 H -1.536102 -3.801641 -3.033957 0
M  V30 34 H -1.627880 -4.017582 2.601689 0
M  V30 35 H 0.478637 -2.122822 2.486005 0
M  V30 36 H 2.929351 -0.622144 1.085868 0
M  V30 37 H 3.644269 1.482018 2.179155 0
M  V30 38 H 1.170536 3.180685 2.711365 0
M  V30 39 H 3.761544 4.624435 2.499747 0
M  V30 40 H 2.231247 4.900582 1.601576 0
M  V30 41 H 3.418577 3.719719 1.009392 0
M  V30 42 H 4.677408 2.352807 3.707378 0
M  V30 43 H 5.460585 2.547174 6.087238 0
M  V30 44 H 0.897138 3.976167 4.951411 0
M  V30 45 H -0.971741 -1.624024 -2.188106 0
M  V30 46 H -5.057337 -3.632734 -0.604238 0
M  V30 47 H -6.435244 -3.959754 -2.601948 0
M  V30 END ATOM
M  V30 BEGIN BOND
M  V30 1 1 1 2
M  V30 2 2 2 3
M  V30 3 1 3 4
M  V30 4 1 4 5
M  V30 5 2 5 6
M  V30 6 1 6 7
M  V30 7 1 7 8
M  V30 8 2 8 9
M  V30 9 1 9 10
M  V30 10 1 10 11
M  V30 11 1 11 12
M  V30 12 2 12 13
M  V30 13 1 12 14
M  V30 14 1 14 15
M  V30 15 1 15 16
M  V30 16 1 15 17
M  V30 17 2 17 18
M  V30 18 1 18 19
M  V30 19 2 19 20
M  V30 20 1 20 21
M  V30 21 1 20 22
M  V30 22 2 22 23
M  V30 23 2 10 24
M  V30 24 1 24 25
M  V30 25 2 25 26
M  V30 26 2 4 27
M  V30 27 1 27 28
M  V30 28 2 28 29
M  V30 29 1 29 2
M  V30 30 1 26 5
M  V30 31 1 26 8
M  V30 32 1 23 17
M  V30 33 1 1 30
M  V30 34 1 1 31
M  V30 35 1 1 32
M  V30 36 1 3 33
M  V30 37 1 7 34
M  V30 38 1 9 35
M  V30 39 1 11 36
M  V30 40 1 14 37
M  V30 41 1 15 38
M  V30 42 1 16 39
M  V30 43 1 16 40
M  V30 44 1 16 41
M  V30 45 1 18 42
M  V30 46 1 19 43
M  V30 47 1 23 44
M  V30 48 1 25 45
M  V30 49 1 27 46
M  V30 50 1 28 47
M  V30 END BOND
M  V30 END CTAB
M  END
>  <Dataset>  (336) 
ChEMBL_Kinases

>  <Ligand_Instance>  (336) 
nan

>  <PDB_ID>  (336) 
nan

>  <Standardized_SMILES>  (336) 
Cc1cc(-c2n[nH]c3cc(NC(=O)NC(C)c4ccc(F)nc4)ncc23)ccn1

>  <Name>  (336) 
nan

>  <Pocket>  (336) 
nan

>  <ATP_Site>  (336) 
nan

>  <Peripheral>  (336) 
nan

>  <Num_H_Atoms_ProtBoundConf>  (336) 
nan

>  <Num_Resolved_Atoms>  (336) 
nan

>  <Num_Not_Resolved_Atoms>  (336) 
nan

$$$$
CHEMBL3662954
     RDKit          3D

  0  0  0  0  0  0  0  0  0  0999 V3000
M  V30 BEGIN CTAB
M  V30 COUNTS 50 53 0 0 0
M  V30 BEGIN ATOM
M  V30 1 C 2.913600 3.659120 5.956899 0
M  V30 2 C 3.076881 2.240939 5.558098 0
M  V30 3 C 2.876201 1.301208 6.574910 0
M  V30 4 C 3.026184 -0.031049 6.214365 0
M  V30 5 N 3.346549 -0.366088 4.951383 0
M  V30 6 C 3.536441 0.538682 3.986170 0
M  V30 7 C 3.889661 0.077783 2.611642 0
M  V30 8 C 5.354744 0.376632 2.386539 0
M  V30 9 N 3.048852 0.852603 1.700225 0
M  V30 10 C 2.130073 0.169766 0.837629 0
M  V30 11 O 2.070485 -1.065887 0.885524 0
M  V30 12 N 1.282282 0.835575 -0.071268 0
M  V30 13 C 0.390204 0.098296 -0.902334 0
M  V30 14 C 0.639313 -0.402762 -2.162730 0
M  V30 15 C -0.405248 -1.084932 -2.753410 0
M  V30 16 N -0.434158 -1.670135 -3.965339 0
M  V30 17 N -1.636298 -2.200933 -4.108303 0
M  V30 18 C -2.411053 -1.987188 -3.027000 0
M  V30 19 C -3.790423 -2.414130 -2.806566 0
M  V30 20 C -4.762467 -1.582050 -2.285360 0
M  V30 21 C -6.073926 -2.029454 -2.089152 0
M  V30 22 N -6.368076 -3.309611 -2.426128 0
M  V30 23 C -5.403885 -4.116628 -2.937202 0
M  V30 24 C -5.870453 -5.491651 -3.260032 0
M  V30 25 C -4.092416 -3.736689 -3.155197 0
M  V30 26 C -1.630723 -1.268217 -2.143742 0
M  V30 27 C -1.825974 -0.742211 -0.874470 0
M  V30 28 N -0.809512 -0.073897 -0.290193 0
M  V30 29 C 3.406346 1.883477 4.261768 0
M  V30 30 H 3.765049 3.984034 6.606093 0
M  V30 31 H 2.981270 4.273872 5.047374 0
M  V30 32 H 1.973833 3.847581 6.528997 0
M  V30 33 H 2.621063 1.568637 7.580649 0
M  V30 34 H 2.895286 -0.847655 6.917578 0
M  V30 35 H 3.633740 -0.968839 2.446132 0
M  V30 36 H 5.880897 0.060800 3.330830 0
M  V30 37 H 5.503825 1.463028 2.262918 0
M  V30 38 H 5.690336 -0.230398 1.520737 0
M  V30 39 H 3.076291 1.893007 1.637065 0
M  V30 40 H 1.334745 1.898148 -0.111228 0
M  V30 41 H 1.605546 -0.212352 -2.546534 0
M  V30 42 H 0.339449 -1.710665 -4.680038 0
M  V30 43 H -4.510508 -0.562670 -2.021660 0
M  V30 44 H -6.774123 -1.316332 -1.676975 0
M  V30 45 H -6.542142 -5.492960 -4.139847 0
M  V30 46 H -6.445800 -5.898775 -2.379449 0
M  V30 47 H -5.001640 -6.171566 -3.364897 0
M  V30 48 H -3.371712 -4.429763 -3.566220 0
M  V30 49 H -2.782182 -0.879738 -0.387137 0
M  V30 50 H 3.555095 2.630600 3.498150 0
M  V30 END ATOM
M  V30 BEGIN BOND
M  V30 1 1 1 2
M  V30 2 2 2 3
M  V30 3 1 3 4
M  V30 4 2 4 5
M  V30 5 1 5 6
M  V30 6 1 6 7
M  V30 7 1 7 8
M  V30 8 1 7 9
M  V30 9 1 9 10
M  V30 10 2 10 11
M  V30 11 1 10 12
M  V30 12 1 12 13
M  V30 13 2 13 14
M  V30 14 1 14 15
M  V30 15 1 15 16
M  V30 16 1 16 17
M  V30 17 2 17 18
M  V30 18 1 18 19
M  V30 19 2 19 20
M  V30 20 1 20 21
M  V30 21 2 21 22
M  V30 22 1 22 23
M  V30 23 1 23 24
M  V30 24 2 23 25
M  V30 25 1 18 26
M  V30 26 1 26 27
M  V30 27 2 27 28
M  V30 28 2 6 29
M  V30 29 1 29 2
M  V30 30 1 28 13
M  V30 31 2 26 15
M  V30 32 1 25 19
M  V30 33 1 1 30
M  V30 34 1 1 31
M  V30 35 1 1 32
M  V30 36 1 3 33
M  V30 37 1 4 34
M  V30 38 1 7 35
M  V30 39 1 8 36
M  V30 40 1 8 37
M  V30 41 1 8 38
M  V30 42 1 9 39
M  V30 43 1 12 40
M  V30 44 1 14 41
M  V30 45 1 16 42
M  V30 46 1 20 43
M  V30 47 1 21 44
M  V30 48 1 24 45
M  V30 49 1 24 46
M  V30 50 1 24 47
M  V30 51 1 25 48
M  V30 52 1 27 49
M  V30 53 1 29 50
M  V30 END BOND
M  V30 END CTAB
M  END
>  <Dataset>  (337) 
ChEMBL_Kinases

>  <Ligand_Instance>  (337) 
nan

>  <PDB_ID>  (337) 
nan

>  <Standardized_SMILES>  (337) 
Cc1ccnc(C(C)NC(=O)Nc2cc3[nH]nc(-c4ccnc(C)c4)c3cn2)c1

>  <Name>  (337) 
nan

>  <Pocket>  (337) 
nan

>  <ATP_Site>  (337) 
nan

>  <Peripheral>  (337) 
nan

>  <Num_H_Atoms_ProtBoundConf>  (337) 
nan

>  <Num_Resolved_Atoms>  (337) 
nan

>  <Num_Not_Resolved_Atoms>  (337) 
nan

$$$$
CHEMBL3662953
     RDKit          3D

  0  0  0  0  0  0  0  0  0  0999 V3000
M  V30 BEGIN CTAB
M  V30 COUNTS 44 47 0 0 0
M  V30 BEGIN ATOM
M  V30 1 C 0.521525 -8.155128 -0.194724 0
M  V30 2 C 0.187109 -6.831078 -0.788554 0
M  V30 3 C 1.000551 -5.716949 -0.677373 0
M  V30 4 C 0.603469 -4.525068 -1.265478 0
M  V30 5 C 1.449104 -3.341833 -1.157593 0
M  V30 6 N 2.778493 -3.303076 -1.338213 0
M  V30 7 N 3.257241 -2.071997 -1.169222 0
M  V30 8 C 2.185925 -1.313906 -0.871887 0
M  V30 9 C 2.143656 0.040304 -0.605503 0
M  V30 10 C 0.909363 0.596419 -0.323938 0
M  V30 11 N 0.632143 1.963704 -0.021824 0
M  V30 12 C 0.682555 2.347303 1.364837 0
M  V30 13 O 0.949359 1.573493 2.310118 0
M  V30 14 N 0.399236 3.714971 1.605925 0
M  V30 15 C 0.412448 4.255786 2.973034 0
M  V30 16 C 1.469190 5.295423 3.148377 0
M  V30 17 C -0.947393 4.699650 3.375660 0
M  V30 18 C -1.592934 4.459448 4.583633 0
M  V30 19 C -2.847901 5.036425 4.577832 0
M  V30 20 N -2.913182 5.606095 3.360563 0
M  V30 21 O -1.813714 5.398098 2.694786 0
M  V30 22 N -0.214555 -0.150200 -0.308497 0
M  V30 23 C -0.191328 -1.480602 -0.567612 0
M  V30 24 C 1.026505 -2.063837 -0.852062 0
M  V30 25 C -0.595352 -4.502368 -1.941306 0
M  V30 26 C -1.366469 -5.645564 -2.019935 0
M  V30 27 N -0.970654 -6.802098 -1.443407 0
M  V30 28 H 0.451277 -8.886454 -1.029791 0
M  V30 29 H -0.254196 -8.452014 0.562356 0
M  V30 30 H 1.490092 -8.185388 0.307392 0
M  V30 31 H 1.923735 -5.814598 -0.132276 0
M  V30 32 H 4.249003 -1.752131 -1.248025 0
M  V30 33 H 2.972721 0.732586 -0.589676 0
M  V30 34 H 0.406337 2.628319 -0.799692 0
M  V30 35 H 0.171915 4.403753 0.867887 0
M  V30 36 H 0.670866 3.383766 3.609017 0
M  V30 37 H 1.931262 5.173353 4.149402 0
M  V30 38 H 1.095924 6.337032 3.082280 0
M  V30 39 H 2.249559 5.082485 2.367603 0
M  V30 40 H -1.190354 3.895752 5.439293 0
M  V30 41 H -3.578765 5.015505 5.379368 0
M  V30 42 H -1.079882 -2.097517 -0.560534 0
M  V30 43 H -0.956951 -3.614815 -2.416011 0
M  V30 44 H -2.309048 -5.603870 -2.558641 0
M  V30 END ATOM
M  V30 BEGIN BOND
M  V30 1 1 1 2
M  V30 2 2 2 3
M  V30 3 1 3 4
M  V30 4 1 4 5
M  V30 5 2 5 6
M  V30 6 1 6 7
M  V30 7 1 7 8
M  V30 8 2 8 9
M  V30 9 1 9 10
M  V30 10 1 10 11
M  V30 11 1 11 12
M  V30 12 2 12 13
M  V30 13 1 12 14
M  V30 14 1 14 15
M  V30 15 1 15 16
M  V30 16 1 15 17
M  V30 17 2 17 18
M  V30 18 1 18 19
M  V30 19 2 19 20
M  V30 20 1 20 21
M  V30 21 2 10 22
M  V30 22 1 22 23
M  V30 23 2 23 24
M  V30 24 2 4 25
M  V30 25 1 25 26
M  V30 26 2 26 27
M  V30 27 1 27 2
M  V30 28 1 24 5
M  V30 29 1 24 8
M  V30 30 1 21 17
M  V30 31 1 1 28
M  V30 32 1 1 29
M  V30 33 1 1 30
M  V30 34 1 3 31
M  V30 35 1 7 32
M  V30 36 1 9 33
M  V30 37 1 11 34
M  V30 38 1 14 35
M  V30 39 1 15 36
M  V30 40 1 16 37
M  V30 41 1 16 38
M  V30 42 1 16 39
M  V30 43 1 18 40
M  V30 44 1 19 41
M  V30 45 1 23 42
M  V30 46 1 25 43
M  V30 47 1 26 44
M  V30 END BOND
M  V30 END CTAB
M  END
>  <Dataset>  (338) 
ChEMBL_Kinases

>  <Ligand_Instance>  (338) 
nan

>  <PDB_ID>  (338) 
nan

>  <Standardized_SMILES>  (338) 
Cc1cc(-c2n[nH]c3cc(NC(=O)NC(C)c4ccno4)ncc23)ccn1

>  <Name>  (338) 
nan

>  <Pocket>  (338) 
nan

>  <ATP_Site>  (338) 
nan

>  <Peripheral>  (338) 
nan

>  <Num_H_Atoms_ProtBoundConf>  (338) 
nan

>  <Num_Resolved_Atoms>  (338) 
nan

>  <Num_Not_Resolved_Atoms>  (338) 
nan

$$$$
CHEMBL3662952
     RDKit          3D

  0  0  0  0  0  0  0  0  0  0999 V3000
M  V30 BEGIN CTAB
M  V30 COUNTS 44 47 0 0 0
M  V30 BEGIN ATOM
M  V30 1 C 0.934829 -8.045697 -1.284109 0
M  V30 2 C 0.461998 -6.680580 -1.627309 0
M  V30 3 C 1.221263 -5.541369 -1.459861 0
M  V30 4 C 0.718705 -4.292941 -1.801298 0
M  V30 5 C 1.505607 -3.076659 -1.631872 0
M  V30 6 N 2.811942 -2.852063 -1.957492 0
M  V30 7 N 3.143440 -1.598124 -1.635317 0
M  V30 8 C 2.062680 -1.000932 -1.101113 0
M  V30 9 C 1.944422 0.290876 -0.627868 0
M  V30 10 C 0.728596 0.699982 -0.115748 0
M  V30 11 N 0.355465 1.963565 0.426292 0
M  V30 12 C 0.518273 2.204725 1.820860 0
M  V30 13 O 0.977443 1.358108 2.611601 0
M  V30 14 N 0.139567 3.459942 2.315027 0
M  V30 15 C 0.262657 3.808341 3.711223 0
M  V30 16 C 1.313376 4.905858 3.896049 0
M  V30 17 C -1.027847 4.229089 4.339422 0
M  V30 18 C -1.430695 3.636313 5.677477 0
M  V30 19 S -3.023300 4.530328 5.890837 0
M  V30 20 C -2.885117 5.488082 4.248982 0
M  V30 21 N -1.591098 5.115352 3.521081 0
M  V30 22 N -0.306207 -0.190503 -0.098801 0
M  V30 23 C -0.164973 -1.449499 -0.568014 0
M  V30 24 C 1.021770 -1.905730 -1.087131 0
M  V30 25 C -0.555555 -4.288928 -2.302961 0
M  V30 26 C -1.325825 -5.441323 -2.473220 0
M  V30 27 N -0.790616 -6.631203 -2.125683 0
M  V30 28 H 0.920851 -8.653418 -2.218943 0
M  V30 29 H 0.312835 -8.502457 -0.475392 0
M  V30 30 H 1.977908 -8.048715 -0.927848 0
M  V30 31 H 2.223746 -5.633518 -1.054944 0
M  V30 32 H 4.082657 -1.192915 -1.787000 0
M  V30 33 H 2.688851 1.050607 -0.599772 0
M  V30 34 H -0.029993 2.681596 -0.222444 0
M  V30 35 H -0.248678 4.209799 1.716424 0
M  V30 36 H 0.686541 2.913438 4.207821 0
M  V30 37 H 1.386262 5.076441 4.986691 0
M  V30 38 H 0.888809 5.826392 3.446576 0
M  V30 39 H 2.239962 4.559104 3.437402 0
M  V30 40 H -0.852385 2.968930 6.137963 0
M  V30 41 H -3.538377 6.273509 3.679964 0
M  V30 42 H -1.002490 -2.131165 -0.541084 0
M  V30 43 H -1.030546 -3.371585 -2.595442 0
M  V30 44 H -2.328868 -5.391873 -2.873439 0
M  V30 END ATOM
M  V30 BEGIN BOND
M  V30 1 1 1 2
M  V30 2 2 2 3
M  V30 3 1 3 4
M  V30 4 1 4 5
M  V30 5 2 5 6
M  V30 6 1 6 7
M  V30 7 1 7 8
M  V30 8 2 8 9
M  V30 9 1 9 10
M  V30 10 1 10 11
M  V30 11 1 11 12
M  V30 12 2 12 13
M  V30 13 1 12 14
M  V30 14 1 14 15
M  V30 15 1 15 16
M  V30 16 1 15 17
M  V30 17 2 17 18
M  V30 18 1 18 19
M  V30 19 1 19 20
M  V30 20 2 20 21
M  V30 21 2 10 22
M  V30 22 1 22 23
M  V30 23 2 23 24
M  V30 24 2 4 25
M  V30 25 1 25 26
M  V30 26 2 26 27
M  V30 27 1 27 2
M  V30 28 1 24 5
M  V30 29 1 24 8
M  V30 30 1 21 17
M  V30 31 1 1 28
M  V30 32 1 1 29
M  V30 33 1 1 30
M  V30 34 1 3 31
M  V30 35 1 7 32
M  V30 36 1 9 33
M  V30 37 1 11 34
M  V30 38 1 14 35
M  V30 39 1 15 36
M  V30 40 1 16 37
M  V30 41 1 16 38
M  V30 42 1 16 39
M  V30 43 1 18 40
M  V30 44 1 20 41
M  V30 45 1 23 42
M  V30 46 1 25 43
M  V30 47 1 26 44
M  V30 END BOND
M  V30 END CTAB
M  END
>  <Dataset>  (339) 
ChEMBL_Kinases

>  <Ligand_Instance>  (339) 
nan

>  <PDB_ID>  (339) 
nan

>  <Standardized_SMILES>  (339) 
Cc1cc(-c2n[nH]c3cc(NC(=O)NC(C)c4cscn4)ncc23)ccn1

>  <Name>  (339) 
nan

>  <Pocket>  (339) 
nan

>  <ATP_Site>  (339) 
nan

>  <Peripheral>  (339) 
nan

>  <Num_H_Atoms_ProtBoundConf>  (339) 
nan

>  <Num_Resolved_Atoms>  (339) 
nan

>  <Num_Not_Resolved_Atoms>  (339) 
nan

$$$$
CHEMBL3662951
     RDKit          3D

  0  0  0  0  0  0  0  0  0  0999 V3000
M  V30 BEGIN CTAB
M  V30 COUNTS 48 51 0 0 0
M  V30 BEGIN ATOM
M  V30 1 C 3.289019 -3.825575 2.126318 0
M  V30 2 O 3.884581 -2.826594 1.358665 0
M  V30 3 C 4.679095 -1.875344 1.927049 0
M  V30 4 N 4.938074 -1.842248 3.242124 0
M  V30 5 C 5.711262 -0.932161 3.818609 0
M  V30 6 C 6.270474 0.028877 2.985189 0
M  V30 7 C 6.018604 0.016477 1.629216 0
M  V30 8 C 5.195043 -0.959243 1.046568 0
M  V30 9 C 5.017272 -0.764685 -0.409156 0
M  V30 10 N 3.835929 0.010700 -0.658267 0
M  V30 11 C 2.457241 0.036358 -0.488011 0
M  V30 12 O 1.980349 -0.951675 0.095492 0
M  V30 13 N 1.556522 1.050114 -0.901448 0
M  V30 14 C 0.176839 0.869289 -0.610302 0
M  V30 15 C -0.155280 1.450795 0.619537 0
M  V30 16 C -1.467671 1.371493 1.077549 0
M  V30 17 N -2.152388 1.786779 2.157622 0
M  V30 18 N -3.422854 1.409172 2.041768 0
M  V30 19 C -3.593569 0.740015 0.884617 0
M  V30 20 C -4.901875 0.215505 0.514140 0
M  V30 21 C -6.062244 0.960788 0.621861 0
M  V30 22 C -7.249015 0.360983 0.248168 0
M  V30 23 N -7.330813 -0.903930 -0.212239 0
M  V30 24 C -6.179100 -1.617755 -0.309893 0
M  V30 25 C -6.230373 -3.009230 -0.807667 0
M  V30 26 C -4.950585 -1.087650 0.044575 0
M  V30 27 C -2.364157 0.706682 0.260124 0
M  V30 28 C -2.031993 0.136077 -0.949384 0
M  V30 29 N -0.739697 0.234672 -1.362655 0
M  V30 30 H 4.008370 -4.317011 2.827023 0
M  V30 31 H 2.525099 -3.349041 2.791167 0
M  V30 32 H 2.830356 -4.641113 1.543657 0
M  V30 33 H 5.839428 -1.017000 4.884043 0
M  V30 34 H 6.901466 0.766936 3.473523 0
M  V30 35 H 6.523636 0.827374 1.104916 0
M  V30 36 H 5.903580 -0.307164 -0.874364 0
M  V30 37 H 4.831106 -1.778576 -0.875536 0
M  V30 38 H 4.108269 0.920467 -1.168451 0
M  V30 39 H 1.954430 1.879164 -1.392756 0
M  V30 40 H 0.514613 1.972714 1.277169 0
M  V30 41 H -1.718128 2.321215 2.945221 0
M  V30 42 H -5.953619 1.960216 0.991607 0
M  V30 43 H -8.103849 1.039109 0.373017 0
M  V30 44 H -7.200556 -3.466580 -0.530332 0
M  V30 45 H -6.155226 -3.050518 -1.911041 0
M  V30 46 H -5.420908 -3.638593 -0.336520 0
M  V30 47 H -4.065038 -1.701468 -0.053507 0
M  V30 48 H -2.757698 -0.376032 -1.564283 0
M  V30 END ATOM
M  V30 BEGIN BOND
M  V30 1 1 1 2
M  V30 2 1 2 3
M  V30 3 2 3 4
M  V30 4 1 4 5
M  V30 5 2 5 6
M  V30 6 1 6 7
M  V30 7 2 7 8
M  V30 8 1 8 9
M  V30 9 1 9 10
M  V30 10 1 10 11
M  V30 11 2 11 12
M  V30 12 1 11 13
M  V30 13 1 13 14
M  V30 14 2 14 15
M  V30 15 1 15 16
M  V30 16 1 16 17
M  V30 17 1 17 18
M  V30 18 2 18 19
M  V30 19 1 19 20
M  V30 20 2 20 21
M  V30 21 1 21 22
M  V30 22 2 22 23
M  V30 23 1 23 24
M  V30 24 1 24 25
M  V30 25 2 24 26
M  V30 26 1 19 27
M  V30 27 1 27 28
M  V30 28 2 28 29
M  V30 29 1 8 3
M  V30 30 1 29 14
M  V30 31 2 27 16
M  V30 32 1 26 20
M  V30 33 1 1 30
M  V30 34 1 1 31
M  V30 35 1 1 32
M  V30 36 1 5 33
M  V30 37 1 6 34
M  V30 38 1 7 35
M  V30 39 1 9 36
M  V30 40 1 9 37
M  V30 41 1 10 38
M  V30 42 1 13 39
M  V30 43 1 15 40
M  V30 44 1 17 41
M  V30 45 1 21 42
M  V30 46 1 22 43
M  V30 47 1 25 44
M  V30 48 1 25 45
M  V30 49 1 25 46
M  V30 50 1 26 47
M  V30 51 1 28 48
M  V30 END BOND
M  V30 END CTAB
M  END
>  <Dataset>  (340) 
ChEMBL_Kinases

>  <Ligand_Instance>  (340) 
nan

>  <PDB_ID>  (340) 
nan

>  <Standardized_SMILES>  (340) 
COc1ncccc1CNC(=O)Nc1cc2[nH]nc(-c3ccnc(C)c3)c2cn1

>  <Name>  (340) 
nan

>  <Pocket>  (340) 
nan

>  <ATP_Site>  (340) 
nan

>  <Peripheral>  (340) 
nan

>  <Num_H_Atoms_ProtBoundConf>  (340) 
nan

>  <Num_Resolved_Atoms>  (340) 
nan

>  <Num_Not_Resolved_Atoms>  (340) 
nan

$$$$
CHEMBL3662950
     RDKit          3D

  0  0  0  0  0  0  0  0  0  0999 V3000
M  V30 BEGIN CTAB
M  V30 COUNTS 55 58 0 0 0
M  V30 BEGIN ATOM
M  V30 1 C 0.238523 -0.315455 5.437886 0
M  V30 2 O 1.579415 -0.395522 5.258063 0
M  V30 3 C 2.233763 0.581443 4.595920 0
M  V30 4 C 1.893724 0.825069 3.167796 0 CFG=2
M  V30 5 C 2.845857 1.879308 2.577945 0
M  V30 6 C 4.258497 1.441720 2.648146 0
M  V30 7 C 5.140656 1.672195 3.668346 0
M  V30 8 C 6.441237 1.214121 3.629170 0
M  V30 9 C 6.927441 0.495992 2.556612 0
M  V30 10 C 6.057221 0.261180 1.535688 0
M  V30 11 C 4.754634 0.716135 1.567571 0
M  V30 12 N 0.526626 1.200058 2.917390 0
M  V30 13 C -0.100161 0.530678 1.823302 0
M  V30 14 O 0.485903 -0.324281 1.122772 0
M  V30 15 N -1.452246 0.853311 1.519253 0
M  V30 16 C -2.178273 0.249677 0.451788 0
M  V30 17 C -3.496818 0.563295 0.154097 0
M  V30 18 C -4.119714 -0.075424 -0.902383 0
M  V30 19 N -5.356831 -0.010186 -1.448257 0
M  V30 20 N -5.461938 -0.847014 -2.475078 0
M  V30 21 C -4.289662 -1.518348 -2.667235 0
M  V30 22 C -3.984939 -2.522293 -3.682596 0
M  V30 23 C -4.369258 -2.304313 -5.008744 0
M  V30 24 C -4.062218 -3.278465 -5.938745 0
M  V30 25 N -3.415226 -4.406020 -5.597683 0
M  V30 26 C -3.022930 -4.666180 -4.337650 0
M  V30 27 C -2.301076 -5.913858 -3.931371 0
M  V30 28 C -3.318997 -3.701386 -3.377581 0
M  V30 29 C -3.469543 -1.019939 -1.674921 0
M  V30 30 C -2.158681 -1.294759 -1.335934 0
M  V30 31 N -1.553563 -0.671503 -0.306388 0
M  V30 32 H -0.319686 -0.301393 4.497869 0
M  V30 33 H -0.152642 -1.225513 5.987022 0
M  V30 34 H -0.078543 0.530982 6.097526 0
M  V30 35 H 2.196659 1.562364 5.185972 0
M  V30 36 H 3.344348 0.315301 4.667897 0
M  V30 37 H 2.152261 -0.093358 2.562289 0
M  V30 38 H 2.509449 2.078267 1.562858 0
M  V30 39 H 2.754726 2.760119 3.248995 0
M  V30 40 H 4.764354 2.236988 4.513487 0
M  V30 41 H 7.062931 1.451635 4.493476 0
M  V30 42 H 7.959816 0.181402 2.620352 0
M  V30 43 H 6.422513 -0.302873 0.682393 0
M  V30 44 H 4.108079 0.500690 0.729758 0
M  V30 45 H 0.073547 1.917497 3.524866 0
M  V30 46 H -1.935369 1.565225 2.105031 0
M  V30 47 H -4.005978 1.287028 0.740552 0
M  V30 48 H -6.087943 0.632067 -1.068209 0
M  V30 49 H -4.895710 -1.398075 -5.314207 0
M  V30 50 H -4.321251 -3.193012 -6.985427 0
M  V30 51 H -1.194423 -5.748945 -3.861944 0
M  V30 52 H -2.474767 -6.727162 -4.653495 0
M  V30 53 H -2.619051 -6.260321 -2.919701 0
M  V30 54 H -3.005290 -3.906659 -2.363078 0
M  V30 55 H -1.584374 -2.022428 -1.894215 0
M  V30 END ATOM
M  V30 BEGIN BOND
M  V30 1 1 1 2
M  V30 2 1 2 3
M  V30 3 1 3 4
M  V30 4 1 4 5
M  V30 5 1 5 6
M  V30 6 2 6 7
M  V30 7 1 7 8
M  V30 8 2 8 9
M  V30 9 1 9 10
M  V30 10 2 10 11
M  V30 11 1 4 12
M  V30 12 1 12 13
M  V30 13 2 13 14
M  V30 14 1 13 15
M  V30 15 1 15 16
M  V30 16 2 16 17
M  V30 17 1 17 18
M  V30 18 1 18 19
M  V30 19 1 19 20
M  V30 20 2 20 21
M  V30 21 1 21 22
M  V30 22 2 22 23
M  V30 23 1 23 24
M  V30 24 2 24 25
M  V30 25 1 25 26
M  V30 26 1 26 27
M  V30 27 2 26 28
M  V30 28 1 21 29
M  V30 29 1 29 30
M  V30 30 2 30 31
M  V30 31 1 11 6
M  V30 32 1 31 16
M  V30 33 2 29 18
M  V30 34 1 28 22
M  V30 35 1 1 32
M  V30 36 1 1 33
M  V30 37 1 1 34
M  V30 38 1 3 35
M  V30 39 1 3 36
M  V30 40 1 4 37 CFG=3
M  V30 41 1 5 38
M  V30 42 1 5 39
M  V30 43 1 7 40
M  V30 44 1 8 41
M  V30 45 1 9 42
M  V30 46 1 10 43
M  V30 47 1 11 44
M  V30 48 1 12 45
M  V30 49 1 15 46
M  V30 50 1 17 47
M  V30 51 1 19 48
M  V30 52 1 23 49
M  V30 53 1 24 50
M  V30 54 1 27 51
M  V30 55 1 27 52
M  V30 56 1 27 53
M  V30 57 1 28 54
M  V30 58 1 30 55
M  V30 END BOND
M  V30 END CTAB
M  END
>  <Dataset>  (341) 
ChEMBL_Kinases

>  <Ligand_Instance>  (341) 
nan

>  <PDB_ID>  (341) 
nan

>  <Standardized_SMILES>  (341) 
COC[C@H](Cc1ccccc1)NC(=O)Nc1cc2[nH]nc(-c3ccnc(C)c3)c2cn1

>  <Name>  (341) 
nan

>  <Pocket>  (341) 
nan

>  <ATP_Site>  (341) 
nan

>  <Peripheral>  (341) 
nan

>  <Num_H_Atoms_ProtBoundConf>  (341) 
nan

>  <Num_Resolved_Atoms>  (341) 
nan

>  <Num_Not_Resolved_Atoms>  (341) 
nan

$$$$
CHEMBL2385557
     RDKit          3D

  0  0  0  0  0  0  0  0  0  0999 V3000
M  V30 BEGIN CTAB
M  V30 COUNTS 47 51 0 0 0
M  V30 BEGIN ATOM
M  V30 1 C -3.442407 -3.070389 4.442323 0
M  V30 2 C -2.121370 -3.247239 3.757313 0
M  V30 3 C -1.314323 -4.336046 4.049353 0
M  V30 4 C -0.080343 -4.522728 3.424998 0
M  V30 5 C 0.310511 -3.575476 2.498244 0
M  V30 6 C -0.474439 -2.474925 2.184153 0
M  V30 7 C -0.029320 -1.491421 1.197691 0
M  V30 8 N 0.235466 -0.165663 1.354872 0
M  V30 9 C 0.618568 0.359611 0.177917 0
M  V30 10 C 0.994251 1.744221 -0.096004 0
M  V30 11 C 1.366827 2.105256 -1.373474 0
M  V30 12 C 1.711359 3.428359 -1.571993 0
M  V30 13 C 1.703659 4.398443 -0.574553 0
M  V30 14 C 2.070960 5.714227 -0.880044 0
M  V30 15 C 2.031109 6.600777 0.176438 0
M  V30 16 C 1.662375 6.268765 1.466061 0
M  V30 17 C 1.304367 4.941295 1.718740 0
M  V30 18 C 1.324563 4.009961 0.704426 0
M  V30 19 C 0.980880 2.692907 0.905214 0
M  V30 20 F 0.612640 2.345074 2.175627 0
M  V30 21 N 0.595513 -0.635526 -0.722729 0
M  V30 22 C 0.201458 -1.802694 -0.144290 0
M  V30 23 C 0.033351 -3.126853 -0.731655 0
M  V30 24 C -1.261559 -3.656741 -0.707421 0
M  V30 25 C -1.430736 -4.914913 -1.263442 0
M  V30 26 N -0.447917 -5.661833 -1.822172 0
M  V30 27 C 0.811652 -5.134534 -1.840161 0
M  V30 28 C 1.052430 -3.887922 -1.304684 0
M  V30 29 C -1.690664 -2.315072 2.816980 0
M  V30 30 H -3.306259 -2.616622 5.442598 0
M  V30 31 H -4.027241 -2.314086 3.849189 0
M  V30 32 H -4.033258 -3.985472 4.442746 0
M  V30 33 H -1.616547 -5.079704 4.773684 0
M  V30 34 H 0.573154 -5.364950 3.633073 0
M  V30 35 H 1.284101 -3.735575 2.014850 0
M  V30 36 H 1.393227 1.393143 -2.196805 0
M  V30 37 H 2.003089 3.700939 -2.582513 0
M  V30 38 H 2.365549 6.009233 -1.880509 0
M  V30 39 H 2.317421 7.623271 -0.064323 0
M  V30 40 H 1.640037 6.985656 2.275879 0
M  V30 41 H 1.004959 4.609384 2.703367 0
M  V30 42 H 0.827331 -0.628784 -1.748074 0
M  V30 43 H -2.103759 -3.138172 -0.285649 0
M  V30 44 H -2.424800 -5.389719 -1.276763 0
M  V30 45 H 1.621164 -5.703681 -2.278861 0
M  V30 46 H 2.044677 -3.429240 -1.298277 0
M  V30 47 H -2.301623 -1.468811 2.580259 0
M  V30 END ATOM
M  V30 BEGIN BOND
M  V30 1 1 1 2
M  V30 2 2 2 3
M  V30 3 1 3 4
M  V30 4 2 4 5
M  V30 5 1 5 6
M  V30 6 1 6 7
M  V30 7 1 7 8
M  V30 8 2 8 9
M  V30 9 1 9 10
M  V30 10 2 10 11
M  V30 11 1 11 12
M  V30 12 2 12 13
M  V30 13 1 13 14
M  V30 14 2 14 15
M  V30 15 1 15 16
M  V30 16 2 16 17
M  V30 17 1 17 18
M  V30 18 2 18 19
M  V30 19 1 19 20
M  V30 20 1 9 21
M  V30 21 1 21 22
M  V30 22 1 22 23
M  V30 23 2 23 24
M  V30 24 1 24 25
M  V30 25 2 25 26
M  V30 26 1 26 27
M  V30 27 2 27 28
M  V30 28 2 6 29
M  V30 29 1 29 2
M  V30 30 2 22 7
M  V30 31 1 28 23
M  V30 32 1 19 10
M  V30 33 1 18 13
M  V30 34 1 1 30
M  V30 35 1 1 31
M  V30 36 1 1 32
M  V30 37 1 3 33
M  V30 38 1 4 34
M  V30 39 1 5 35
M  V30 40 1 11 36
M  V30 41 1 12 37
M  V30 42 1 14 38
M  V30 43 1 15 39
M  V30 44 1 16 40
M  V30 45 1 17 41
M  V30 46 1 21 42
M  V30 47 1 24 43
M  V30 48 1 25 44
M  V30 49 1 27 45
M  V30 50 1 28 46
M  V30 51 1 29 47
M  V30 END BOND
M  V30 END CTAB
M  END
>  <Dataset>  (342) 
ChEMBL_Kinases

>  <Ligand_Instance>  (342) 
nan

>  <PDB_ID>  (342) 
nan

>  <Standardized_SMILES>  (342) 
Cc1cccc(-c2nc(-c3ccc4ccccc4c3F)[nH]c2-c2ccncc2)c1

>  <Name>  (342) 
nan

>  <Pocket>  (342) 
nan

>  <ATP_Site>  (342) 
nan

>  <Peripheral>  (342) 
nan

>  <Num_H_Atoms_ProtBoundConf>  (342) 
nan

>  <Num_Resolved_Atoms>  (342) 
nan

>  <Num_Not_Resolved_Atoms>  (342) 
nan

$$$$
CHEMBL3662948
     RDKit          3D

  0  0  0  0  0  0  0  0  0  0999 V3000
M  V30 BEGIN CTAB
M  V30 COUNTS 54 58 0 0 0
M  V30 BEGIN ATOM
M  V30 1 C 5.090611 -7.365666 2.042649 0
M  V30 2 C 4.858600 -6.313729 1.015154 0
M  V30 3 C 4.596013 -5.003517 1.350547 0
M  V30 4 C 4.376196 -4.003469 0.419870 0
M  V30 5 C 4.109655 -2.659455 0.936734 0
M  V30 6 N 4.783392 -2.024689 1.932318 0
M  V30 7 N 4.260919 -0.805967 2.137118 0
M  V30 8 C 3.252823 -0.696503 1.252215 0
M  V30 9 C 2.417724 0.392654 1.089220 0
M  V30 10 C 1.440296 0.300817 0.118188 0
M  V30 11 N 0.448009 1.255541 -0.269283 0
M  V30 12 C -0.842238 1.306839 0.329603 0
M  V30 13 O -1.030720 0.442194 1.225184 0
M  V30 14 N -1.864949 2.217812 -0.002092 0
M  V30 15 C -3.162058 2.275248 0.594007 0
M  V30 16 C -3.063277 2.530562 2.072606 0
M  V30 17 N -2.387415 3.795418 2.248263 0
M  V30 18 C -3.876732 3.490274 -0.013472 0
M  V30 19 C -4.690205 2.918918 -1.159168 0
M  V30 20 C -4.921623 1.510372 -0.701329 0
M  V30 21 C -5.878003 0.663649 -1.197850 0
M  V30 22 C -6.013629 -0.618549 -0.708715 0
M  V30 23 F -6.952607 -1.465454 -1.188703 0
M  V30 24 C -5.167786 -1.031921 0.290030 0
M  V30 25 C -4.214856 -0.157856 0.770108 0
M  V30 26 C -4.038706 1.131477 0.315802 0
M  V30 27 N 1.304771 -0.820065 -0.649131 0
M  V30 28 C 2.122457 -1.891390 -0.492319 0
M  V30 29 C 3.107692 -1.826120 0.470880 0
M  V30 30 C 4.419113 -4.320738 -0.926193 0
M  V30 31 C 4.683787 -5.640507 -1.253425 0
M  V30 32 N 4.891636 -6.581774 -0.319157 0
M  V30 33 H 6.151108 -7.541077 2.268762 0
M  V30 34 H 4.544316 -8.282734 1.752537 0
M  V30 35 H 4.563940 -7.008494 2.967649 0
M  V30 36 H 4.567941 -4.781773 2.409000 0
M  V30 37 H 4.587953 -0.115538 2.838651 0
M  V30 38 H 2.399497 1.326986 1.605536 0
M  V30 39 H 0.656646 1.958901 -1.025525 0
M  V30 40 H -1.542869 2.876427 -0.773274 0
M  V30 41 H -4.053049 2.638971 2.550943 0
M  V30 42 H -2.528700 1.720012 2.604999 0
M  V30 43 H -1.689993 3.681395 3.007793 0
M  V30 44 H -2.003315 4.192452 1.367608 0
M  V30 45 H -4.502539 4.015674 0.732172 0
M  V30 46 H -3.155399 4.231603 -0.413135 0
M  V30 47 H -5.638935 3.469755 -1.320706 0
M  V30 48 H -4.105964 2.957454 -2.081530 0
M  V30 49 H -6.573784 0.929287 -1.983583 0
M  V30 50 H -5.267702 -2.024285 0.673394 0
M  V30 51 H -3.584348 -0.520466 1.541294 0
M  V30 52 H 2.035496 -2.790141 -1.087174 0
M  V30 53 H 4.247896 -3.541005 -1.640940 0
M  V30 54 H 4.723875 -5.921260 -2.315430 0
M  V30 END ATOM
M  V30 BEGIN BOND
M  V30 1 1 1 2
M  V30 2 2 2 3
M  V30 3 1 3 4
M  V30 4 1 4 5
M  V30 5 2 5 6
M  V30 6 1 6 7
M  V30 7 1 7 8
M  V30 8 2 8 9
M  V30 9 1 9 10
M  V30 10 1 10 11
M  V30 11 1 11 12
M  V30 12 2 12 13
M  V30 13 1 12 14
M  V30 14 1 14 15
M  V30 15 1 15 16
M  V30 16 1 16 17
M  V30 17 1 15 18
M  V30 18 1 18 19
M  V30 19 1 19 20
M  V30 20 2 20 21
M  V30 21 1 21 22
M  V30 22 1 22 23
M  V30 23 2 22 24
M  V30 24 1 24 25
M  V30 25 2 25 26
M  V30 26 2 10 27
M  V30 27 1 27 28
M  V30 28 2 28 29
M  V30 29 2 4 30
M  V30 30 1 30 31
M  V30 31 2 31 32
M  V30 32 1 32 2
M  V30 33 1 29 5
M  V30 34 1 29 8
M  V30 35 1 26 15
M  V30 36 1 26 20
M  V30 37 1 1 33
M  V30 38 1 1 34
M  V30 39 1 1 35
M  V30 40 1 3 36
M  V30 41 1 7 37
M  V30 42 1 9 38
M  V30 43 1 11 39
M  V30 44 1 14 40
M  V30 45 1 16 41
M  V30 46 1 16 42
M  V30 47 1 17 43
M  V30 48 1 17 44
M  V30 49 1 18 45
M  V30 50 1 18 46
M  V30 51 1 19 47
M  V30 52 1 19 48
M  V30 53 1 21 49
M  V30 54 1 24 50
M  V30 55 1 25 51
M  V30 56 1 28 52
M  V30 57 1 30 53
M  V30 58 1 31 54
M  V30 END BOND
M  V30 END CTAB
M  END
>  <Dataset>  (343) 
ChEMBL_Kinases

>  <Ligand_Instance>  (343) 
nan

>  <PDB_ID>  (343) 
nan

>  <Standardized_SMILES>  (343) 
Cc1cc(-c2n[nH]c3cc(NC(=O)NC4(CN)CCc5cc(F)ccc54)ncc23)ccn1

>  <Name>  (343) 
nan

>  <Pocket>  (343) 
nan

>  <ATP_Site>  (343) 
nan

>  <Peripheral>  (343) 
nan

>  <Num_H_Atoms_ProtBoundConf>  (343) 
nan

>  <Num_Resolved_Atoms>  (343) 
nan

>  <Num_Not_Resolved_Atoms>  (343) 
nan

$$$$
CHEMBL3662947
     RDKit          3D

  0  0  0  0  0  0  0  0  0  0999 V3000
M  V30 BEGIN CTAB
M  V30 COUNTS 47 50 0 0 0
M  V30 BEGIN ATOM
M  V30 1 C -1.539636 -7.702092 3.174101 0
M  V30 2 C -1.274468 -6.826049 1.994929 0
M  V30 3 C -0.197678 -5.967124 1.967801 0
M  V30 4 C 0.073710 -5.145597 0.892905 0
M  V30 5 C 1.198868 -4.221456 0.808052 0
M  V30 6 N 2.510375 -4.427326 1.121209 0
M  V30 7 N 3.219288 -3.338765 0.907642 0
M  V30 8 C 2.386868 -2.387847 0.447263 0
M  V30 9 C 2.693947 -1.094918 0.093486 0
M  V30 10 C 1.676944 -0.278252 -0.357795 0
M  V30 11 N 1.719105 1.081232 -0.783383 0
M  V30 12 C 1.539153 2.192477 0.082866 0
M  V30 13 O 1.341441 1.865169 1.262085 0
M  V30 14 N 1.576849 3.533171 -0.327738 0
M  V30 15 C 1.381892 4.626178 0.635734 0
M  V30 16 C 0.066382 4.536065 1.291993 0
M  V30 17 C -0.061538 4.076000 2.594980 0
M  V30 18 N -1.252810 3.983945 3.216812 0
M  V30 19 C -2.417639 4.327555 2.634659 0
M  V30 20 C -2.329039 4.789932 1.337671 0
M  V30 21 C -1.118668 4.891915 0.682463 0
M  V30 22 C -1.101309 5.398718 -0.710380 0
M  V30 23 N 0.425063 -0.801352 -0.426750 0
M  V30 24 C 0.136180 -2.071839 -0.076735 0
M  V30 25 C 1.129841 -2.911242 0.377222 0
M  V30 26 C -0.762089 -5.178810 -0.203694 0
M  V30 27 C -1.831715 -6.050702 -0.143325 0
M  V30 28 N -2.103740 -6.862486 0.913146 0
M  V30 29 H -0.671592 -8.361055 3.324453 0
M  V30 30 H -1.596186 -7.030252 4.064874 0
M  V30 31 H -2.497490 -8.227745 3.017322 0
M  V30 32 H 0.481696 -5.911597 2.809591 0
M  V30 33 H 4.261973 -3.262643 1.079734 0
M  V30 34 H 3.652339 -0.597189 0.115710 0
M  V30 35 H 1.893966 1.264049 -1.806764 0
M  V30 36 H 1.745599 3.736690 -1.329171 0
M  V30 37 H 2.159995 4.462151 1.409959 0
M  V30 38 H 1.576279 5.600188 0.184295 0
M  V30 39 H 0.801669 3.767917 3.172652 0
M  V30 40 H -3.312848 4.211328 3.230393 0
M  V30 41 H -3.276281 5.069201 0.864090 0
M  V30 42 H -0.270410 5.056364 -1.322059 0
M  V30 43 H -1.227665 6.517149 -0.739715 0
M  V30 44 H -2.043121 5.006628 -1.191136 0
M  V30 45 H -0.875188 -2.446981 -0.145908 0
M  V30 46 H -0.708611 -4.625328 -1.110777 0
M  V30 47 H -2.589617 -6.209647 -0.913164 0
M  V30 END ATOM
M  V30 BEGIN BOND
M  V30 1 1 1 2
M  V30 2 2 2 3
M  V30 3 1 3 4
M  V30 4 1 4 5
M  V30 5 2 5 6
M  V30 6 1 6 7
M  V30 7 1 7 8
M  V30 8 2 8 9
M  V30 9 1 9 10
M  V30 10 1 10 11
M  V30 11 1 11 12
M  V30 12 2 12 13
M  V30 13 1 12 14
M  V30 14 1 14 15
M  V30 15 1 15 16
M  V30 16 2 16 17
M  V30 17 1 17 18
M  V30 18 2 18 19
M  V30 19 1 19 20
M  V30 20 2 20 21
M  V30 21 1 21 22
M  V30 22 2 10 23
M  V30 23 1 23 24
M  V30 24 2 24 25
M  V30 25 2 4 26
M  V30 26 1 26 27
M  V30 27 2 27 28
M  V30 28 1 28 2
M  V30 29 1 25 5
M  V30 30 1 25 8
M  V30 31 1 21 16
M  V30 32 1 1 29
M  V30 33 1 1 30
M  V30 34 1 1 31
M  V30 35 1 3 32
M  V30 36 1 7 33
M  V30 37 1 9 34
M  V30 38 1 11 35
M  V30 39 1 14 36
M  V30 40 1 15 37
M  V30 41 1 15 38
M  V30 42 1 17 39
M  V30 43 1 19 40
M  V30 44 1 20 41
M  V30 45 1 22 42
M  V30 46 1 22 43
M  V30 47 1 22 44
M  V30 48 1 24 45
M  V30 49 1 26 46
M  V30 50 1 27 47
M  V30 END BOND
M  V30 END CTAB
M  END
>  <Dataset>  (344) 
ChEMBL_Kinases

>  <Ligand_Instance>  (344) 
nan

>  <PDB_ID>  (344) 
nan

>  <Standardized_SMILES>  (344) 
Cc1cc(-c2n[nH]c3cc(NC(=O)NCc4cnccc4C)ncc23)ccn1

>  <Name>  (344) 
nan

>  <Pocket>  (344) 
nan

>  <ATP_Site>  (344) 
nan

>  <Peripheral>  (344) 
nan

>  <Num_H_Atoms_ProtBoundConf>  (344) 
nan

>  <Num_Resolved_Atoms>  (344) 
nan

>  <Num_Not_Resolved_Atoms>  (344) 
nan

$$$$
CHEMBL3662945
     RDKit          3D

  0  0  0  0  0  0  0  0  0  0999 V3000
M  V30 BEGIN CTAB
M  V30 COUNTS 73 77 0 0 0
M  V30 BEGIN ATOM
M  V30 1 C 6.995654 -1.437351 5.101059 0
M  V30 2 C 6.437071 -0.826908 3.872284 0
M  V30 3 C 7.103756 -0.504639 2.710562 0
M  V30 4 C 6.427908 0.059871 1.661412 0
M  V30 5 C 5.070691 0.330738 1.710246 0
M  V30 6 C 4.420747 0.941634 0.532961 0
M  V30 7 O 5.076834 1.217169 -0.507917 0
M  V30 8 N 3.028892 1.189449 0.661478 0
M  V30 9 C 2.320099 1.776653 -0.424677 0
M  V30 10 N 2.806097 2.152064 -1.625332 0
M  V30 11 N 1.857498 2.655394 -2.371826 0
M  V30 12 C 0.702321 2.639168 -1.708157 0
M  V30 13 C 0.976731 2.086470 -0.474327 0
M  V30 14 C -0.321510 2.079147 0.248780 0
M  V30 15 N -1.259443 1.861172 -0.851661 0
M  V30 16 C -2.311135 1.021556 -1.219429 0
M  V30 17 O -2.935380 1.125800 -2.307766 0
M  V30 18 N -2.919141 -0.053172 -0.580827 0
M  V30 19 C -4.007641 -0.746739 -1.227988 0
M  V30 20 C -3.471327 -2.154035 -1.487298 0 CFG=1
M  V30 21 C -2.084719 -2.022304 -2.101666 0
M  V30 22 N -3.337622 -2.784473 -0.230710 0
M  V30 23 C -2.740671 -4.046924 -0.195709 0
M  V30 24 C -3.560573 -5.045246 -0.970832 0
M  V30 25 C -2.786958 -6.344055 -1.064791 0
M  V30 26 O -2.657389 -6.830657 0.247691 0
M  V30 27 C -1.830323 -5.973598 0.980275 0
M  V30 28 C -2.431506 -4.594155 1.166174 0
M  V30 29 C -3.328740 -1.952456 0.908549 0
M  V30 30 C -2.623631 -0.637470 0.737179 0 CFG=2
M  V30 31 C -3.154570 0.363650 1.741985 0
M  V30 32 C -0.759787 2.933772 -1.657597 0
M  V30 33 C -0.897542 4.289561 -1.004022 0
M  V30 34 C -1.359308 2.983095 -3.037174 0
M  V30 35 N 4.424224 0.012312 2.851328 0
M  V30 36 C 5.082310 -0.542390 3.885525 0
M  V30 37 H 6.548368 -2.444637 5.239911 0
M  V30 38 H 6.721123 -0.855796 6.016132 0
M  V30 39 H 8.098240 -1.533137 5.079089 0
M  V30 40 H 8.169233 -0.735129 2.717029 0
M  V30 41 H 7.006672 0.289570 0.777531 0
M  V30 42 H 2.502682 0.956246 1.526916 0
M  V30 43 H 1.971330 3.020327 -3.345266 0
M  V30 44 H -0.506777 3.081509 0.716722 0
M  V30 45 H -0.367132 1.330771 1.033550 0
M  V30 46 H -4.331018 -0.261409 -2.165485 0
M  V30 47 H -4.863883 -0.755036 -0.511314 0
M  V30 48 H -4.160416 -2.688665 -2.174840 0
M  V30 49 H -1.334636 -1.708986 -1.372631 0
M  V30 50 H -1.744266 -3.020915 -2.505986 0
M  V30 51 H -2.093056 -1.371700 -3.019293 0
M  V30 52 H -1.747073 -3.994335 -0.731432 0
M  V30 53 H -3.779701 -4.622764 -1.959793 0
M  V30 54 H -4.510482 -5.250818 -0.404755 0
M  V30 55 H -3.372838 -7.100686 -1.648405 0
M  V30 56 H -1.835805 -6.166491 -1.567777 0
M  V30 57 H -0.927400 -5.816149 0.322550 0
M  V30 58 H -1.556860 -6.471762 1.925675 0
M  V30 59 H -3.326488 -4.714956 1.799377 0
M  V30 60 H -1.612534 -4.002674 1.657771 0
M  V30 61 H -4.384896 -1.736965 1.200677 0
M  V30 62 H -2.895762 -2.462172 1.788614 0
M  V30 63 H -1.542742 -0.748221 0.916988 0
M  V30 64 H -3.156909 1.386012 1.312638 0
M  V30 65 H -4.250352 0.110211 1.841635 0
M  V30 66 H -2.662209 0.282937 2.720631 0
M  V30 67 H -1.774144 4.325314 -0.332091 0
M  V30 68 H -1.068893 5.032401 -1.809631 0
M  V30 69 H 0.042479 4.615504 -0.507036 0
M  V30 70 H -0.816779 3.750116 -3.640910 0
M  V30 71 H -2.404135 3.275872 -3.052760 0
M  V30 72 H -1.219424 2.036347 -3.596129 0
M  V30 73 H 4.475303 -0.757460 4.747439 0
M  V30 END ATOM
M  V30 BEGIN BOND
M  V30 1 1 1 2
M  V30 2 2 2 3
M  V30 3 1 3 4
M  V30 4 2 4 5
M  V30 5 1 5 6
M  V30 6 2 6 7
M  V30 7 1 6 8
M  V30 8 1 8 9
M  V30 9 2 9 10
M  V30 10 1 10 11
M  V30 11 1 11 12
M  V30 12 2 12 13
M  V30 13 1 13 14
M  V30 14 1 14 15
M  V30 15 1 15 16
M  V30 16 2 16 17
M  V30 17 1 16 18
M  V30 18 1 18 19
M  V30 19 1 19 20
M  V30 20 1 20 21
M  V30 21 1 20 22
M  V30 22 1 22 23
M  V30 23 1 23 24
M  V30 24 1 24 25
M  V30 25 1 25 26
M  V30 26 1 26 27
M  V30 27 1 27 28
M  V30 28 1 22 29
M  V30 29 1 29 30
M  V30 30 1 30 31
M  V30 31 1 15 32
M  V30 32 1 32 33
M  V30 33 1 32 34
M  V30 34 1 5 35
M  V30 35 2 35 36
M  V30 36 1 36 2
M  V30 37 1 13 9
M  V30 38 1 30 18
M  V30 39 1 32 12
M  V30 40 1 28 23
M  V30 41 1 1 37
M  V30 42 1 1 38
M  V30 43 1 1 39
M  V30 44 1 3 40
M  V30 45 1 4 41
M  V30 46 1 8 42
M  V30 47 1 11 43
M  V30 48 1 14 44
M  V30 49 1 14 45
M  V30 50 1 19 46
M  V30 51 1 19 47
M  V30 52 1 20 48 CFG=3
M  V30 53 1 21 49
M  V30 54 1 21 50
M  V30 55 1 21 51
M  V30 56 1 23 52
M  V30 57 1 24 53
M  V30 58 1 24 54
M  V30 59 1 25 55
M  V30 60 1 25 56
M  V30 61 1 27 57
M  V30 62 1 27 58
M  V30 63 1 28 59
M  V30 64 1 28 60
M  V30 65 1 29 61
M  V30 66 1 29 62
M  V30 67 1 30 63 CFG=1
M  V30 68 1 31 64
M  V30 69 1 31 65
M  V30 70 1 31 66
M  V30 71 1 33 67
M  V30 72 1 33 68
M  V30 73 1 33 69
M  V30 74 1 34 70
M  V30 75 1 34 71
M  V30 76 1 34 72
M  V30 77 1 36 73
M  V30 END BOND
M  V30 END CTAB
M  END
>  <Dataset>  (345) 
ChEMBL_Kinases

>  <Ligand_Instance>  (345) 
nan

>  <PDB_ID>  (345) 
nan

>  <Standardized_SMILES>  (345) 
Cc1ccc(C(=O)Nc2n[nH]c3c2CN(C(=O)N2C[C@@H](C)N(C4CCOCC4)C[C@@H]2C)C3(C)C)nc1

>  <Name>  (345) 
nan

>  <Pocket>  (345) 
nan

>  <ATP_Site>  (345) 
nan

>  <Peripheral>  (345) 
nan

>  <Num_H_Atoms_ProtBoundConf>  (345) 
nan

>  <Num_Resolved_Atoms>  (345) 
nan

>  <Num_Not_Resolved_Atoms>  (345) 
nan

$$$$
CHEMBL3662944
     RDKit          3D

  0  0  0  0  0  0  0  0  0  0999 V3000
M  V30 BEGIN CTAB
M  V30 COUNTS 69 73 0 0 0
M  V30 BEGIN ATOM
M  V30 1 C 1.736564 -1.781284 4.175931 0
M  V30 2 C 1.277309 -2.697749 3.102490 0 CFG=2
M  V30 3 C 1.905336 -2.212804 1.785050 0
M  V30 4 N 1.125120 -2.725333 0.676238 0
M  V30 5 C 0.821911 -1.906643 -0.418764 0
M  V30 6 O 1.411450 -0.876933 -0.004266 0
M  V30 7 N 0.439544 -1.209675 -1.580121 0
M  V30 8 C 0.760170 0.167622 -1.886367 0
M  V30 9 C -0.539950 0.663000 -2.411594 0
M  V30 10 C -1.353815 1.778478 -2.597877 0
M  V30 11 N -0.926010 3.069327 -2.167821 0
M  V30 12 C -0.198159 4.122580 -2.787497 0
M  V30 13 O 0.204954 3.998395 -3.967569 0
M  V30 14 C 0.020331 5.299828 -1.954981 0
M  V30 15 C 0.725255 6.327691 -2.545705 0
M  V30 16 C 0.957139 7.469281 -1.789932 0
M  V30 17 N 0.506111 7.560747 -0.526087 0
M  V30 18 C -0.186699 6.539939 0.041987 0
M  V30 19 N -0.413109 5.437257 -0.681820 0
M  V30 20 N -2.464994 1.349155 -3.197474 0
M  V30 21 N -2.396074 0.042909 -3.395945 0
M  V30 22 C -1.228214 -0.435853 -2.930253 0
M  V30 23 C -0.323983 -1.622357 -2.713926 0
M  V30 24 C 0.474498 -1.824400 -3.958559 0
M  V30 25 C -1.232254 -2.799108 -2.435684 0
M  V30 26 C 0.718214 -4.118938 0.834557 0 CFG=1
M  V30 27 C 1.898237 -5.054095 0.709592 0
M  V30 28 C -0.015829 -4.340695 2.156400 0
M  V30 29 N -0.002345 -3.077369 2.917024 0
M  V30 30 C -1.192335 -2.379468 2.861036 0
M  V30 31 C -2.411494 -3.093012 3.410977 0
M  V30 32 C -2.978047 -2.387482 4.621205 0
M  V30 33 O -2.061184 -1.708798 5.359951 0
M  V30 34 C -1.453548 -0.657872 4.683608 0
M  V30 35 C -1.265813 -0.949011 3.244700 0
M  V30 36 H 1.700142 -0.706359 3.902588 0
M  V30 37 H 2.837931 -1.931728 4.389722 0
M  V30 38 H 1.266337 -1.901661 5.146346 0
M  V30 39 H 1.862456 -3.651578 3.312153 0
M  V30 40 H 2.928741 -2.613474 1.633654 0
M  V30 41 H 2.024786 -1.119845 1.788651 0
M  V30 42 H 1.565462 0.215215 -2.646231 0
M  V30 43 H 1.083869 0.725606 -0.988569 0
M  V30 44 H -1.280564 3.145387 -1.169169 0
M  V30 45 H 1.107791 6.288776 -3.571866 0
M  V30 46 H 1.510981 8.320962 -2.202030 0
M  V30 47 H -0.593129 6.506671 1.044404 0
M  V30 48 H -3.120551 -0.537964 -3.840000 0
M  V30 49 H 0.058144 -2.727588 -4.482806 0
M  V30 50 H 0.365851 -0.982513 -4.657757 0
M  V30 51 H 1.533680 -2.074896 -3.743320 0
M  V30 52 H -1.979856 -2.473430 -1.692010 0
M  V30 53 H -1.812003 -2.968773 -3.381104 0
M  V30 54 H -0.671060 -3.683840 -2.133106 0
M  V30 55 H -0.004713 -4.436510 0.046411 0
M  V30 56 H 1.831265 -5.940313 1.365473 0
M  V30 57 H 1.957272 -5.481382 -0.332070 0
M  V30 58 H 2.867893 -4.543516 0.903691 0
M  V30 59 H 0.599820 -5.028166 2.769070 0
M  V30 60 H -1.047602 -4.673890 2.030259 0
M  V30 61 H -1.394008 -2.358421 1.736904 0
M  V30 62 H -2.201009 -4.179653 3.636869 0
M  V30 63 H -3.257759 -3.161542 2.694515 0
M  V30 64 H -3.762664 -1.663023 4.298779 0
M  V30 65 H -3.472090 -3.130569 5.273765 0
M  V30 66 H -2.143386 0.203396 4.810990 0
M  V30 67 H -0.527534 -0.314441 5.217810 0
M  V30 68 H -0.410027 -0.397437 2.809019 0
M  V30 69 H -2.153918 -0.496614 2.704788 0
M  V30 END ATOM
M  V30 BEGIN BOND
M  V30 1 1 1 2
M  V30 2 1 2 3
M  V30 3 1 3 4
M  V30 4 1 4 5
M  V30 5 2 5 6
M  V30 6 1 5 7
M  V30 7 1 7 8
M  V30 8 1 8 9
M  V30 9 1 9 10
M  V30 10 1 10 11
M  V30 11 1 11 12
M  V30 12 2 12 13
M  V30 13 1 12 14
M  V30 14 2 14 15
M  V30 15 1 15 16
M  V30 16 2 16 17
M  V30 17 1 17 18
M  V30 18 2 18 19
M  V30 19 2 10 20
M  V30 20 1 20 21
M  V30 21 1 21 22
M  V30 22 1 22 23
M  V30 23 1 23 24
M  V30 24 1 23 25
M  V30 25 1 4 26
M  V30 26 1 26 27
M  V30 27 1 26 28
M  V30 28 1 28 29
M  V30 29 1 29 30
M  V30 30 1 30 31
M  V30 31 1 31 32
M  V30 32 1 32 33
M  V30 33 1 33 34
M  V30 34 1 34 35
M  V30 35 1 29 2
M  V30 36 1 35 30
M  V30 37 1 23 7
M  V30 38 2 22 9
M  V30 39 1 19 14
M  V30 40 1 1 36
M  V30 41 1 1 37
M  V30 42 1 1 38
M  V30 43 1 2 39 CFG=1
M  V30 44 1 3 40
M  V30 45 1 3 41
M  V30 46 1 8 42
M  V30 47 1 8 43
M  V30 48 1 11 44
M  V30 49 1 15 45
M  V30 50 1 16 46
M  V30 51 1 18 47
M  V30 52 1 21 48
M  V30 53 1 24 49
M  V30 54 1 24 50
M  V30 55 1 24 51
M  V30 56 1 25 52
M  V30 57 1 25 53
M  V30 58 1 25 54
M  V30 59 1 26 55 CFG=3
M  V30 60 1 27 56
M  V30 61 1 27 57
M  V30 62 1 27 58
M  V30 63 1 28 59
M  V30 64 1 28 60
M  V30 65 1 30 61
M  V30 66 1 31 62
M  V30 67 1 31 63
M  V30 68 1 32 64
M  V30 69 1 32 65
M  V30 70 1 34 66
M  V30 71 1 34 67
M  V30 72 1 35 68
M  V30 73 1 35 69
M  V30 END BOND
M  V30 END CTAB
M  END
>  <Dataset>  (346) 
ChEMBL_Kinases

>  <Ligand_Instance>  (346) 
nan

>  <PDB_ID>  (346) 
nan

>  <Standardized_SMILES>  (346) 
C[C@@H]1CN(C(=O)N2Cc3c(NC(=O)c4ccncn4)n[nH]c3C2(C)C)[C@@H](C)CN1C1CCOCC1

>  <Name>  (346) 
nan

>  <Pocket>  (346) 
nan

>  <ATP_Site>  (346) 
nan

>  <Peripheral>  (346) 
nan

>  <Num_H_Atoms_ProtBoundConf>  (346) 
nan

>  <Num_Resolved_Atoms>  (346) 
nan

>  <Num_Not_Resolved_Atoms>  (346) 
nan

$$$$
CHEMBL3662916
     RDKit          3D

  0  0  0  0  0  0  0  0  0  0999 V3000
M  V30 BEGIN CTAB
M  V30 COUNTS 76 80 0 0 0
M  V30 BEGIN ATOM
M  V30 1 C 1.586077 -1.807401 6.512691 0
M  V30 2 C 2.966119 -1.199549 6.356501 0
M  V30 3 C 3.267848 -0.805352 4.967693 0
M  V30 4 N 3.169473 0.174414 4.191927 0
M  V30 5 C 3.560090 0.091145 2.951050 0
M  V30 6 C 3.516202 1.077215 1.892411 0
M  V30 7 O 3.777371 0.958488 0.665280 0
M  V30 8 N 3.146655 2.433258 2.038574 0
M  V30 9 C 3.252860 2.892182 0.662442 0
M  V30 10 N 4.117487 3.444775 -0.203550 0
M  V30 11 N 3.539783 3.592366 -1.385831 0
M  V30 12 C 2.274244 3.175024 -1.454661 0
M  V30 13 C 2.100469 2.731501 -0.138102 0
M  V30 14 C 0.683204 2.222580 -0.021949 0
M  V30 15 N 0.312979 2.016101 -1.394943 0
M  V30 16 C -0.621200 0.996327 -1.547782 0
M  V30 17 O -0.711646 0.774264 -0.322464 0
M  V30 18 N -1.553793 -0.021229 -1.705194 0
M  V30 19 C -2.011248 -0.454430 -0.384696 0
M  V30 20 C -3.170090 -1.444733 -0.542524 0 CFG=1
M  V30 21 C -4.405151 -0.686407 -1.033307 0
M  V30 22 N -2.751855 -2.500742 -1.357539 0
M  V30 23 C -3.057689 -3.822490 -1.068580 0
M  V30 24 C -2.383464 -4.443396 0.103781 0
M  V30 25 C -0.865137 -4.463214 0.018756 0
M  V30 26 C -0.281886 -4.480687 1.423793 0
M  V30 27 O -0.959304 -5.283049 2.310559 0
M  V30 28 C -2.304932 -5.027382 2.450490 0
M  V30 29 C -2.741618 -3.918555 1.462528 0
M  V30 30 C -2.139736 -2.161096 -2.590797 0
M  V30 31 C -2.080690 -0.678479 -2.873546 0 CFG=2
M  V30 32 C -1.177350 -0.468340 -4.073712 0
M  V30 33 C 1.023205 2.959156 -2.221757 0
M  V30 34 C 0.330330 4.303997 -2.273408 0
M  V30 35 C 1.373519 2.444186 -3.584294 0
M  V30 36 C 4.123392 -1.142892 2.430833 0
M  V30 37 S 4.042931 -2.242561 3.957164 0
M  V30 38 H 1.431858 -2.510422 5.662279 0
M  V30 39 H 1.610172 -2.406297 7.458024 0
M  V30 40 H 0.830786 -1.017818 6.570629 0
M  V30 41 H 3.126658 -0.357915 7.064242 0
M  V30 42 H 3.667869 -2.000465 6.729247 0
M  V30 43 H 2.896423 2.847724 2.952762 0
M  V30 44 H 4.090621 4.013939 -2.183674 0
M  V30 45 H 0.721761 1.309800 0.610608 0
M  V30 46 H 0.015471 2.939467 0.475164 0
M  V30 47 H -2.379638 0.415141 0.177440 0
M  V30 48 H -1.244348 -0.958731 0.213193 0
M  V30 49 H -3.437530 -1.775338 0.464450 0
M  V30 50 H -5.201886 -0.635893 -0.227586 0
M  V30 51 H -4.906841 -1.194693 -1.871512 0
M  V30 52 H -4.173490 0.385831 -1.219784 0
M  V30 53 H -4.166981 -4.009925 -0.910999 0
M  V30 54 H -2.841664 -4.530039 -1.937911 0
M  V30 55 H -2.667065 -5.561989 0.157513 0
M  V30 56 H -0.508053 -5.400773 -0.467737 0
M  V30 57 H -0.478329 -3.601231 -0.507844 0
M  V30 58 H 0.749207 -4.898360 1.333084 0
M  V30 59 H -0.134672 -3.448244 1.814705 0
M  V30 60 H -2.886400 -5.913123 2.171299 0
M  V30 61 H -2.608210 -4.717373 3.462860 0
M  V30 62 H -2.118182 -3.031089 1.713173 0
M  V30 63 H -3.806633 -3.811907 1.582562 0
M  V30 64 H -2.698137 -2.601805 -3.463284 0
M  V30 65 H -1.110231 -2.563352 -2.632036 0
M  V30 66 H -3.078113 -0.370321 -3.188629 0
M  V30 67 H -1.616026 -1.005938 -4.945578 0
M  V30 68 H -0.150349 -0.798225 -3.935189 0
M  V30 69 H -1.236383 0.613827 -4.329553 0
M  V30 70 H 1.072994 5.131318 -2.233434 0
M  V30 71 H -0.441097 4.408440 -1.482608 0
M  V30 72 H -0.142109 4.357874 -3.286667 0
M  V30 73 H 2.329911 2.942937 -3.929643 0
M  V30 74 H 1.632995 1.377762 -3.511571 0
M  V30 75 H 0.613392 2.652537 -4.341686 0
M  V30 76 H 4.527405 -1.490152 1.463309 0
M  V30 END ATOM
M  V30 BEGIN BOND
M  V30 1 1 1 2
M  V30 2 1 2 3
M  V30 3 2 3 4
M  V30 4 1 4 5
M  V30 5 1 5 6
M  V30 6 2 6 7
M  V30 7 1 6 8
M  V30 8 1 8 9
M  V30 9 2 9 10
M  V30 10 1 10 11
M  V30 11 1 11 12
M  V30 12 2 12 13
M  V30 13 1 13 14
M  V30 14 1 14 15
M  V30 15 1 15 16
M  V30 16 2 16 17
M  V30 17 1 16 18
M  V30 18 1 18 19
M  V30 19 1 19 20
M  V30 20 1 20 21
M  V30 21 1 20 22
M  V30 22 1 22 23
M  V30 23 1 23 24
M  V30 24 1 24 25
M  V30 25 1 25 26
M  V30 26 1 26 27
M  V30 27 1 27 28
M  V30 28 1 28 29
M  V30 29 1 22 30
M  V30 30 1 30 31
M  V30 31 1 31 32
M  V30 32 1 15 33
M  V30 33 1 33 34
M  V30 34 1 33 35
M  V30 35 2 5 36
M  V30 36 1 36 37
M  V30 37 1 37 3
M  V30 38 1 13 9
M  V30 39 1 31 18
M  V30 40 1 33 12
M  V30 41 1 29 24
M  V30 42 1 1 38
M  V30 43 1 1 39
M  V30 44 1 1 40
M  V30 45 1 2 41
M  V30 46 1 2 42
M  V30 47 1 8 43
M  V30 48 1 11 44
M  V30 49 1 14 45
M  V30 50 1 14 46
M  V30 51 1 19 47
M  V30 52 1 19 48
M  V30 53 1 20 49 CFG=1
M  V30 54 1 21 50
M  V30 55 1 21 51
M  V30 56 1 21 52
M  V30 57 1 23 53
M  V30 58 1 23 54
M  V30 59 1 24 55
M  V30 60 1 25 56
M  V30 61 1 25 57
M  V30 62 1 26 58
M  V30 63 1 26 59
M  V30 64 1 28 60
M  V30 65 1 28 61
M  V30 66 1 29 62
M  V30 67 1 29 63
M  V30 68 1 30 64
M  V30 69 1 30 65
M  V30 70 1 31 66 CFG=3
M  V30 71 1 32 67
M  V30 72 1 32 68
M  V30 73 1 32 69
M  V30 74 1 34 70
M  V30 75 1 34 71
M  V30 76 1 34 72
M  V30 77 1 35 73
M  V30 78 1 35 74
M  V30 79 1 35 75
M  V30 80 1 36 76
M  V30 END BOND
M  V30 END CTAB
M  END
>  <Dataset>  (347) 
ChEMBL_Kinases

>  <Ligand_Instance>  (347) 
nan

>  <PDB_ID>  (347) 
nan

>  <Standardized_SMILES>  (347) 
CCc1nc(C(=O)Nc2n[nH]c3c2CN(C(=O)N2C[C@@H](C)N(CC4CCOCC4)C[C@@H]2C)C3(C)C)cs1

>  <Name>  (347) 
nan

>  <Pocket>  (347) 
nan

>  <ATP_Site>  (347) 
nan

>  <Peripheral>  (347) 
nan

>  <Num_H_Atoms_ProtBoundConf>  (347) 
nan

>  <Num_Resolved_Atoms>  (347) 
nan

>  <Num_Not_Resolved_Atoms>  (347) 
nan

$$$$
CHEMBL3662915
     RDKit          3D

  0  0  0  0  0  0  0  0  0  0999 V3000
M  V30 BEGIN CTAB
M  V30 COUNTS 79 83 0 0 0
M  V30 BEGIN ATOM
M  V30 1 C 4.240791 0.637663 8.102471 0
M  V30 2 C 3.063755 -0.299749 8.184798 0
M  V30 3 C 1.781712 0.344801 7.763945 0
M  V30 4 C 1.840845 0.826533 6.362114 0
M  V30 5 C 2.764417 0.839007 5.340969 0
M  V30 6 C 2.198334 1.449276 4.249584 0
M  V30 7 C 2.898529 1.634367 2.984857 0
M  V30 8 O 4.073388 1.216136 2.889818 0
M  V30 9 N 2.147965 2.286141 1.976014 0
M  V30 10 C 2.625863 2.575036 0.659552 0
M  V30 11 N 3.269577 3.614885 0.093546 0
M  V30 12 N 3.476640 3.354507 -1.193657 0
M  V30 13 C 2.975913 2.141467 -1.504552 0
M  V30 14 C 2.436883 1.639055 -0.345794 0
M  V30 15 C 1.902855 0.308191 -0.735740 0
M  V30 16 N 1.489229 0.524453 -2.114129 0
M  V30 17 C 0.358592 0.346756 -3.002511 0
M  V30 18 O 0.501838 0.720928 -4.223416 0
M  V30 19 N -0.914974 -0.209810 -2.653587 0
M  V30 20 C -1.218349 -0.659329 -1.336775 0
M  V30 21 C -2.621045 -1.259940 -1.196240 0 CFG=1
M  V30 22 C -3.525077 -0.015107 -1.062253 0
M  V30 23 N -3.092292 -1.924000 -2.302636 0
M  V30 24 C -2.884304 -3.219369 -2.680133 0
M  V30 25 C -3.433083 -4.383381 -1.937408 0
M  V30 26 C -4.922667 -4.422932 -1.832982 0
M  V30 27 C -5.462793 -4.689343 -0.456117 0
M  V30 28 O -4.589101 -5.370941 0.378169 0
M  V30 29 C -3.516342 -4.503729 0.572558 0
M  V30 30 C -2.681057 -4.601370 -0.673810 0
M  V30 31 C -3.120561 -1.039085 -3.435007 0
M  V30 32 C -1.887516 -0.295618 -3.717450 0 CFG=2
M  V30 33 C -1.200153 -0.848775 -4.975156 0
M  V30 34 C 2.745216 1.099170 -2.557878 0
M  V30 35 C 3.838626 0.084410 -2.453244 0
M  V30 36 C 2.681056 1.735625 -3.924829 0
M  V30 37 N 0.973411 1.772972 4.658921 0
M  V30 38 O 0.755176 1.414469 5.888128 0
M  V30 39 H 3.964181 1.625880 7.675028 0
M  V30 40 H 5.056587 0.137518 7.514983 0
M  V30 41 H 4.675980 0.835565 9.105178 0
M  V30 42 H 3.238429 -1.257429 7.660897 0
M  V30 43 H 2.930833 -0.580939 9.270280 0
M  V30 44 H 1.529410 1.166463 8.469169 0
M  V30 45 H 0.984767 -0.434771 7.813645 0
M  V30 46 H 3.733971 0.398522 5.529413 0
M  V30 47 H 1.167168 2.612620 2.119447 0
M  V30 48 H 3.958802 3.997545 -1.869853 0
M  V30 49 H 1.110776 -0.036386 -0.062188 0
M  V30 50 H 2.756149 -0.411153 -0.650479 0
M  V30 51 H -0.525723 -1.429387 -1.005739 0
M  V30 52 H -1.163196 0.175501 -0.578454 0
M  V30 53 H -2.644502 -1.697283 -0.205802 0
M  V30 54 H -4.567267 -0.277358 -1.309113 0
M  V30 55 H -3.409353 0.431885 -0.064309 0
M  V30 56 H -3.187139 0.770791 -1.786589 0
M  V30 57 H -3.213089 -3.340087 -3.749428 0
M  V30 58 H -1.771556 -3.405803 -2.751817 0
M  V30 59 H -3.165093 -5.275485 -2.588336 0
M  V30 60 H -5.385833 -3.473215 -2.233137 0
M  V30 61 H -5.407751 -5.186165 -2.483611 0
M  V30 62 H -6.404578 -5.286171 -0.457963 0
M  V30 63 H -5.732062 -3.757319 0.095986 0
M  V30 64 H -3.811504 -3.501383 0.871782 0
M  V30 65 H -2.943312 -4.923487 1.425511 0
M  V30 66 H -1.815096 -3.916047 -0.565113 0
M  V30 67 H -2.191565 -5.619396 -0.590700 0
M  V30 68 H -3.414229 -1.640800 -4.319420 0
M  V30 69 H -4.008627 -0.361814 -3.270138 0
M  V30 70 H -2.157861 0.752013 -3.966650 0
M  V30 71 H -0.299644 -1.413387 -4.691281 0
M  V30 72 H -1.895013 -1.612388 -5.436006 0
M  V30 73 H -1.072797 -0.086871 -5.742354 0
M  V30 74 H 4.569717 0.154812 -3.293071 0
M  V30 75 H 3.480599 -0.958266 -2.448222 0
M  V30 76 H 4.455144 0.218666 -1.529752 0
M  V30 77 H 3.669873 2.288923 -4.017135 0
M  V30 78 H 1.926973 2.516205 -4.022717 0
M  V30 79 H 2.726588 1.000228 -4.748277 0
M  V30 END ATOM
M  V30 BEGIN BOND
M  V30 1 1 1 2
M  V30 2 1 2 3
M  V30 3 1 3 4
M  V30 4 2 4 5
M  V30 5 1 5 6
M  V30 6 1 6 7
M  V30 7 2 7 8
M  V30 8 1 7 9
M  V30 9 1 9 10
M  V30 10 2 10 11
M  V30 11 1 11 12
M  V30 12 1 12 13
M  V30 13 2 13 14
M  V30 14 1 14 15
M  V30 15 1 15 16
M  V30 16 1 16 17
M  V30 17 2 17 18
M  V30 18 1 17 19
M  V30 19 1 19 20
M  V30 20 1 20 21
M  V30 21 1 21 22
M  V30 22 1 21 23
M  V30 23 1 23 24
M  V30 24 1 24 25
M  V30 25 1 25 26
M  V30 26 1 26 27
M  V30 27 1 27 28
M  V30 28 1 28 29
M  V30 29 1 29 30
M  V30 30 1 23 31
M  V30 31 1 31 32
M  V30 32 1 32 33
M  V30 33 1 16 34
M  V30 34 1 34 35
M  V30 35 1 34 36
M  V30 36 2 6 37
M  V30 37 1 37 38
M  V30 38 1 38 4
M  V30 39 1 14 10
M  V30 40 1 32 19
M  V30 41 1 34 13
M  V30 42 1 30 25
M  V30 43 1 1 39
M  V30 44 1 1 40
M  V30 45 1 1 41
M  V30 46 1 2 42
M  V30 47 1 2 43
M  V30 48 1 3 44
M  V30 49 1 3 45
M  V30 50 1 5 46
M  V30 51 1 9 47
M  V30 52 1 12 48
M  V30 53 1 15 49
M  V30 54 1 15 50
M  V30 55 1 20 51
M  V30 56 1 20 52
M  V30 57 1 21 53 CFG=1
M  V30 58 1 22 54
M  V30 59 1 22 55
M  V30 60 1 22 56
M  V30 61 1 24 57
M  V30 62 1 24 58
M  V30 63 1 25 59
M  V30 64 1 26 60
M  V30 65 1 26 61
M  V30 66 1 27 62
M  V30 67 1 27 63
M  V30 68 1 29 64
M  V30 69 1 29 65
M  V30 70 1 30 66
M  V30 71 1 30 67
M  V30 72 1 31 68
M  V30 73 1 31 69
M  V30 74 1 32 70 CFG=3
M  V30 75 1 33 71
M  V30 76 1 33 72
M  V30 77 1 33 73
M  V30 78 1 35 74
M  V30 79 1 35 75
M  V30 80 1 35 76
M  V30 81 1 36 77
M  V30 82 1 36 78
M  V30 83 1 36 79
M  V30 END BOND
M  V30 END CTAB
M  END
>  <Dataset>  (348) 
ChEMBL_Kinases

>  <Ligand_Instance>  (348) 
nan

>  <PDB_ID>  (348) 
nan

>  <Standardized_SMILES>  (348) 
CCCc1cc(C(=O)Nc2n[nH]c3c2CN(C(=O)N2C[C@@H](C)N(CC4CCOCC4)C[C@@H]2C)C3(C)C)no1

>  <Name>  (348) 
nan

>  <Pocket>  (348) 
nan

>  <ATP_Site>  (348) 
nan

>  <Peripheral>  (348) 
nan

>  <Num_H_Atoms_ProtBoundConf>  (348) 
nan

>  <Num_Resolved_Atoms>  (348) 
nan

>  <Num_Not_Resolved_Atoms>  (348) 
nan

$$$$
CHEMBL3662914
     RDKit          3D

  0  0  0  0  0  0  0  0  0  0999 V3000
M  V30 BEGIN CTAB
M  V30 COUNTS 76 80 0 0 0
M  V30 BEGIN ATOM
M  V30 1 C 5.179268 -0.216585 5.928044 0
M  V30 2 C 4.554698 -0.503220 4.614097 0
M  V30 3 N 4.395111 0.275882 3.516621 0
M  V30 4 C 3.763064 -0.446943 2.573786 0
M  V30 5 C 3.367984 -0.035584 1.210796 0
M  V30 6 O 2.764942 -0.857795 0.453910 0
M  V30 7 N 3.673380 1.279726 0.772454 0
M  V30 8 C 3.250258 1.580507 -0.558948 0
M  V30 9 N 3.907488 1.422491 -1.742454 0
M  V30 10 N 3.155143 1.827945 -2.746073 0
M  V30 11 C 1.964494 2.276935 -2.309830 0
M  V30 12 C 2.032722 2.118731 -0.942810 0
M  V30 13 C 0.714220 2.611699 -0.415320 0
M  V30 14 N -0.171799 2.186610 -1.504172 0
M  V30 15 C -1.344977 1.450166 -1.803800 0
M  V30 16 O -1.848787 1.277207 -2.941778 0
M  V30 17 N -2.197561 0.758722 -0.925390 0
M  V30 18 C -3.328665 0.060926 -1.494517 0
M  V30 19 C -3.293603 -1.420006 -1.119976 0 CFG=1
M  V30 20 C -2.523289 -2.127493 -2.189467 0
M  V30 21 N -2.821684 -1.601667 0.206606 0
M  V30 22 C -3.214315 -2.768991 0.904397 0
M  V30 23 C -2.594542 -4.031161 0.435095 0
M  V30 24 C -1.082832 -4.037872 0.567502 0
M  V30 25 C -0.598074 -5.188435 -0.286847 0
M  V30 26 O -1.272164 -6.352901 0.065414 0
M  V30 27 C -1.927112 -6.278757 1.282529 0
M  V30 28 C -3.056145 -5.237610 1.272984 0
M  V30 29 C -3.099263 -0.383609 0.966345 0
M  V30 30 C -2.099041 0.649120 0.511430 0 CFG=2
M  V30 31 C -2.327845 1.984442 1.192487 0
M  V30 32 C 0.598365 2.860879 -2.529412 0
M  V30 33 C 0.691042 4.347249 -2.312595 0
M  V30 34 C 0.166723 2.514462 -3.933829 0
M  V30 35 C 3.543326 -1.689719 3.132274 0
M  V30 36 C 2.883435 -2.865410 2.524286 0
M  V30 37 O 4.043074 -1.665989 4.367124 0
M  V30 38 H 4.455456 -0.526563 6.711640 0
M  V30 39 H 6.098687 -0.839962 6.091470 0
M  V30 40 H 5.367088 0.869106 6.074662 0
M  V30 41 H 4.178488 1.952739 1.419785 0
M  V30 42 H 3.387857 1.830422 -3.772259 0
M  V30 43 H 0.471961 2.143670 0.548683 0
M  V30 44 H 0.725345 3.688579 -0.260493 0
M  V30 45 H -4.311809 0.450842 -1.183040 0
M  V30 46 H -3.333708 0.107606 -2.607416 0
M  V30 47 H -4.357245 -1.807596 -1.165582 0
M  V30 48 H -3.119099 -2.993974 -2.608524 0
M  V30 49 H -2.279230 -1.425100 -3.027501 0
M  V30 50 H -1.585135 -2.565252 -1.810633 0
M  V30 51 H -2.898962 -2.616869 1.982441 0
M  V30 52 H -4.335904 -2.851629 0.984264 0
M  V30 53 H -2.855228 -4.226866 -0.616569 0
M  V30 54 H -0.791438 -4.199477 1.630750 0
M  V30 55 H -0.584287 -3.130829 0.248554 0
M  V30 56 H 0.511370 -5.263603 -0.108185 0
M  V30 57 H -0.779777 -4.896717 -1.353326 0
M  V30 58 H -1.270030 -6.112498 2.148172 0
M  V30 59 H -2.420339 -7.258215 1.438863 0
M  V30 60 H -3.956542 -5.699107 0.824177 0
M  V30 61 H -3.212729 -4.933981 2.321006 0
M  V30 62 H -4.112193 0.018561 0.773444 0
M  V30 63 H -3.033201 -0.576166 2.059582 0
M  V30 64 H -1.079916 0.237978 0.720418 0
M  V30 65 H -2.211956 2.849897 0.511926 0
M  V30 66 H -1.566678 2.048561 2.008227 0
M  V30 67 H -3.314814 1.945446 1.696138 0
M  V30 68 H 0.643175 4.836451 -3.312240 0
M  V30 69 H -0.197345 4.742718 -1.739067 0
M  V30 70 H 1.633741 4.608239 -1.833225 0
M  V30 71 H -0.808954 2.946869 -4.193548 0
M  V30 72 H 0.931926 3.009218 -4.604256 0
M  V30 73 H 0.177632 1.435422 -4.080872 0
M  V30 74 H 2.641564 -3.612676 3.291049 0
M  V30 75 H 3.582561 -3.365303 1.809913 0
M  V30 76 H 1.995229 -2.573722 1.928062 0
M  V30 END ATOM
M  V30 BEGIN BOND
M  V30 1 1 1 2
M  V30 2 2 2 3
M  V30 3 1 3 4
M  V30 4 1 4 5
M  V30 5 2 5 6
M  V30 6 1 5 7
M  V30 7 1 7 8
M  V30 8 2 8 9
M  V30 9 1 9 10
M  V30 10 1 10 11
M  V30 11 2 11 12
M  V30 12 1 12 13
M  V30 13 1 13 14
M  V30 14 1 14 15
M  V30 15 2 15 16
M  V30 16 1 15 17
M  V30 17 1 17 18
M  V30 18 1 18 19
M  V30 19 1 19 20
M  V30 20 1 19 21
M  V30 21 1 21 22
M  V30 22 1 22 23
M  V30 23 1 23 24
M  V30 24 1 24 25
M  V30 25 1 25 26
M  V30 26 1 26 27
M  V30 27 1 27 28
M  V30 28 1 21 29
M  V30 29 1 29 30
M  V30 30 1 30 31
M  V30 31 1 14 32
M  V30 32 1 32 33
M  V30 33 1 32 34
M  V30 34 2 4 35
M  V30 35 1 35 36
M  V30 36 1 35 37
M  V30 37 1 37 2
M  V30 38 1 12 8
M  V30 39 1 30 17
M  V30 40 1 32 11
M  V30 41 1 28 23
M  V30 42 1 1 38
M  V30 43 1 1 39
M  V30 44 1 1 40
M  V30 45 1 7 41
M  V30 46 1 10 42
M  V30 47 1 13 43
M  V30 48 1 13 44
M  V30 49 1 18 45
M  V30 50 1 18 46
M  V30 51 1 19 47 CFG=1
M  V30 52 1 20 48
M  V30 53 1 20 49
M  V30 54 1 20 50
M  V30 55 1 22 51
M  V30 56 1 22 52
M  V30 57 1 23 53
M  V30 58 1 24 54
M  V30 59 1 24 55
M  V30 60 1 25 56
M  V30 61 1 25 57
M  V30 62 1 27 58
M  V30 63 1 27 59
M  V30 64 1 28 60
M  V30 65 1 28 61
M  V30 66 1 29 62
M  V30 67 1 29 63
M  V30 68 1 30 64 CFG=3
M  V30 69 1 31 65
M  V30 70 1 31 66
M  V30 71 1 31 67
M  V30 72 1 33 68
M  V30 73 1 33 69
M  V30 74 1 33 70
M  V30 75 1 34 71
M  V30 76 1 34 72
M  V30 77 1 34 73
M  V30 78 1 36 74
M  V30 79 1 36 75
M  V30 80 1 36 76
M  V30 END BOND
M  V30 END CTAB
M  END
>  <Dataset>  (349) 
ChEMBL_Kinases

>  <Ligand_Instance>  (349) 
nan

>  <PDB_ID>  (349) 
nan

>  <Standardized_SMILES>  (349) 
Cc1nc(C(=O)Nc2n[nH]c3c2CN(C(=O)N2C[C@@H](C)N(CC4CCOCC4)C[C@@H]2C)C3(C)C)c(C)o1

>  <Name>  (349) 
nan

>  <Pocket>  (349) 
nan

>  <ATP_Site>  (349) 
nan

>  <Peripheral>  (349) 
nan

>  <Num_H_Atoms_ProtBoundConf>  (349) 
nan

>  <Num_Resolved_Atoms>  (349) 
nan

>  <Num_Not_Resolved_Atoms>  (349) 
nan

$$$$
CHEMBL3662913
     RDKit          3D

  0  0  0  0  0  0  0  0  0  0999 V3000
M  V30 BEGIN CTAB
M  V30 COUNTS 72 76 0 0 0
M  V30 BEGIN ATOM
M  V30 1 C 2.546653 0.157713 5.182741 0
M  V30 2 C 3.378519 -0.990383 4.742112 0
M  V30 3 N 3.723503 -2.065183 5.447487 0
M  V30 4 O 4.403223 -2.857144 4.717324 0
M  V30 5 N 4.554457 -2.392313 3.528212 0
M  V30 6 C 3.926033 -1.186190 3.460748 0
M  V30 7 C 3.901917 -0.296228 2.345441 0
M  V30 8 O 3.891921 -0.916476 1.211617 0
M  V30 9 N 3.887263 1.090294 2.111312 0
M  V30 10 C 3.828814 1.283599 0.707476 0
M  V30 11 N 4.545716 1.275694 -0.435480 0
M  V30 12 N 3.772400 1.601915 -1.453355 0
M  V30 13 C 2.506171 1.849586 -1.099266 0
M  V30 14 C 2.514415 1.653588 0.294060 0
M  V30 15 C 1.132170 1.952299 0.787811 0
M  V30 16 N 0.345142 1.758583 -0.399795 0
M  V30 17 C -0.938965 1.220558 -0.315675 0
M  V30 18 O -0.852035 1.183901 0.934642 0
M  V30 19 N -2.210355 0.688001 -0.234835 0
M  V30 20 C -2.922202 0.400548 0.990729 0
M  V30 21 C -3.386556 -0.996931 1.102415 0 CFG=1
M  V30 22 C -4.758075 -1.117285 1.744419 0
M  V30 23 N -3.255612 -1.866879 -0.044873 0
M  V30 24 C -2.556524 -3.064658 0.285239 0
M  V30 25 C -2.442498 -4.206841 -0.599473 0
M  V30 26 C -1.759181 -4.018884 -1.887972 0
M  V30 27 C -0.266461 -3.761582 -1.740179 0
M  V30 28 O 0.315677 -4.894636 -1.150922 0
M  V30 29 C -0.170889 -4.916492 0.162026 0
M  V30 30 C -1.622575 -5.288079 0.155065 0
M  V30 31 C -3.026568 -1.273899 -1.290196 0
M  V30 32 C -3.061373 0.258710 -1.317936 0 CFG=2
M  V30 33 C -2.646479 0.789123 -2.669672 0
M  V30 34 C 1.140231 2.227443 -1.544438 0
M  V30 35 C 1.068619 3.698645 -1.733036 0
M  V30 36 C 0.793070 1.416864 -2.782596 0
M  V30 37 H 1.647989 -0.317571 5.694984 0
M  V30 38 H 2.192788 0.678706 4.265554 0
M  V30 39 H 3.053623 0.759713 5.920668 0
M  V30 40 H 3.930288 1.651447 2.962409 0
M  V30 41 H 4.137257 1.651382 -2.432566 0
M  V30 42 H 1.096051 2.989831 1.187739 0
M  V30 43 H 0.860780 1.280956 1.639613 0
M  V30 44 H -3.841867 1.060712 0.933250 0
M  V30 45 H -2.396290 0.763460 1.902699 0
M  V30 46 H -2.702249 -1.474381 1.886110 0
M  V30 47 H -5.460761 -0.342426 1.416972 0
M  V30 48 H -5.097632 -2.134104 1.563019 0
M  V30 49 H -4.682170 -1.020168 2.876745 0
M  V30 50 H -1.501681 -2.685736 0.570831 0
M  V30 51 H -2.924101 -3.352726 1.338709 0
M  V30 52 H -3.447981 -4.712019 -0.807954 0
M  V30 53 H -2.180307 -3.387821 -2.653009 0
M  V30 54 H -1.757864 -5.067930 -2.405787 0
M  V30 55 H -0.045659 -2.873100 -1.125947 0
M  V30 56 H 0.139575 -3.589877 -2.750968 0
M  V30 57 H 0.061544 -3.933036 0.612660 0
M  V30 58 H 0.385633 -5.678046 0.733502 0
M  V30 59 H -1.719079 -6.242386 -0.393587 0
M  V30 60 H -1.997703 -5.433858 1.178257 0
M  V30 61 H -3.635065 -1.697147 -2.100601 0
M  V30 62 H -1.943698 -1.473075 -1.553689 0
M  V30 63 H -4.096034 0.561174 -1.129508 0
M  V30 64 H -3.591606 0.930764 -3.267510 0
M  V30 65 H -2.155674 1.765471 -2.540642 0
M  V30 66 H -2.040870 0.070492 -3.251973 0
M  V30 67 H 0.752855 3.962831 -2.770396 0
M  V30 68 H 2.082327 4.176563 -1.602737 0
M  V30 69 H 0.357588 4.174944 -0.996356 0
M  V30 70 H 1.687044 1.078747 -3.330361 0
M  V30 71 H 0.166875 2.027093 -3.471224 0
M  V30 72 H 0.248774 0.516010 -2.439451 0
M  V30 END ATOM
M  V30 BEGIN BOND
M  V30 1 1 1 2
M  V30 2 2 2 3
M  V30 3 1 3 4
M  V30 4 1 4 5
M  V30 5 2 5 6
M  V30 6 1 6 7
M  V30 7 2 7 8
M  V30 8 1 7 9
M  V30 9 1 9 10
M  V30 10 2 10 11
M  V30 11 1 11 12
M  V30 12 1 12 13
M  V30 13 2 13 14
M  V30 14 1 14 15
M  V30 15 1 15 16
M  V30 16 1 16 17
M  V30 17 2 17 18
M  V30 18 1 17 19
M  V30 19 1 19 20
M  V30 20 1 20 21
M  V30 21 1 21 22
M  V30 22 1 21 23
M  V30 23 1 23 24
M  V30 24 1 24 25
M  V30 25 1 25 26
M  V30 26 1 26 27
M  V30 27 1 27 28
M  V30 28 1 28 29
M  V30 29 1 29 30
M  V30 30 1 23 31
M  V30 31 1 31 32
M  V30 32 1 32 33
M  V30 33 1 16 34
M  V30 34 1 34 35
M  V30 35 1 34 36
M  V30 36 1 6 2
M  V30 37 1 14 10
M  V30 38 1 32 19
M  V30 39 1 34 13
M  V30 40 1 30 25
M  V30 41 1 1 37
M  V30 42 1 1 38
M  V30 43 1 1 39
M  V30 44 1 9 40
M  V30 45 1 12 41
M  V30 46 1 15 42
M  V30 47 1 15 43
M  V30 48 1 20 44
M  V30 49 1 20 45
M  V30 50 1 21 46 CFG=1
M  V30 51 1 22 47
M  V30 52 1 22 48
M  V30 53 1 22 49
M  V30 54 1 24 50
M  V30 55 1 24 51
M  V30 56 1 25 52
M  V30 57 1 26 53
M  V30 58 1 26 54
M  V30 59 1 27 55
M  V30 60 1 27 56
M  V30 61 1 29 57
M  V30 62 1 29 58
M  V30 63 1 30 59
M  V30 64 1 30 60
M  V30 65 1 31 61
M  V30 66 1 31 62
M  V30 67 1 32 63 CFG=1
M  V30 68 1 33 64
M  V30 69 1 33 65
M  V30 70 1 33 66
M  V30 71 1 35 67
M  V30 72 1 35 68
M  V30 73 1 35 69
M  V30 74 1 36 70
M  V30 75 1 36 71
M  V30 76 1 36 72
M  V30 END BOND
M  V30 END CTAB
M  END
>  <Dataset>  (350) 
ChEMBL_Kinases

>  <Ligand_Instance>  (350) 
nan

>  <PDB_ID>  (350) 
nan

>  <Standardized_SMILES>  (350) 
Cc1nonc1C(=O)Nc1n[nH]c2c1CN(C(=O)N1C[C@@H](C)N(CC3CCOCC3)C[C@@H]1C)C2(C)C

>  <Name>  (350) 
nan

>  <Pocket>  (350) 
nan

>  <ATP_Site>  (350) 
nan

>  <Peripheral>  (350) 
nan

>  <Num_H_Atoms_ProtBoundConf>  (350) 
nan

>  <Num_Resolved_Atoms>  (350) 
nan

>  <Num_Not_Resolved_Atoms>  (350) 
nan

$$$$
CHEMBL3662912
     RDKit          3D

  0  0  0  0  0  0  0  0  0  0999 V3000
M  V30 BEGIN CTAB
M  V30 COUNTS 73 77 0 0 0
M  V30 BEGIN ATOM
M  V30 1 C 3.218213 4.369829 8.065678 0
M  V30 2 C 3.340899 4.352887 6.604245 0
M  V30 3 C 3.509591 3.267927 5.796659 0
M  V30 4 C 3.570309 3.760859 4.513687 0
M  V30 5 C 3.743969 2.972049 3.320015 0
M  V30 6 O 3.845052 1.719315 3.328067 0
M  V30 7 N 3.812960 3.580971 2.031637 0
M  V30 8 C 3.986538 2.673579 0.952490 0
M  V30 9 N 5.196522 2.279099 0.518054 0
M  V30 10 N 5.074005 1.428754 -0.506803 0
M  V30 11 C 3.760587 1.226853 -0.792224 0
M  V30 12 C 3.105674 2.010112 0.126755 0
M  V30 13 C 1.653977 1.858322 -0.111442 0
M  V30 14 N 1.566829 0.562453 -0.750591 0
M  V30 15 C 0.502533 -0.293558 -0.412509 0
M  V30 16 O -0.001804 0.511699 0.403707 0
M  V30 17 N -0.385066 -1.385191 -0.337283 0
M  V30 18 C -1.520678 -1.278400 0.550026 0
M  V30 19 C -2.788428 -1.777842 -0.114753 0 CFG=1
M  V30 20 C -3.158622 -0.810740 -1.214742 0
M  V30 21 N -2.612125 -3.079387 -0.686422 0
M  V30 22 C -3.674309 -3.974323 -0.388408 0
M  V30 23 C -4.920739 -3.549535 -1.125947 0
M  V30 24 C -4.683493 -3.561938 -2.617752 0
M  V30 25 C -5.168031 -4.878299 -3.171749 0
M  V30 26 O -4.835031 -5.910889 -2.308739 0
M  V30 27 C -5.672365 -5.925433 -1.186720 0
M  V30 28 C -6.083427 -4.483850 -0.840957 0
M  V30 29 C -1.295365 -3.586226 -0.432263 0
M  V30 30 C -0.312313 -2.630653 -1.064416 0 CFG=2
M  V30 31 C 1.066799 -3.241215 -1.097315 0
M  V30 32 C 2.708303 0.566628 -1.619924 0
M  V30 33 C 2.513876 1.431542 -2.844123 0
M  V30 34 C 3.239709 -0.790326 -1.980319 0
M  V30 35 O 3.444284 5.070672 4.554801 0
M  V30 36 N 3.305063 5.447579 5.803499 0
M  V30 37 H 3.603149 3.439646 8.533918 0
M  V30 38 H 2.175115 4.544537 8.359863 0
M  V30 39 H 3.812811 5.221890 8.492274 0
M  V30 40 H 3.581780 2.230111 6.087057 0
M  V30 41 H 3.730915 4.619940 1.989581 0
M  V30 42 H 5.841854 0.959255 -1.045156 0
M  V30 43 H 1.071607 1.990496 0.792049 0
M  V30 44 H 1.278554 2.622100 -0.841571 0
M  V30 45 H -1.301034 -1.821837 1.482499 0
M  V30 46 H -1.675596 -0.217855 0.808886 0
M  V30 47 H -3.596389 -1.776497 0.629919 0
M  V30 48 H -3.001931 -1.246684 -2.210121 0
M  V30 49 H -2.470611 0.084105 -1.178015 0
M  V30 50 H -4.190511 -0.413258 -1.085748 0
M  V30 51 H -3.428703 -5.016060 -0.676197 0
M  V30 52 H -3.922696 -3.992199 0.716172 0
M  V30 53 H -5.227686 -2.535321 -0.813838 0
M  V30 54 H -3.580793 -3.478498 -2.810533 0
M  V30 55 H -5.236333 -2.753988 -3.133121 0
M  V30 56 H -4.737453 -5.067322 -4.183667 0
M  V30 57 H -6.272983 -4.862911 -3.336286 0
M  V30 58 H -5.197913 -6.414463 -0.318120 0
M  V30 59 H -6.598474 -6.453122 -1.484664 0
M  V30 60 H -6.421893 -4.478650 0.194314 0
M  V30 61 H -6.918606 -4.235534 -1.524666 0
M  V30 62 H -1.161077 -4.602234 -0.878185 0
M  V30 63 H -1.052854 -3.635914 0.655315 0
M  V30 64 H -0.682745 -2.375472 -2.102909 0
M  V30 65 H 1.766070 -2.741090 -0.424022 0
M  V30 66 H 1.369387 -3.289409 -2.160642 0
M  V30 67 H 0.940305 -4.327365 -0.805222 0
M  V30 68 H 1.425736 1.588929 -2.984126 0
M  V30 69 H 2.848854 0.837792 -3.720723 0
M  V30 70 H 3.019670 2.392082 -2.761619 0
M  V30 71 H 2.646579 -1.355624 -2.693279 0
M  V30 72 H 4.217096 -0.583553 -2.514758 0
M  V30 73 H 3.533636 -1.294971 -1.055446 0
M  V30 END ATOM
M  V30 BEGIN BOND
M  V30 1 1 1 2
M  V30 2 1 2 3
M  V30 3 2 3 4
M  V30 4 1 4 5
M  V30 5 2 5 6
M  V30 6 1 5 7
M  V30 7 1 7 8
M  V30 8 2 8 9
M  V30 9 1 9 10
M  V30 10 1 10 11
M  V30 11 2 11 12
M  V30 12 1 12 13
M  V30 13 1 13 14
M  V30 14 1 14 15
M  V30 15 2 15 16
M  V30 16 1 15 17
M  V30 17 1 17 18
M  V30 18 1 18 19
M  V30 19 1 19 20
M  V30 20 1 19 21
M  V30 21 1 21 22
M  V30 22 1 22 23
M  V30 23 1 23 24
M  V30 24 1 24 25
M  V30 25 1 25 26
M  V30 26 1 26 27
M  V30 27 1 27 28
M  V30 28 1 21 29
M  V30 29 1 29 30
M  V30 30 1 30 31
M  V30 31 1 14 32
M  V30 32 1 32 33
M  V30 33 1 32 34
M  V30 34 1 4 35
M  V30 35 1 35 36
M  V30 36 2 36 2
M  V30 37 1 12 8
M  V30 38 1 30 17
M  V30 39 1 32 11
M  V30 40 1 28 23
M  V30 41 1 1 37
M  V30 42 1 1 38
M  V30 43 1 1 39
M  V30 44 1 3 40
M  V30 45 1 7 41
M  V30 46 1 10 42
M  V30 47 1 13 43
M  V30 48 1 13 44
M  V30 49 1 18 45
M  V30 50 1 18 46
M  V30 51 1 19 47 CFG=1
M  V30 52 1 20 48
M  V30 53 1 20 49
M  V30 54 1 20 50
M  V30 55 1 22 51
M  V30 56 1 22 52
M  V30 57 1 23 53
M  V30 58 1 24 54
M  V30 59 1 24 55
M  V30 60 1 25 56
M  V30 61 1 25 57
M  V30 62 1 27 58
M  V30 63 1 27 59
M  V30 64 1 28 60
M  V30 65 1 28 61
M  V30 66 1 29 62
M  V30 67 1 29 63
M  V30 68 1 30 64 CFG=3
M  V30 69 1 31 65
M  V30 70 1 31 66
M  V30 71 1 31 67
M  V30 72 1 33 68
M  V30 73 1 33 69
M  V30 74 1 33 70
M  V30 75 1 34 71
M  V30 76 1 34 72
M  V30 77 1 34 73
M  V30 END BOND
M  V30 END CTAB
M  END
>  <Dataset>  (351) 
ChEMBL_Kinases

>  <Ligand_Instance>  (351) 
nan

>  <PDB_ID>  (351) 
nan

>  <Standardized_SMILES>  (351) 
Cc1cc(C(=O)Nc2n[nH]c3c2CN(C(=O)N2C[C@@H](C)N(CC4CCOCC4)C[C@@H]2C)C3(C)C)on1

>  <Name>  (351) 
nan

>  <Pocket>  (351) 
nan

>  <ATP_Site>  (351) 
nan

>  <Peripheral>  (351) 
nan

>  <Num_H_Atoms_ProtBoundConf>  (351) 
nan

>  <Num_Resolved_Atoms>  (351) 
nan

>  <Num_Not_Resolved_Atoms>  (351) 
nan

$$$$
CHEMBL3662911
     RDKit          3D

  0  0  0  0  0  0  0  0  0  0999 V3000
M  V30 BEGIN CTAB
M  V30 COUNTS 76 80 0 0 0
M  V30 BEGIN ATOM
M  V30 1 C 2.406215 3.385268 7.753980 0
M  V30 2 C 2.802050 2.651087 6.502597 0
M  V30 3 N 3.516760 1.499905 6.477030 0
M  V30 4 C 3.690655 1.118910 5.177314 0
M  V30 5 C 4.430516 -0.104893 4.734656 0
M  V30 6 C 3.053985 2.084708 4.435786 0
M  V30 7 C 3.012038 2.038554 2.983093 0
M  V30 8 O 3.587892 1.062205 2.392104 0
M  V30 9 N 2.397943 2.960714 2.103826 0
M  V30 10 C 2.621242 2.493328 0.756485 0
M  V30 11 N 3.676900 2.824583 -0.002107 0
M  V30 12 N 3.559378 2.217522 -1.173446 0
M  V30 13 C 2.436302 1.486351 -1.200522 0
M  V30 14 C 1.816887 1.643741 0.018994 0
M  V30 15 C 0.554729 0.857880 0.062037 0
M  V30 16 N 0.437026 0.439752 -1.341462 0
M  V30 17 C -0.642918 -0.083368 -2.104060 0
M  V30 18 O -0.688230 -0.431665 -3.334330 0
M  V30 19 N -2.001759 -0.411964 -1.850840 0
M  V30 20 C -2.674159 -0.938963 -3.019162 0
M  V30 21 C -3.995491 -1.516571 -2.556364 0 CFG=1
M  V30 22 C -4.539145 -2.525383 -3.569328 0
M  V30 23 N -3.770618 -2.266441 -1.299883 0
M  V30 24 C -2.740664 -3.198996 -1.505197 0
M  V30 25 C -2.374569 -4.137566 -0.411633 0
M  V30 26 C -1.238231 -4.995354 -0.999061 0
M  V30 27 C -0.822014 -6.112143 -0.110314 0
M  V30 28 O -1.015857 -5.766377 1.204485 0
M  V30 29 C -0.672555 -4.422503 1.324207 0
M  V30 30 C -1.802745 -3.526696 0.828382 0
M  V30 31 C -3.622692 -1.268251 -0.299973 0
M  V30 32 C -2.597100 -0.213156 -0.546194 0 CFG=2
M  V30 33 C -3.189847 1.192155 -0.467102 0
M  V30 34 C 1.684026 0.589936 -2.109924 0
M  V30 35 C 1.459241 1.171208 -3.471388 0
M  V30 36 C 2.407934 -0.734467 -2.181118 0
M  V30 37 O 2.543840 2.968122 5.248493 0
M  V30 38 H 2.484130 2.683532 8.609400 0
M  V30 39 H 3.133026 4.195864 7.961405 0
M  V30 40 H 1.353410 3.719443 7.710698 0
M  V30 41 H 4.624185 -0.739111 5.602493 0
M  V30 42 H 5.321162 0.181746 4.160981 0
M  V30 43 H 3.809378 -0.718218 4.020743 0
M  V30 44 H 1.919474 3.770550 2.568305 0
M  V30 45 H 4.299330 2.361775 -1.898838 0
M  V30 46 H -0.242279 1.566939 0.360945 0
M  V30 47 H 0.643446 -0.032471 0.702641 0
M  V30 48 H -2.076306 -1.676958 -3.566184 0
M  V30 49 H -2.873420 -0.104680 -3.750443 0
M  V30 50 H -4.753002 -0.747368 -2.424549 0
M  V30 51 H -5.129806 -3.287597 -2.984246 0
M  V30 52 H -3.740196 -2.991734 -4.173662 0
M  V30 53 H -5.287565 -2.034901 -4.234203 0
M  V30 54 H -3.066586 -3.867103 -2.363876 0
M  V30 55 H -1.785624 -2.768281 -1.884693 0
M  V30 56 H -3.192702 -4.818808 -0.108211 0
M  V30 57 H -0.379945 -4.308810 -1.142830 0
M  V30 58 H -1.516006 -5.328081 -2.021310 0
M  V30 59 H 0.238555 -6.431255 -0.313128 0
M  V30 60 H -1.420267 -7.024564 -0.380549 0
M  V30 61 H -0.468999 -4.254966 2.400579 0
M  V30 62 H 0.264350 -4.198416 0.779671 0
M  V30 63 H -2.515700 -3.512352 1.681401 0
M  V30 64 H -1.329336 -2.561060 0.600658 0
M  V30 65 H -3.509859 -1.611668 0.735166 0
M  V30 66 H -4.618686 -0.706360 -0.274497 0
M  V30 67 H -1.801801 -0.238882 0.239830 0
M  V30 68 H -3.216424 1.653582 -1.482331 0
M  V30 69 H -4.199602 1.160759 0.018863 0
M  V30 70 H -2.597366 1.875485 0.171154 0
M  V30 71 H 2.354176 1.788238 -3.715813 0
M  V30 72 H 1.367839 0.359716 -4.223485 0
M  V30 73 H 0.604225 1.845078 -3.422549 0
M  V30 74 H 3.093254 -0.892666 -1.322130 0
M  V30 75 H 3.030563 -0.733512 -3.106350 0
M  V30 76 H 1.706611 -1.583885 -2.293664 0
M  V30 END ATOM
M  V30 BEGIN BOND
M  V30 1 1 1 2
M  V30 2 2 2 3
M  V30 3 1 3 4
M  V30 4 1 4 5
M  V30 5 2 4 6
M  V30 6 1 6 7
M  V30 7 2 7 8
M  V30 8 1 7 9
M  V30 9 1 9 10
M  V30 10 2 10 11
M  V30 11 1 11 12
M  V30 12 1 12 13
M  V30 13 2 13 14
M  V30 14 1 14 15
M  V30 15 1 15 16
M  V30 16 1 16 17
M  V30 17 2 17 18
M  V30 18 1 17 19
M  V30 19 1 19 20
M  V30 20 1 20 21
M  V30 21 1 21 22
M  V30 22 1 21 23
M  V30 23 1 23 24
M  V30 24 1 24 25
M  V30 25 1 25 26
M  V30 26 1 26 27
M  V30 27 1 27 28
M  V30 28 1 28 29
M  V30 29 1 29 30
M  V30 30 1 23 31
M  V30 31 1 31 32
M  V30 32 1 32 33
M  V30 33 1 16 34
M  V30 34 1 34 35
M  V30 35 1 34 36
M  V30 36 1 6 37
M  V30 37 1 37 2
M  V30 38 1 14 10
M  V30 39 1 32 19
M  V30 40 1 34 13
M  V30 41 1 30 25
M  V30 42 1 1 38
M  V30 43 1 1 39
M  V30 44 1 1 40
M  V30 45 1 5 41
M  V30 46 1 5 42
M  V30 47 1 5 43
M  V30 48 1 9 44
M  V30 49 1 12 45
M  V30 50 1 15 46
M  V30 51 1 15 47
M  V30 52 1 20 48
M  V30 53 1 20 49
M  V30 54 1 21 50 CFG=1
M  V30 55 1 22 51
M  V30 56 1 22 52
M  V30 57 1 22 53
M  V30 58 1 24 54
M  V30 59 1 24 55
M  V30 60 1 25 56
M  V30 61 1 26 57
M  V30 62 1 26 58
M  V30 63 1 27 59
M  V30 64 1 27 60
M  V30 65 1 29 61
M  V30 66 1 29 62
M  V30 67 1 30 63
M  V30 68 1 30 64
M  V30 69 1 31 65
M  V30 70 1 31 66
M  V30 71 1 32 67 CFG=1
M  V30 72 1 33 68
M  V30 73 1 33 69
M  V30 74 1 33 70
M  V30 75 1 35 71
M  V30 76 1 35 72
M  V30 77 1 35 73
M  V30 78 1 36 74
M  V30 79 1 36 75
M  V30 80 1 36 76
M  V30 END BOND
M  V30 END CTAB
M  END
>  <Dataset>  (352) 
ChEMBL_Kinases

>  <Ligand_Instance>  (352) 
nan

>  <PDB_ID>  (352) 
nan

>  <Standardized_SMILES>  (352) 
Cc1nc(C)c(C(=O)Nc2n[nH]c3c2CN(C(=O)N2C[C@@H](C)N(CC4CCOCC4)C[C@@H]2C)C3(C)C)o1

>  <Name>  (352) 
nan

>  <Pocket>  (352) 
nan

>  <ATP_Site>  (352) 
nan

>  <Peripheral>  (352) 
nan

>  <Num_H_Atoms_ProtBoundConf>  (352) 
nan

>  <Num_Resolved_Atoms>  (352) 
nan

>  <Num_Not_Resolved_Atoms>  (352) 
nan

$$$$
CHEMBL3662910
     RDKit          3D

  0  0  0  0  0  0  0  0  0  0999 V3000
M  V30 BEGIN CTAB
M  V30 COUNTS 76 80 0 0 0
M  V30 BEGIN ATOM
M  V30 1 C 5.957518 -0.813711 6.241784 0
M  V30 2 C 5.825009 -1.506443 4.901225 0
M  V30 3 C 6.010507 -0.572627 3.764307 0
M  V30 4 C 4.975698 0.118066 3.190453 0
M  V30 5 C 5.486750 0.904144 2.153278 0
M  V30 6 C 4.843603 1.810316 1.237816 0
M  V30 7 O 5.453979 2.475271 0.332890 0
M  V30 8 N 3.421768 1.969588 1.359018 0
M  V30 9 C 2.552134 2.810489 0.570323 0
M  V30 10 N 2.173341 4.081835 0.776771 0
M  V30 11 N 1.372868 4.423331 -0.218481 0
M  V30 12 C 1.238024 3.381987 -1.057056 0
M  V30 13 C 1.988463 2.301232 -0.588278 0
M  V30 14 C 1.720336 1.282426 -1.614217 0
M  V30 15 N 0.335553 1.502812 -2.048351 0
M  V30 16 C -0.951522 0.945729 -2.274906 0
M  V30 17 O -1.992133 1.535516 -2.688893 0
M  V30 18 N -1.382850 -0.387178 -2.097240 0
M  V30 19 C -2.734838 -0.726568 -2.384178 0
M  V30 20 C -3.348505 -1.756025 -1.435335 0 CFG=1
M  V30 21 C -4.565444 -2.291578 -2.193459 0
M  V30 22 N -2.428971 -2.734721 -1.075031 0
M  V30 23 C -2.732298 -3.909591 -0.407230 0
M  V30 24 C -3.095504 -3.730183 1.030677 0
M  V30 25 C -3.402397 -5.070842 1.695018 0
M  V30 26 C -4.875490 -5.403877 1.626303 0
M  V30 27 O -5.626911 -4.505964 2.392525 0
M  V30 28 C -4.941056 -3.325955 2.618496 0
M  V30 29 C -4.247237 -2.827383 1.333825 0
M  V30 30 C -1.268873 -2.737719 -1.906178 0
M  V30 31 C -0.510764 -1.458345 -1.638801 0 CFG=2
M  V30 32 C -0.391446 -1.288906 -0.144779 0
M  V30 33 C 0.601182 2.899073 -2.312516 0
M  V30 34 C -0.638292 3.717897 -2.567606 0
M  V30 35 C 1.552660 3.067747 -3.468016 0
M  V30 36 N 6.813604 0.638633 2.162424 0
M  V30 37 O 7.081837 -0.224138 3.112235 0
M  V30 38 H 6.062640 0.297845 6.113891 0
M  V30 39 H 5.077405 -0.963852 6.879975 0
M  V30 40 H 6.926286 -1.104671 6.744403 0
M  V30 41 H 6.612469 -2.290012 4.828750 0
M  V30 42 H 4.826519 -2.002104 4.883121 0
M  V30 43 H 3.900972 0.157447 3.389670 0
M  V30 44 H 2.879340 1.444671 2.084725 0
M  V30 45 H 0.920830 5.368202 -0.320985 0
M  V30 46 H 2.432299 1.307704 -2.458996 0
M  V30 47 H 1.822858 0.278612 -1.160579 0
M  V30 48 H -3.360243 0.205770 -2.327599 0
M  V30 49 H -2.873739 -1.090399 -3.431569 0
M  V30 50 H -3.709160 -1.173829 -0.585158 0
M  V30 51 H -4.558126 -3.388243 -2.288658 0
M  V30 52 H -5.513594 -1.922770 -1.704300 0
M  V30 53 H -4.616360 -1.900788 -3.227904 0
M  V30 54 H -3.616651 -4.467090 -0.873590 0
M  V30 55 H -1.868768 -4.657641 -0.403039 0
M  V30 56 H -2.200583 -3.321764 1.597371 0
M  V30 57 H -3.124716 -5.005478 2.763992 0
M  V30 58 H -2.820881 -5.902166 1.253781 0
M  V30 59 H -4.980685 -6.403454 2.101180 0
M  V30 60 H -5.252723 -5.447201 0.596512 0
M  V30 61 H -5.645904 -2.504569 2.882495 0
M  V30 62 H -4.159386 -3.381583 3.394947 0
M  V30 63 H -3.865126 -1.815602 1.630082 0
M  V30 64 H -4.998245 -2.810066 0.538291 0
M  V30 65 H -0.638517 -3.643346 -1.803177 0
M  V30 66 H -1.643577 -2.646057 -2.967808 0
M  V30 67 H 0.471394 -1.437248 -2.151504 0
M  V30 68 H 0.428510 -1.869538 0.303600 0
M  V30 69 H -1.399006 -1.525909 0.266955 0
M  V30 70 H -0.223261 -0.184620 0.019105 0
M  V30 71 H -0.291564 4.768821 -2.679506 0
M  V30 72 H -1.410607 3.630110 -1.806132 0
M  V30 73 H -0.978411 3.427259 -3.604762 0
M  V30 74 H 1.524596 2.159690 -4.107862 0
M  V30 75 H 1.260847 3.981730 -4.018940 0
M  V30 76 H 2.565167 3.257974 -3.042140 0
M  V30 END ATOM
M  V30 BEGIN BOND
M  V30 1 1 1 2
M  V30 2 1 2 3
M  V30 3 2 3 4
M  V30 4 1 4 5
M  V30 5 1 5 6
M  V30 6 2 6 7
M  V30 7 1 6 8
M  V30 8 1 8 9
M  V30 9 2 9 10
M  V30 10 1 10 11
M  V30 11 1 11 12
M  V30 12 2 12 13
M  V30 13 1 13 14
M  V30 14 1 14 15
M  V30 15 1 15 16
M  V30 16 2 16 17
M  V30 17 1 16 18
M  V30 18 1 18 19
M  V30 19 1 19 20
M  V30 20 1 20 21
M  V30 21 1 20 22
M  V30 22 1 22 23
M  V30 23 1 23 24
M  V30 24 1 24 25
M  V30 25 1 25 26
M  V30 26 1 26 27
M  V30 27 1 27 28
M  V30 28 1 28 29
M  V30 29 1 22 30
M  V30 30 1 30 31
M  V30 31 1 31 32
M  V30 32 1 15 33
M  V30 33 1 33 34
M  V30 34 1 33 35
M  V30 35 2 5 36
M  V30 36 1 36 37
M  V30 37 1 37 3
M  V30 38 1 13 9
M  V30 39 1 31 18
M  V30 40 1 33 12
M  V30 41 1 29 24
M  V30 42 1 1 38
M  V30 43 1 1 39
M  V30 44 1 1 40
M  V30 45 1 2 41
M  V30 46 1 2 42
M  V30 47 1 4 43
M  V30 48 1 8 44
M  V30 49 1 11 45
M  V30 50 1 14 46
M  V30 51 1 14 47
M  V30 52 1 19 48
M  V30 53 1 19 49
M  V30 54 1 20 50 CFG=1
M  V30 55 1 21 51
M  V30 56 1 21 52
M  V30 57 1 21 53
M  V30 58 1 23 54
M  V30 59 1 23 55
M  V30 60 1 24 56
M  V30 61 1 25 57
M  V30 62 1 25 58
M  V30 63 1 26 59
M  V30 64 1 26 60
M  V30 65 1 28 61
M  V30 66 1 28 62
M  V30 67 1 29 63
M  V30 68 1 29 64
M  V30 69 1 30 65
M  V30 70 1 30 66
M  V30 71 1 31 67 CFG=3
M  V30 72 1 32 68
M  V30 73 1 32 69
M  V30 74 1 32 70
M  V30 75 1 34 71
M  V30 76 1 34 72
M  V30 77 1 34 73
M  V30 78 1 35 74
M  V30 79 1 35 75
M  V30 80 1 35 76
M  V30 END BOND
M  V30 END CTAB
M  END
>  <Dataset>  (353) 
ChEMBL_Kinases

>  <Ligand_Instance>  (353) 
nan

>  <PDB_ID>  (353) 
nan

>  <Standardized_SMILES>  (353) 
CCc1cc(C(=O)Nc2n[nH]c3c2CN(C(=O)N2C[C@@H](C)N(CC4CCOCC4)C[C@@H]2C)C3(C)C)no1

>  <Name>  (353) 
nan

>  <Pocket>  (353) 
nan

>  <ATP_Site>  (353) 
nan

>  <Peripheral>  (353) 
nan

>  <Num_H_Atoms_ProtBoundConf>  (353) 
nan

>  <Num_Resolved_Atoms>  (353) 
nan

>  <Num_Not_Resolved_Atoms>  (353) 
nan

$$$$
CHEMBL3662909
     RDKit          3D

  0  0  0  0  0  0  0  0  0  0999 V3000
M  V30 BEGIN CTAB
M  V30 COUNTS 76 80 0 0 0
M  V30 BEGIN ATOM
M  V30 1 C 4.191375 2.270124 6.821105 0
M  V30 2 C 5.286238 1.282508 6.472866 0
M  V30 3 C 5.440844 1.117854 5.007558 0
M  V30 4 C 4.667865 1.792049 4.084850 0
M  V30 5 C 5.062040 1.416803 2.831649 0
M  V30 6 C 4.534085 1.864728 1.530306 0
M  V30 7 O 4.959756 1.470561 0.405668 0
M  V30 8 N 3.469290 2.807287 1.479977 0
M  V30 9 C 3.139093 3.079272 0.099622 0
M  V30 10 N 3.644827 4.030522 -0.717986 0
M  V30 11 N 3.075013 3.944599 -1.912215 0
M  V30 12 C 2.186814 2.935349 -1.895494 0
M  V30 13 C 2.209395 2.373950 -0.636162 0
M  V30 14 C 1.237860 1.255362 -0.587876 0
M  V30 15 N 0.620619 1.279398 -1.906296 0
M  V30 16 C -0.448891 0.492457 -2.406526 0
M  V30 17 O -0.970210 0.530128 -3.557589 0
M  V30 18 N -1.199132 -0.514018 -1.778280 0
M  V30 19 C -2.224554 -1.095942 -2.621670 0
M  V30 20 C -3.390699 -1.660549 -1.837719 0 CFG=1
M  V30 21 C -4.263451 -2.355661 -2.892083 0
M  V30 22 N -3.008382 -2.583522 -0.802597 0
M  V30 23 C -3.591233 -3.881767 -0.957924 0
M  V30 24 C -3.165193 -4.811436 0.142690 0
M  V30 25 C -3.789380 -6.181408 -0.034703 0
M  V30 26 C -4.174773 -6.802315 1.276293 0
M  V30 27 O -3.239404 -6.594119 2.277446 0
M  V30 28 C -2.976497 -5.269132 2.545367 0
M  V30 29 C -3.567166 -4.318282 1.516132 0
M  V30 30 C -1.590435 -2.565943 -0.628170 0
M  V30 31 C -1.170499 -1.113495 -0.439314 0 CFG=2
M  V30 32 C -2.142642 -0.387583 0.425764 0
M  V30 33 C 1.215603 2.259722 -2.793630 0
M  V30 34 C 0.222376 3.306044 -3.231369 0
M  V30 35 C 1.883063 1.594752 -3.978674 0
M  V30 36 O 6.024684 0.559581 3.011448 0
M  V30 37 N 6.284328 0.350148 4.260269 0
M  V30 38 H 4.612059 3.305939 6.779059 0
M  V30 39 H 3.918735 2.081826 7.888563 0
M  V30 40 H 3.309956 2.166409 6.155145 0
M  V30 41 H 6.214735 1.622717 6.967746 0
M  V30 42 H 5.033641 0.311150 6.972079 0
M  V30 43 H 3.858812 2.517742 4.220203 0
M  V30 44 H 3.060837 3.182191 2.376765 0
M  V30 45 H 3.352151 4.601236 -2.649859 0
M  V30 46 H 1.723354 0.289202 -0.346243 0
M  V30 47 H 0.422591 1.399434 0.149736 0
M  V30 48 H -2.656655 -0.347267 -3.314902 0
M  V30 49 H -1.826557 -1.928291 -3.240191 0
M  V30 50 H -3.968932 -0.798460 -1.446363 0
M  V30 51 H -3.660921 -3.064527 -3.466295 0
M  V30 52 H -5.212840 -2.713041 -2.501603 0
M  V30 53 H -4.517967 -1.531384 -3.620062 0
M  V30 54 H -3.329085 -4.349829 -1.918423 0
M  V30 55 H -4.694756 -3.772278 -0.840446 0
M  V30 56 H -2.069807 -4.961437 0.097155 0
M  V30 57 H -3.085654 -6.869445 -0.549335 0
M  V30 58 H -4.696689 -6.117772 -0.662564 0
M  V30 59 H -4.213689 -7.910450 1.117726 0
M  V30 60 H -5.159434 -6.445359 1.586853 0
M  V30 61 H -3.396969 -5.020799 3.546073 0
M  V30 62 H -1.878814 -5.110324 2.592020 0
M  V30 63 H -3.163767 -3.308605 1.732189 0
M  V30 64 H -4.653583 -4.251519 1.637723 0
M  V30 65 H -1.261956 -3.098573 0.282874 0
M  V30 66 H -1.064049 -2.994588 -1.509631 0
M  V30 67 H -0.147756 -1.163755 -0.018592 0
M  V30 68 H -1.618591 -0.087303 1.372391 0
M  V30 69 H -2.991691 -1.063755 0.727496 0
M  V30 70 H -2.544680 0.530469 -0.048027 0
M  V30 71 H 0.559391 4.346278 -3.038828 0
M  V30 72 H -0.772825 3.076913 -2.782522 0
M  V30 73 H 0.079152 3.220606 -4.330188 0
M  V30 74 H 2.719887 2.269158 -4.289290 0
M  V30 75 H 2.338098 0.632449 -3.690266 0
M  V30 76 H 1.174238 1.497192 -4.823448 0
M  V30 END ATOM
M  V30 BEGIN BOND
M  V30 1 1 1 2
M  V30 2 1 2 3
M  V30 3 1 3 4
M  V30 4 2 4 5
M  V30 5 1 5 6
M  V30 6 2 6 7
M  V30 7 1 6 8
M  V30 8 1 8 9
M  V30 9 2 9 10
M  V30 10 1 10 11
M  V30 11 1 11 12
M  V30 12 2 12 13
M  V30 13 1 13 14
M  V30 14 1 14 15
M  V30 15 1 15 16
M  V30 16 2 16 17
M  V30 17 1 16 18
M  V30 18 1 18 19
M  V30 19 1 19 20
M  V30 20 1 20 21
M  V30 21 1 20 22
M  V30 22 1 22 23
M  V30 23 1 23 24
M  V30 24 1 24 25
M  V30 25 1 25 26
M  V30 26 1 26 27
M  V30 27 1 27 28
M  V30 28 1 28 29
M  V30 29 1 22 30
M  V30 30 1 30 31
M  V30 31 1 31 32
M  V30 32 1 15 33
M  V30 33 1 33 34
M  V30 34 1 33 35
M  V30 35 1 5 36
M  V30 36 1 36 37
M  V30 37 2 37 3
M  V30 38 1 13 9
M  V30 39 1 31 18
M  V30 40 1 33 12
M  V30 41 1 29 24
M  V30 42 1 1 38
M  V30 43 1 1 39
M  V30 44 1 1 40
M  V30 45 1 2 41
M  V30 46 1 2 42
M  V30 47 1 4 43
M  V30 48 1 8 44
M  V30 49 1 11 45
M  V30 50 1 14 46
M  V30 51 1 14 47
M  V30 52 1 19 48
M  V30 53 1 19 49
M  V30 54 1 20 50 CFG=1
M  V30 55 1 21 51
M  V30 56 1 21 52
M  V30 57 1 21 53
M  V30 58 1 23 54
M  V30 59 1 23 55
M  V30 60 1 24 56
M  V30 61 1 25 57
M  V30 62 1 25 58
M  V30 63 1 26 59
M  V30 64 1 26 60
M  V30 65 1 28 61
M  V30 66 1 28 62
M  V30 67 1 29 63
M  V30 68 1 29 64
M  V30 69 1 30 65
M  V30 70 1 30 66
M  V30 71 1 31 67 CFG=1
M  V30 72 1 32 68
M  V30 73 1 32 69
M  V30 74 1 32 70
M  V30 75 1 34 71
M  V30 76 1 34 72
M  V30 77 1 34 73
M  V30 78 1 35 74
M  V30 79 1 35 75
M  V30 80 1 35 76
M  V30 END BOND
M  V30 END CTAB
M  END
>  <Dataset>  (354) 
ChEMBL_Kinases

>  <Ligand_Instance>  (354) 
nan

>  <PDB_ID>  (354) 
nan

>  <Standardized_SMILES>  (354) 
CCc1cc(C(=O)Nc2n[nH]c3c2CN(C(=O)N2C[C@@H](C)N(CC4CCOCC4)C[C@@H]2C)C3(C)C)on1

>  <Name>  (354) 
nan

>  <Pocket>  (354) 
nan

>  <ATP_Site>  (354) 
nan

>  <Peripheral>  (354) 
nan

>  <Num_H_Atoms_ProtBoundConf>  (354) 
nan

>  <Num_Resolved_Atoms>  (354) 
nan

>  <Num_Not_Resolved_Atoms>  (354) 
nan

$$$$
CHEMBL3662908
     RDKit          3D

  0  0  0  0  0  0  0  0  0  0999 V3000
M  V30 BEGIN CTAB
M  V30 COUNTS 78 83 0 0 0
M  V30 BEGIN ATOM
M  V30 1 C 4.333764 -1.434243 2.646942 0
M  V30 2 C 3.600741 -0.136602 2.936071 0 CFG=2
M  V30 3 C 2.479566 -0.460660 3.900252 0
M  V30 4 N 1.252029 -0.419310 3.151263 0
M  V30 5 C 0.574284 -1.643070 2.968556 0
M  V30 6 O 1.326410 -2.437506 3.575567 0
M  V30 7 N -0.613341 -1.997297 2.310933 0
M  V30 8 C -1.731088 -1.445790 1.526334 0
M  V30 9 C -1.718813 -2.309493 0.343884 0
M  V30 10 C -1.914258 -2.492849 -0.995366 0
M  V30 11 N -2.345262 -1.496670 -1.915578 0
M  V30 12 C -3.753616 -1.497094 -1.994751 0
M  V30 13 O -4.374599 -2.336788 -1.272453 0
M  V30 14 C -4.555730 -0.613959 -2.836026 0
M  V30 15 C -5.933262 -0.645521 -2.877763 0
M  V30 16 C -6.356996 0.313016 -3.772433 0
M  V30 17 C -7.773994 0.640535 -4.144804 0
M  V30 18 C -8.003250 0.533560 -5.663898 0
M  V30 19 C -8.074091 1.831672 -4.931695 0
M  V30 20 N -5.222532 0.902587 -4.251001 0
M  V30 21 N -4.155007 0.344158 -3.687858 0
M  V30 22 N -1.631676 -3.774189 -1.299812 0
M  V30 23 N -1.260609 -4.436084 -0.219538 0
M  V30 24 C -1.310306 -3.546160 0.795370 0
M  V30 25 C -1.089592 -3.363349 2.274272 0
M  V30 26 C -0.080886 -4.369399 2.774417 0
M  V30 27 C -2.378332 -3.537963 3.050440 0
M  V30 28 C 0.972423 0.948044 2.725171 0 CFG=1
M  V30 29 C 1.049281 1.916091 3.910091 0
M  V30 30 C 2.087020 1.336989 1.788801 0
M  V30 31 N 3.097170 0.333991 1.662413 0
M  V30 32 C 4.225203 0.908517 0.956427 0
M  V30 33 C 3.880467 1.209220 -0.487598 0
M  V30 34 C 3.464549 -0.026523 -1.247062 0
M  V30 35 C 4.678451 -0.618876 -1.899168 0
M  V30 36 O 5.797188 -0.474932 -1.076938 0
M  V30 37 C 6.270800 0.822370 -1.133650 0
M  V30 38 C 5.106618 1.787923 -1.197444 0
M  V30 39 H 3.867594 -1.996041 1.799492 0
M  V30 40 H 4.266493 -2.148095 3.510051 0
M  V30 41 H 5.403701 -1.301097 2.433133 0
M  V30 42 H 4.323029 0.566170 3.375474 0
M  V30 43 H 2.662120 -1.402734 4.444488 0
M  V30 44 H 2.434020 0.325255 4.682026 0
M  V30 45 H -1.625894 -0.381959 1.316233 0
M  V30 46 H -2.634813 -1.622452 2.169719 0
M  V30 47 H -1.831936 -0.791147 -2.521679 0
M  V30 48 H -6.615367 -1.284534 -2.330611 0
M  V30 49 H -8.501834 0.027282 -3.595250 0
M  V30 50 H -7.126653 0.391686 -6.324259 0
M  V30 51 H -8.917509 0.071867 -6.039243 0
M  V30 52 H -7.282545 2.598768 -5.012899 0
M  V30 53 H -9.106898 2.267738 -4.812478 0
M  V30 54 H -3.155636 0.593667 -3.865993 0
M  V30 55 H -0.982077 -5.439316 -0.135661 0
M  V30 56 H -0.019943 -4.318849 3.878456 0
M  V30 57 H -0.508783 -5.387207 2.533935 0
M  V30 58 H 0.882044 -4.298345 2.250522 0
M  V30 59 H -2.381660 -4.527595 3.591768 0
M  V30 60 H -3.278349 -3.539395 2.416736 0
M  V30 61 H -2.488065 -2.776114 3.844986 0
M  V30 62 H -0.001909 1.087156 2.265016 0
M  V30 63 H 0.490121 2.833716 3.657304 0
M  V30 64 H 2.100857 2.247133 4.067389 0
M  V30 65 H 0.677132 1.364409 4.787650 0
M  V30 66 H 2.509107 2.332829 2.028159 0
M  V30 67 H 1.630578 1.463360 0.763869 0
M  V30 68 H 5.133027 0.284954 1.064177 0
M  V30 69 H 4.447703 1.883463 1.438617 0
M  V30 70 H 3.127130 2.002479 -0.504923 0
M  V30 71 H 2.978952 -0.698989 -0.519411 0
M  V30 72 H 2.702039 0.266620 -2.015190 0
M  V30 73 H 4.550241 -1.711214 -2.116735 0
M  V30 74 H 4.875747 -0.129652 -2.874524 0
M  V30 75 H 6.925030 0.917371 -2.041296 0
M  V30 76 H 6.881435 1.035682 -0.231081 0
M  V30 77 H 5.355524 2.758996 -0.705649 0
M  V30 78 H 4.852370 1.969320 -2.242768 0
M  V30 END ATOM
M  V30 BEGIN BOND
M  V30 1 1 1 2
M  V30 2 1 2 3
M  V30 3 1 3 4
M  V30 4 1 4 5
M  V30 5 2 5 6
M  V30 6 1 5 7
M  V30 7 1 7 8
M  V30 8 1 8 9
M  V30 9 1 9 10
M  V30 10 1 10 11
M  V30 11 1 11 12
M  V30 12 2 12 13
M  V30 13 1 12 14
M  V30 14 2 14 15
M  V30 15 1 15 16
M  V30 16 1 16 17
M  V30 17 1 17 18
M  V30 18 1 18 19
M  V30 19 2 16 20
M  V30 20 1 20 21
M  V30 21 2 10 22
M  V30 22 1 22 23
M  V30 23 1 23 24
M  V30 24 1 24 25
M  V30 25 1 25 26
M  V30 26 1 25 27
M  V30 27 1 4 28
M  V30 28 1 28 29
M  V30 29 1 28 30
M  V30 30 1 30 31
M  V30 31 1 31 32
M  V30 32 1 32 33
M  V30 33 1 33 34
M  V30 34 1 34 35
M  V30 35 1 35 36
M  V30 36 1 36 37
M  V30 37 1 37 38
M  V30 38 1 31 2
M  V30 39 1 38 33
M  V30 40 1 25 7
M  V30 41 2 24 9
M  V30 42 1 21 14
M  V30 43 1 19 17
M  V30 44 1 1 39
M  V30 45 1 1 40
M  V30 46 1 1 41
M  V30 47 1 2 42 CFG=1
M  V30 48 1 3 43
M  V30 49 1 3 44
M  V30 50 1 8 45
M  V30 51 1 8 46
M  V30 52 1 11 47
M  V30 53 1 15 48
M  V30 54 1 17 49
M  V30 55 1 18 50
M  V30 56 1 18 51
M  V30 57 1 19 52
M  V30 58 1 19 53
M  V30 59 1 21 54
M  V30 60 1 23 55
M  V30 61 1 26 56
M  V30 62 1 26 57
M  V30 63 1 26 58
M  V30 64 1 27 59
M  V30 65 1 27 60
M  V30 66 1 27 61
M  V30 67 1 28 62 CFG=3
M  V30 68 1 29 63
M  V30 69 1 29 64
M  V30 70 1 29 65
M  V30 71 1 30 66
M  V30 72 1 30 67
M  V30 73 1 32 68
M  V30 74 1 32 69
M  V30 75 1 33 70
M  V30 76 1 34 71
M  V30 77 1 34 72
M  V30 78 1 35 73
M  V30 79 1 35 74
M  V30 80 1 37 75
M  V30 81 1 37 76
M  V30 82 1 38 77
M  V30 83 1 38 78
M  V30 END BOND
M  V30 END CTAB
M  END
>  <Dataset>  (355) 
ChEMBL_Kinases

>  <Ligand_Instance>  (355) 
nan

>  <PDB_ID>  (355) 
nan

>  <Standardized_SMILES>  (355) 
C[C@@H]1CN(C(=O)N2Cc3c(NC(=O)c4cc(C5CC5)n[nH]4)n[nH]c3C2(C)C)[C@@H](C)CN1CC1CCOCC1

>  <Name>  (355) 
nan

>  <Pocket>  (355) 
nan

>  <ATP_Site>  (355) 
nan

>  <Peripheral>  (355) 
nan

>  <Num_H_Atoms_ProtBoundConf>  (355) 
nan

>  <Num_Resolved_Atoms>  (355) 
nan

>  <Num_Not_Resolved_Atoms>  (355) 
nan

$$$$
CHEMBL3662907
     RDKit          3D

  0  0  0  0  0  0  0  0  0  0999 V3000
M  V30 BEGIN CTAB
M  V30 COUNTS 74 78 0 0 0
M  V30 BEGIN ATOM
M  V30 1 C 3.459548 -4.442213 1.414440 0
M  V30 2 C 2.783896 -3.287460 2.091028 0 CFG=2
M  V30 3 C 1.291617 -3.457223 2.209479 0
M  V30 4 N 0.647270 -2.362253 1.521963 0
M  V30 5 C -0.147246 -2.652292 0.399400 0
M  V30 6 O -0.025227 -3.881389 0.348767 0
M  V30 7 N -0.902735 -1.841793 -0.477061 0
M  V30 8 C -1.311654 -0.475106 -0.792078 0
M  V30 9 C -2.794579 -0.499771 -0.879132 0
M  V30 10 C -4.052115 0.044741 -0.726236 0
M  V30 11 N -4.231155 1.359750 -0.210619 0
M  V30 12 C -4.378334 1.617624 1.191015 0
M  V30 13 O -4.353753 0.689273 2.024757 0
M  V30 14 C -4.560025 2.988230 1.655607 0
M  V30 15 C -4.705993 3.356954 2.977949 0
M  V30 16 C -4.855999 4.719998 3.032690 0
M  V30 17 N -4.802949 5.177636 1.768998 0
M  V30 18 C -4.909455 6.550892 1.261387 0
M  V30 19 N -4.626876 4.132627 0.969842 0
M  V30 20 N -4.936651 -0.878169 -1.140731 0
M  V30 21 N -4.327886 -1.964407 -1.543815 0
M  V30 22 C -2.987604 -1.762822 -1.394187 0
M  V30 23 C -1.655292 -2.400859 -1.581412 0
M  V30 24 C -1.096293 -1.965793 -2.893922 0
M  V30 25 C -1.790915 -3.909737 -1.485910 0
M  V30 26 C 0.988298 -1.120703 2.193503 0 CFG=1
M  V30 27 C 0.492970 -1.133697 3.619605 0
M  V30 28 C 2.504457 -0.909241 2.139184 0
M  V30 29 N 3.064784 -2.024459 1.513156 0
M  V30 30 C 3.859128 -1.943302 0.391935 0
M  V30 31 C 3.301616 -1.537387 -0.914276 0
M  V30 32 C 2.679782 -0.175528 -0.983099 0
M  V30 33 C 2.392948 0.222023 -2.414471 0
M  V30 34 O 2.671347 -0.818341 -3.299151 0
M  V30 35 C 3.968525 -1.259844 -3.275906 0
M  V30 36 C 4.481075 -1.500118 -1.896674 0
M  V30 37 H 3.094503 -5.358700 1.953047 0
M  V30 38 H 4.531358 -4.376110 1.668549 0
M  V30 39 H 3.224901 -4.591863 0.364994 0
M  V30 40 H 3.200216 -3.265816 3.120422 0
M  V30 41 H 1.003547 -3.451481 3.300973 0
M  V30 42 H 0.963995 -4.462109 1.860508 0
M  V30 43 H -0.900913 -0.176535 -1.786474 0
M  V30 44 H -0.945365 0.273206 -0.085004 0
M  V30 45 H -4.258712 2.186925 -0.873486 0
M  V30 46 H -4.708932 2.723349 3.853172 0
M  V30 47 H -4.996986 5.378049 3.902435 0
M  V30 48 H -5.838993 6.641343 0.648797 0
M  V30 49 H -4.041269 6.668465 0.565321 0
M  V30 50 H -4.887446 7.259011 2.103135 0
M  V30 51 H -4.823642 -2.792672 -1.900223 0
M  V30 52 H -0.022740 -1.686567 -2.869319 0
M  V30 53 H -1.185349 -2.855319 -3.581966 0
M  V30 54 H -1.741420 -1.193014 -3.332183 0
M  V30 55 H -2.178377 -4.142890 -0.483433 0
M  V30 56 H -2.582649 -4.184925 -2.215504 0
M  V30 57 H -0.851200 -4.381445 -1.766497 0
M  V30 58 H 0.537301 -0.262988 1.701138 0
M  V30 59 H 1.305200 -1.205887 4.373216 0
M  V30 60 H -0.067620 -0.195934 3.865030 0
M  V30 61 H -0.276895 -1.940773 3.766427 0
M  V30 62 H 2.870145 -0.881730 3.211369 0
M  V30 63 H 2.801747 0.038289 1.702365 0
M  V30 64 H 4.395189 -2.926753 0.246057 0
M  V30 65 H 4.714285 -1.234009 0.612077 0
M  V30 66 H 2.576442 -2.246967 -1.353662 0
M  V30 67 H 3.329162 0.616117 -0.551025 0
M  V30 68 H 1.728179 -0.115379 -0.421778 0
M  V30 69 H 2.898742 1.162024 -2.703798 0
M  V30 70 H 1.307773 0.406268 -2.507690 0
M  V30 71 H 4.011529 -2.227115 -3.819364 0
M  V30 72 H 4.681089 -0.573438 -3.783433 0
M  V30 73 H 5.084315 -2.417628 -1.844546 0
M  V30 74 H 5.150578 -0.676048 -1.564208 0
M  V30 END ATOM
M  V30 BEGIN BOND
M  V30 1 1 1 2
M  V30 2 1 2 3
M  V30 3 1 3 4
M  V30 4 1 4 5
M  V30 5 2 5 6
M  V30 6 1 5 7
M  V30 7 1 7 8
M  V30 8 1 8 9
M  V30 9 1 9 10
M  V30 10 1 10 11
M  V30 11 1 11 12
M  V30 12 2 12 13
M  V30 13 1 12 14
M  V30 14 1 14 15
M  V30 15 2 15 16
M  V30 16 1 16 17
M  V30 17 1 17 18
M  V30 18 1 17 19
M  V30 19 2 10 20
M  V30 20 1 20 21
M  V30 21 1 21 22
M  V30 22 1 22 23
M  V30 23 1 23 24
M  V30 24 1 23 25
M  V30 25 1 4 26
M  V30 26 1 26 27
M  V30 27 1 26 28
M  V30 28 1 28 29
M  V30 29 1 29 30
M  V30 30 1 30 31
M  V30 31 1 31 32
M  V30 32 1 32 33
M  V30 33 1 33 34
M  V30 34 1 34 35
M  V30 35 1 35 36
M  V30 36 1 29 2
M  V30 37 1 36 31
M  V30 38 1 23 7
M  V30 39 2 22 9
M  V30 40 2 19 14
M  V30 41 1 1 37
M  V30 42 1 1 38
M  V30 43 1 1 39
M  V30 44 1 2 40 CFG=1
M  V30 45 1 3 41
M  V30 46 1 3 42
M  V30 47 1 8 43
M  V30 48 1 8 44
M  V30 49 1 11 45
M  V30 50 1 15 46
M  V30 51 1 16 47
M  V30 52 1 18 48
M  V30 53 1 18 49
M  V30 54 1 18 50
M  V30 55 1 21 51
M  V30 56 1 24 52
M  V30 57 1 24 53
M  V30 58 1 24 54
M  V30 59 1 25 55
M  V30 60 1 25 56
M  V30 61 1 25 57
M  V30 62 1 26 58 CFG=3
M  V30 63 1 27 59
M  V30 64 1 27 60
M  V30 65 1 27 61
M  V30 66 1 28 62
M  V30 67 1 28 63
M  V30 68 1 30 64
M  V30 69 1 30 65
M  V30 70 1 31 66
M  V30 71 1 32 67
M  V30 72 1 32 68
M  V30 73 1 33 69
M  V30 74 1 33 70
M  V30 75 1 35 71
M  V30 76 1 35 72
M  V30 77 1 36 73
M  V30 78 1 36 74
M  V30 END BOND
M  V30 END CTAB
M  END
>  <Dataset>  (356) 
ChEMBL_Kinases

>  <Ligand_Instance>  (356) 
nan

>  <PDB_ID>  (356) 
nan

>  <Standardized_SMILES>  (356) 
C[C@@H]1CN(C(=O)N2Cc3c(NC(=O)c4ccn(C)n4)n[nH]c3C2(C)C)[C@@H](C)CN1CC1CCOCC1

>  <Name>  (356) 
nan

>  <Pocket>  (356) 
nan

>  <ATP_Site>  (356) 
nan

>  <Peripheral>  (356) 
nan

>  <Num_H_Atoms_ProtBoundConf>  (356) 
nan

>  <Num_Resolved_Atoms>  (356) 
nan

>  <Num_Not_Resolved_Atoms>  (356) 
nan

$$$$
CHEMBL3662906
     RDKit          3D

  0  0  0  0  0  0  0  0  0  0999 V3000
M  V30 BEGIN CTAB
M  V30 COUNTS 76 80 0 0 0
M  V30 BEGIN ATOM
M  V30 1 C 0.455714 0.829829 5.223015 0
M  V30 2 C 1.770637 0.077946 5.222284 0
M  V30 3 C 2.925931 1.012790 5.318306 0
M  V30 4 O 3.634636 1.210039 6.419546 0
M  V30 5 C 4.568499 2.073067 6.200452 0
M  V30 6 N 4.470887 2.455865 4.913043 0
M  V30 7 C 3.448618 1.810577 4.323511 0
M  V30 8 C 2.964523 1.896605 2.957965 0
M  V30 9 O 1.982775 1.175001 2.675628 0
M  V30 10 N 3.532526 2.731175 1.962496 0
M  V30 11 C 3.086680 2.843104 0.619982 0
M  V30 12 N 3.740256 3.655154 -0.243168 0
M  V30 13 N 3.157428 3.606010 -1.428922 0
M  V30 14 C 2.141757 2.767407 -1.313654 0
M  V30 15 C 2.052103 2.256501 -0.036335 0
M  V30 16 C 0.923614 1.336935 0.078921 0
M  V30 17 N 0.301440 1.442913 -1.255143 0
M  V30 18 C -0.906060 0.916577 -1.774169 0
M  V30 19 O -1.378545 1.061354 -2.953223 0
M  V30 20 N -1.919914 0.096553 -1.156178 0
M  V30 21 C -3.072748 -0.285205 -1.948759 0
M  V30 22 C -3.053557 -1.778396 -2.226374 0 CFG=1
M  V30 23 C -2.530636 -2.021061 -3.599228 0
M  V30 24 N -2.301659 -2.460592 -1.171977 0
M  V30 25 C -2.507586 -3.870285 -1.251478 0
M  V30 26 C -1.770522 -4.696054 -0.255860 0
M  V30 27 C -2.094781 -6.181699 -0.480795 0
M  V30 28 C -1.113430 -7.089943 0.179260 0
M  V30 29 O 0.146312 -6.827757 -0.346457 0
M  V30 30 C 0.534220 -5.591270 0.189367 0
M  V30 31 C -0.298686 -4.506245 -0.469691 0
M  V30 32 C -2.552535 -1.853125 0.094112 0
M  V30 33 C -2.034707 -0.462122 0.164447 0 CFG=2
M  V30 34 C -2.964262 0.346197 1.047447 0
M  V30 35 C 1.085972 2.243552 -2.209256 0
M  V30 36 C 0.300535 3.342923 -2.841409 0
M  V30 37 C 1.735371 1.322679 -3.214835 0
M  V30 38 H 0.676362 1.880130 5.018701 0
M  V30 39 H -0.027007 0.798776 6.230734 0
M  V30 40 H -0.240117 0.353434 4.524976 0
M  V30 41 H 1.746764 -0.587100 6.092238 0
M  V30 42 H 1.845188 -0.572339 4.331461 0
M  V30 43 H 5.275593 2.384466 6.982010 0
M  V30 44 H 4.345198 3.273390 2.348168 0
M  V30 45 H 3.518985 4.171982 -2.245867 0
M  V30 46 H 1.201481 0.282534 0.186394 0
M  V30 47 H 0.126262 1.691925 0.765682 0
M  V30 48 H -3.989474 0.020045 -1.400822 0
M  V30 49 H -3.083150 0.288971 -2.886499 0
M  V30 50 H -4.093085 -2.139457 -2.163990 0
M  V30 51 H -2.967316 -2.907211 -4.110542 0
M  V30 52 H -2.891185 -1.156368 -4.229970 0
M  V30 53 H -1.426974 -1.987340 -3.690900 0
M  V30 54 H -3.607616 -4.021748 -1.020779 0
M  V30 55 H -2.416948 -4.251610 -2.293052 0
M  V30 56 H -2.075040 -4.476356 0.784883 0
M  V30 57 H -3.147457 -6.365567 -0.214758 0
M  V30 58 H -1.982068 -6.323173 -1.586815 0
M  V30 59 H -1.395901 -8.124861 -0.107814 0
M  V30 60 H -1.066318 -7.010004 1.265033 0
M  V30 61 H 1.583222 -5.369040 -0.023312 0
M  V30 62 H 0.316082 -5.619465 1.273519 0
M  V30 63 H 0.089651 -3.555837 -0.097344 0
M  V30 64 H -0.122212 -4.535425 -1.561774 0
M  V30 65 H -3.664989 -1.796410 0.202524 0
M  V30 66 H -2.223496 -2.492793 0.937133 0
M  V30 67 H -1.035629 -0.383367 0.641934 0
M  V30 68 H -3.947715 -0.177746 1.157932 0
M  V30 69 H -3.181634 1.338424 0.631492 0
M  V30 70 H -2.563673 0.459435 2.076073 0
M  V30 71 H -0.390202 3.779214 -2.121341 0
M  V30 72 H -0.193076 3.003148 -3.783228 0
M  V30 73 H 1.038273 4.112623 -3.194011 0
M  V30 74 H 2.653872 0.840239 -2.809664 0
M  V30 75 H 2.026968 1.831942 -4.139521 0
M  V30 76 H 1.060178 0.475712 -3.494301 0
M  V30 END ATOM
M  V30 BEGIN BOND
M  V30 1 1 1 2
M  V30 2 1 2 3
M  V30 3 1 3 4
M  V30 4 1 4 5
M  V30 5 2 5 6
M  V30 6 1 6 7
M  V30 7 1 7 8
M  V30 8 2 8 9
M  V30 9 1 8 10
M  V30 10 1 10 11
M  V30 11 2 11 12
M  V30 12 1 12 13
M  V30 13 1 13 14
M  V30 14 2 14 15
M  V30 15 1 15 16
M  V30 16 1 16 17
M  V30 17 1 17 18
M  V30 18 2 18 19
M  V30 19 1 18 20
M  V30 20 1 20 21
M  V30 21 1 21 22
M  V30 22 1 22 23
M  V30 23 1 22 24
M  V30 24 1 24 25
M  V30 25 1 25 26
M  V30 26 1 26 27
M  V30 27 1 27 28
M  V30 28 1 28 29
M  V30 29 1 29 30
M  V30 30 1 30 31
M  V30 31 1 24 32
M  V30 32 1 32 33
M  V30 33 1 33 34
M  V30 34 1 17 35
M  V30 35 1 35 36
M  V30 36 1 35 37
M  V30 37 2 7 3
M  V30 38 1 15 11
M  V30 39 1 33 20
M  V30 40 1 35 14
M  V30 41 1 31 26
M  V30 42 1 1 38
M  V30 43 1 1 39
M  V30 44 1 1 40
M  V30 45 1 2 41
M  V30 46 1 2 42
M  V30 47 1 5 43
M  V30 48 1 10 44
M  V30 49 1 13 45
M  V30 50 1 16 46
M  V30 51 1 16 47
M  V30 52 1 21 48
M  V30 53 1 21 49
M  V30 54 1 22 50 CFG=3
M  V30 55 1 23 51
M  V30 56 1 23 52
M  V30 57 1 23 53
M  V30 58 1 25 54
M  V30 59 1 25 55
M  V30 60 1 26 56
M  V30 61 1 27 57
M  V30 62 1 27 58
M  V30 63 1 28 59
M  V30 64 1 28 60
M  V30 65 1 30 61
M  V30 66 1 30 62
M  V30 67 1 31 63
M  V30 68 1 31 64
M  V30 69 1 32 65
M  V30 70 1 32 66
M  V30 71 1 33 67 CFG=1
M  V30 72 1 34 68
M  V30 73 1 34 69
M  V30 74 1 34 70
M  V30 75 1 36 71
M  V30 76 1 36 72
M  V30 77 1 36 73
M  V30 78 1 37 74
M  V30 79 1 37 75
M  V30 80 1 37 76
M  V30 END BOND
M  V30 END CTAB
M  END
>  <Dataset>  (357) 
ChEMBL_Kinases

>  <Ligand_Instance>  (357) 
nan

>  <PDB_ID>  (357) 
nan

>  <Standardized_SMILES>  (357) 
CCc1ocnc1C(=O)Nc1n[nH]c2c1CN(C(=O)N1C[C@@H](C)N(CC3CCOCC3)C[C@@H]1C)C2(C)C

>  <Name>  (357) 
nan

>  <Pocket>  (357) 
nan

>  <ATP_Site>  (357) 
nan

>  <Peripheral>  (357) 
nan

>  <Num_H_Atoms_ProtBoundConf>  (357) 
nan

>  <Num_Resolved_Atoms>  (357) 
nan

>  <Num_Not_Resolved_Atoms>  (357) 
nan

$$$$
CHEMBL3662949
     RDKit          3D

  0  0  0  0  0  0  0  0  0  0999 V3000
M  V30 BEGIN CTAB
M  V30 COUNTS 43 47 0 0 0
M  V30 BEGIN ATOM
M  V30 1 C -2.151443 -6.062206 2.044519 0
M  V30 2 C -0.675561 -6.135267 1.831766 0
M  V30 3 C 0.115407 -5.025916 1.760825 0
M  V30 4 C 1.481882 -5.019564 1.566626 0
M  V30 5 C 2.264075 -3.789394 1.501453 0
M  V30 6 N 3.440888 -3.621122 2.148566 0
M  V30 7 N 3.913687 -2.393802 1.894927 0
M  V30 8 C 3.034169 -1.777383 1.082590 0
M  V30 9 C 2.968085 -0.531596 0.490324 0
M  V30 10 C 1.910258 -0.166598 -0.320001 0
M  V30 11 N 1.832134 1.118965 -0.937249 0
M  V30 12 C 1.207429 2.210412 -0.306344 0
M  V30 13 O 0.720829 1.964155 0.849462 0
M  V30 14 N 1.046423 3.529679 -0.772691 0
M  V30 15 C 0.378357 4.514474 0.012512 0
M  V30 16 N 1.093730 5.283837 0.883881 0
M  V30 17 O 0.297290 6.105597 1.489286 0
M  V30 18 C -0.929673 5.963715 1.100319 0
M  V30 19 C -2.189080 6.497103 1.338502 0
M  V30 20 C -3.306624 6.031709 0.668644 0
M  V30 21 C -3.182849 5.017295 -0.257840 0
M  V30 22 N -1.987324 4.449802 -0.541355 0
M  V30 23 C -0.925777 4.950832 0.150283 0
M  V30 24 N 0.906874 -1.045665 -0.545962 0
M  V30 25 C 0.900522 -2.281510 -0.002520 0
M  V30 26 C 1.972456 -2.631382 0.809758 0
M  V30 27 C 2.017818 -6.290558 1.442697 0
M  V30 28 C 1.244338 -7.431382 1.509969 0
M  V30 29 N -0.083601 -7.349738 1.701984 0
M  V30 30 H -2.294246 -5.890617 3.128662 0
M  V30 31 H -2.634346 -5.280561 1.433686 0
M  V30 32 H -2.598091 -7.042795 1.779845 0
M  V30 33 H -0.419684 -4.093992 1.871922 0
M  V30 34 H 4.805850 -1.984644 2.260805 0
M  V30 35 H 3.774959 0.166861 0.675775 0
M  V30 36 H 2.229283 1.330644 -1.887053 0
M  V30 37 H 1.489309 3.597665 -1.730043 0
M  V30 38 H -2.215944 7.302224 2.088715 0
M  V30 39 H -4.238653 6.519558 0.932315 0
M  V30 40 H -4.081237 4.670798 -0.770390 0
M  V30 41 H 0.091860 -2.974869 -0.191327 0
M  V30 42 H 3.100737 -6.375793 1.285406 0
M  V30 43 H 1.650450 -8.408352 1.415540 0
M  V30 END ATOM
M  V30 BEGIN BOND
M  V30 1 1 1 2
M  V30 2 2 2 3
M  V30 3 1 3 4
M  V30 4 1 4 5
M  V30 5 2 5 6
M  V30 6 1 6 7
M  V30 7 1 7 8
M  V30 8 2 8 9
M  V30 9 1 9 10
M  V30 10 1 10 11
M  V30 11 1 11 12
M  V30 12 2 12 13
M  V30 13 1 12 14
M  V30 14 1 14 15
M  V30 15 2 15 16
M  V30 16 1 16 17
M  V30 17 1 17 18
M  V30 18 2 18 19
M  V30 19 1 19 20
M  V30 20 2 20 21
M  V30 21 1 21 22
M  V30 22 2 22 23
M  V30 23 2 10 24
M  V30 24 1 24 25
M  V30 25 2 25 26
M  V30 26 2 4 27
M  V30 27 1 27 28
M  V30 28 2 28 29
M  V30 29 1 29 2
M  V30 30 1 26 5
M  V30 31 1 26 8
M  V30 32 1 23 15
M  V30 33 1 23 18
M  V30 34 1 1 30
M  V30 35 1 1 31
M  V30 36 1 1 32
M  V30 37 1 3 33
M  V30 38 1 7 34
M  V30 39 1 9 35
M  V30 40 1 11 36
M  V30 41 1 14 37
M  V30 42 1 19 38
M  V30 43 1 20 39
M  V30 44 1 21 40
M  V30 45 1 25 41
M  V30 46 1 27 42
M  V30 47 1 28 43
M  V30 END BOND
M  V30 END CTAB
M  END
>  <Dataset>  (358) 
ChEMBL_Kinases

>  <Ligand_Instance>  (358) 
nan

>  <PDB_ID>  (358) 
nan

>  <Standardized_SMILES>  (358) 
Cc1cc(-c2n[nH]c3cc(NC(=O)Nc4noc5cccnc45)ncc23)ccn1

>  <Name>  (358) 
nan

>  <Pocket>  (358) 
nan

>  <ATP_Site>  (358) 
nan

>  <Peripheral>  (358) 
nan

>  <Num_H_Atoms_ProtBoundConf>  (358) 
nan

>  <Num_Resolved_Atoms>  (358) 
nan

>  <Num_Not_Resolved_Atoms>  (358) 
nan

$$$$
CHEMBL3662997
     RDKit          3D

  0  0  0  0  0  0  0  0  0  0999 V3000
M  V30 BEGIN CTAB
M  V30 COUNTS 52 55 0 0 0
M  V30 BEGIN ATOM
M  V30 1 C 4.419065 -5.315342 2.500134 0
M  V30 2 O 3.275531 -4.996910 3.083722 0
M  V30 3 C 2.044147 -5.153602 2.616005 0
M  V30 4 C 1.546583 -4.468081 1.423567 0 CFG=1
M  V30 5 N 1.638208 -3.039528 1.433583 0
M  V30 6 C 0.904445 -1.839463 1.345681 0
M  V30 7 O -0.311520 -1.974562 1.187537 0
M  V30 8 N 1.590118 -0.600582 1.439458 0
M  V30 9 C 0.763533 0.541070 1.253270 0
M  V30 10 N -0.481744 0.424380 0.707448 0
M  V30 11 C -1.296405 1.506862 0.536206 0
M  V30 12 C -0.834552 2.739263 0.933797 0
M  V30 13 C -1.484855 3.951522 0.870738 0
M  V30 14 C -2.799736 4.366860 0.388424 0
M  V30 15 C -2.818230 5.572651 -0.326941 0
M  V30 16 C -4.004902 6.073082 -0.864025 0
M  V30 17 N -5.158758 5.373320 -0.687625 0
M  V30 18 C -5.088152 4.213573 0.010436 0
M  V30 19 C -6.423918 3.516922 0.097834 0
M  V30 20 C -3.980788 3.668108 0.559383 0
M  V30 21 N -0.587643 4.838789 1.409300 0
M  V30 22 N 0.524071 4.168082 1.762963 0
M  V30 23 C 0.403475 2.860081 1.480079 0
M  V30 24 C 1.265010 1.782135 1.667877 0
M  V30 25 F 2.511142 1.965750 2.223084 0
M  V30 26 C 1.848228 -5.090866 0.129152 0
M  V30 27 C 2.529722 -6.164640 -0.380398 0
M  V30 28 C 2.656114 -6.555968 -1.683830 0
M  V30 29 C 2.024469 -5.783594 -2.626566 0
M  V30 30 C 1.281895 -4.638999 -2.265081 0
M  V30 31 C 1.221511 -4.334375 -0.892207 0
M  V30 32 H 4.542268 -6.421347 2.265846 0
M  V30 33 H 5.244590 -5.172114 3.274967 0
M  V30 34 H 4.791188 -4.717915 1.640996 0
M  V30 35 H 1.267209 -5.111164 3.447424 0
M  V30 36 H 1.967994 -6.280757 2.357049 0
M  V30 37 H 0.389800 -4.623296 1.478510 0
M  V30 38 H 2.696139 -2.956989 1.563988 0
M  V30 39 H 2.636228 -0.480544 1.587565 0
M  V30 40 H -2.283533 1.381244 0.094832 0
M  V30 41 H -1.984763 6.217232 -0.533625 0
M  V30 42 H -4.086290 7.003016 -1.430065 0
M  V30 43 H -6.356285 2.820063 0.958999 0
M  V30 44 H -7.246294 4.209848 0.253616 0
M  V30 45 H -6.501441 2.876466 -0.810723 0
M  V30 46 H -3.940680 2.759516 1.103642 0
M  V30 47 H 1.320874 4.678964 2.191515 0
M  V30 48 H 2.932238 -6.639220 0.507419 0
M  V30 49 H 3.243307 -7.433219 -1.784994 0
M  V30 50 H 2.147193 -6.111029 -3.645525 0
M  V30 51 H 0.791945 -4.062764 -3.059412 0
M  V30 52 H 0.616591 -3.438472 -0.811341 0
M  V30 END ATOM
M  V30 BEGIN BOND
M  V30 1 1 1 2
M  V30 2 1 2 3
M  V30 3 1 3 4
M  V30 4 1 4 5
M  V30 5 1 5 6
M  V30 6 2 6 7
M  V30 7 1 6 8
M  V30 8 1 8 9
M  V30 9 2 9 10
M  V30 10 1 10 11
M  V30 11 2 11 12
M  V30 12 1 12 13
M  V30 13 1 13 14
M  V30 14 2 14 15
M  V30 15 1 15 16
M  V30 16 2 16 17
M  V30 17 1 17 18
M  V30 18 1 18 19
M  V30 19 2 18 20
M  V30 20 2 13 21
M  V30 21 1 21 22
M  V30 22 1 22 23
M  V30 23 2 23 24
M  V30 24 1 24 25
M  V30 25 1 4 26
M  V30 26 2 26 27
M  V30 27 1 27 28
M  V30 28 2 28 29
M  V30 29 1 29 30
M  V30 30 2 30 31
M  V30 31 1 24 9
M  V30 32 1 31 26
M  V30 33 1 23 12
M  V30 34 1 20 14
M  V30 35 1 1 32
M  V30 36 1 1 33
M  V30 37 1 1 34
M  V30 38 1 3 35
M  V30 39 1 3 36
M  V30 40 1 4 37 CFG=1
M  V30 41 1 5 38
M  V30 42 1 8 39
M  V30 43 1 11 40
M  V30 44 1 15 41
M  V30 45 1 16 42
M  V30 46 1 19 43
M  V30 47 1 19 44
M  V30 48 1 19 45
M  V30 49 1 20 46
M  V30 50 1 22 47
M  V30 51 1 27 48
M  V30 52 1 28 49
M  V30 53 1 29 50
M  V30 54 1 30 51
M  V30 55 1 31 52
M  V30 END BOND
M  V30 END CTAB
M  END
>  <Dataset>  (359) 
ChEMBL_Kinases

>  <Ligand_Instance>  (359) 
nan

>  <PDB_ID>  (359) 
nan

>  <Standardized_SMILES>  (359) 
COC[C@@H](NC(=O)Nc1ncc2c(-c3ccnc(C)c3)n[nH]c2c1F)c1ccccc1

>  <Name>  (359) 
nan

>  <Pocket>  (359) 
nan

>  <ATP_Site>  (359) 
nan

>  <Peripheral>  (359) 
nan

>  <Num_H_Atoms_ProtBoundConf>  (359) 
nan

>  <Num_Resolved_Atoms>  (359) 
nan

>  <Num_Not_Resolved_Atoms>  (359) 
nan

$$$$
CHEMBL3662996
     RDKit          3D

  0  0  0  0  0  0  0  0  0  0999 V3000
M  V30 BEGIN CTAB
M  V30 COUNTS 50 53 0 0 0
M  V30 BEGIN ATOM
M  V30 1 C 1.417853 -4.644953 -3.532712 0
M  V30 2 O 1.025998 -4.070207 -2.308472 0
M  V30 3 C 1.362339 -4.968696 -1.282774 0
M  V30 4 C 0.941308 -4.350009 0.027690 0 CFG=2
M  V30 5 N 1.604699 -3.086244 0.268533 0
M  V30 6 C 0.870858 -1.882740 0.302176 0
M  V30 7 O -0.376673 -1.813996 0.131347 0
M  V30 8 N 1.519097 -0.636965 0.538722 0
M  V30 9 C 0.837544 0.612565 0.585158 0
M  V30 10 C 0.714488 1.296149 -0.607141 0
M  V30 11 C 0.068815 2.518527 -0.664402 0
M  V30 12 N -0.221701 3.423451 -1.620751 0
M  V30 13 N -0.879861 4.453830 -1.113819 0
M  V30 14 C -1.053993 4.266473 0.226274 0
M  V30 15 C -1.738010 5.191325 1.135900 0
M  V30 16 C -2.939495 5.663262 0.597148 0
M  V30 17 C -3.670008 6.553256 1.387522 0
M  V30 18 C -3.274704 6.977027 2.638227 0
M  V30 19 F -4.017169 7.838367 3.361433 0
M  V30 20 C -2.078858 6.471545 3.108159 0
M  V30 21 C -1.312251 5.590223 2.376313 0
M  V30 22 C -0.461528 3.054447 0.515844 0
M  V30 23 C -0.322665 2.350781 1.683745 0
M  V30 24 N 0.314662 1.149569 1.726196 0
M  V30 25 C 1.077025 -5.258975 1.168709 0
M  V30 26 C 0.863811 -4.729333 2.425456 0
M  V30 27 C 0.985313 -5.564114 3.518371 0
M  V30 28 C 1.311094 -6.904460 3.400765 0
M  V30 29 C 1.531582 -7.462596 2.136535 0
M  V30 30 C 1.404499 -6.607345 1.054117 0
M  V30 31 H 0.865523 -5.619897 -3.655182 0
M  V30 32 H 1.171765 -3.946580 -4.357422 0
M  V30 33 H 2.494747 -4.896730 -3.557948 0
M  V30 34 H 2.425273 -5.178415 -1.368977 0
M  V30 35 H 0.765829 -5.885745 -1.448431 0
M  V30 36 H -0.140322 -4.110346 -0.099640 0
M  V30 37 H 2.633710 -3.009864 0.424819 0
M  V30 38 H 2.563335 -0.591455 0.693599 0
M  V30 39 H 1.098422 0.944229 -1.556049 0
M  V30 40 H 0.072191 3.256699 -2.616190 0
M  V30 41 H -3.372448 5.423656 -0.356456 0
M  V30 42 H -4.608230 6.954815 1.028055 0
M  V30 43 H -1.696242 6.761211 4.095324 0
M  V30 44 H -0.375470 5.165466 2.691098 0
M  V30 45 H -0.726436 2.746207 2.615362 0
M  V30 46 H 0.604745 -3.700542 2.644714 0
M  V30 47 H 0.844313 -5.277577 4.565775 0
M  V30 48 H 1.416713 -7.593888 4.227695 0
M  V30 49 H 1.789706 -8.496780 1.949058 0
M  V30 50 H 1.570329 -7.016067 0.065792 0
M  V30 END ATOM
M  V30 BEGIN BOND
M  V30 1 1 1 2
M  V30 2 1 2 3
M  V30 3 1 3 4
M  V30 4 1 4 5
M  V30 5 1 5 6
M  V30 6 2 6 7
M  V30 7 1 6 8
M  V30 8 1 8 9
M  V30 9 2 9 10
M  V30 10 1 10 11
M  V30 11 1 11 12
M  V30 12 1 12 13
M  V30 13 2 13 14
M  V30 14 1 14 15
M  V30 15 2 15 16
M  V30 16 1 16 17
M  V30 17 2 17 18
M  V30 18 1 18 19
M  V30 19 1 18 20
M  V30 20 2 20 21
M  V30 21 1 14 22
M  V30 22 1 22 23
M  V30 23 2 23 24
M  V30 24 1 4 25
M  V30 25 2 25 26
M  V30 26 1 26 27
M  V30 27 2 27 28
M  V30 28 1 28 29
M  V30 29 2 29 30
M  V30 30 1 24 9
M  V30 31 1 30 25
M  V30 32 2 22 11
M  V30 33 1 21 15
M  V30 34 1 1 31
M  V30 35 1 1 32
M  V30 36 1 1 33
M  V30 37 1 3 34
M  V30 38 1 3 35
M  V30 39 1 4 36 CFG=3
M  V30 40 1 5 37
M  V30 41 1 8 38
M  V30 42 1 10 39
M  V30 43 1 12 40
M  V30 44 1 16 41
M  V30 45 1 17 42
M  V30 46 1 20 43
M  V30 47 1 21 44
M  V30 48 1 23 45
M  V30 49 1 26 46
M  V30 50 1 27 47
M  V30 51 1 28 48
M  V30 52 1 29 49
M  V30 53 1 30 50
M  V30 END BOND
M  V30 END CTAB
M  END
>  <Dataset>  (360) 
ChEMBL_Kinases

>  <Ligand_Instance>  (360) 
nan

>  <PDB_ID>  (360) 
nan

>  <Standardized_SMILES>  (360) 
COC[C@H](NC(=O)Nc1cc2[nH]nc(-c3ccc(F)cc3)c2cn1)c1ccccc1

>  <Name>  (360) 
nan

>  <Pocket>  (360) 
nan

>  <ATP_Site>  (360) 
nan

>  <Peripheral>  (360) 
nan

>  <Num_H_Atoms_ProtBoundConf>  (360) 
nan

>  <Num_Resolved_Atoms>  (360) 
nan

>  <Num_Not_Resolved_Atoms>  (360) 
nan

$$$$
CHEMBL3662995
     RDKit          3D

  0  0  0  0  0  0  0  0  0  0999 V3000
M  V30 BEGIN CTAB
M  V30 COUNTS 37 39 0 0 0
M  V30 BEGIN ATOM
M  V30 1 C -1.637361 -3.258583 2.749406 0
M  V30 2 C -1.311877 -2.566836 1.469203 0 CFG=1
M  V30 3 N 0.096102 -2.165331 1.366556 0
M  V30 4 C 0.450221 -0.813342 1.236811 0
M  V30 5 O -0.419750 0.100761 1.203695 0
M  V30 6 N 1.765479 -0.309582 1.130221 0
M  V30 7 C 2.100886 1.068850 0.999195 0
M  V30 8 N 2.152153 1.431012 -0.314992 0
M  V30 9 C 2.450100 2.688391 -0.712666 0
M  V30 10 C 2.709194 3.626797 0.265804 0
M  V30 11 C 3.041799 4.976148 0.285678 0
M  V30 12 C 3.211455 5.801067 -0.871669 0
M  V30 13 N 3.360802 6.483763 -1.800851 0
M  V30 14 N 3.175110 5.366522 1.579047 0
M  V30 15 N 2.947813 4.346788 2.399460 0
M  V30 16 C 2.666612 3.296993 1.605047 0
M  V30 17 C 2.359506 2.005035 1.980200 0
M  V30 18 F 2.275935 1.519613 3.225829 0
M  V30 19 C -1.686779 -3.402847 0.276416 0
M  V30 20 C -2.887956 -3.164409 -0.395459 0
M  V30 21 C -3.299469 -3.888190 -1.495370 0
M  V30 22 C -2.486287 -4.899269 -1.957971 0
M  V30 23 C -1.278671 -5.157548 -1.302538 0
M  V30 24 C -0.872847 -4.419828 -0.191978 0
M  V30 25 H -2.010639 -2.559134 3.529705 0
M  V30 26 H -2.434839 -4.016905 2.527521 0
M  V30 27 H -0.754651 -3.813025 3.171175 0
M  V30 28 H -1.876480 -1.611808 1.417624 0
M  V30 29 H 0.901309 -2.834126 1.382489 0
M  V30 30 H 2.514116 -1.045905 1.154542 0
M  V30 31 H 2.494570 2.989564 -1.741730 0
M  V30 32 H 2.982749 4.366644 3.442781 0
M  V30 33 H -3.510679 -2.362997 -0.011899 0
M  V30 34 H -4.248984 -3.647540 -1.970139 0
M  V30 35 H -2.773161 -5.498146 -2.826573 0
M  V30 36 H -0.636960 -5.955619 -1.667795 0
M  V30 37 H 0.069127 -4.633403 0.306196 0
M  V30 END ATOM
M  V30 BEGIN BOND
M  V30 1 1 1 2
M  V30 2 1 2 3
M  V30 3 1 3 4
M  V30 4 2 4 5
M  V30 5 1 4 6
M  V30 6 1 6 7
M  V30 7 2 7 8
M  V30 8 1 8 9
M  V30 9 2 9 10
M  V30 10 1 10 11
M  V30 11 1 11 12
M  V30 12 3 12 13
M  V30 13 2 11 14
M  V30 14 1 14 15
M  V30 15 1 15 16
M  V30 16 2 16 17
M  V30 17 1 17 18
M  V30 18 1 2 19
M  V30 19 2 19 20
M  V30 20 1 20 21
M  V30 21 2 21 22
M  V30 22 1 22 23
M  V30 23 2 23 24
M  V30 24 1 17 7
M  V30 25 1 24 19
M  V30 26 1 16 10
M  V30 27 1 1 25
M  V30 28 1 1 26
M  V30 29 1 1 27
M  V30 30 1 2 28 CFG=3
M  V30 31 1 3 29
M  V30 32 1 6 30
M  V30 33 1 9 31
M  V30 34 1 15 32
M  V30 35 1 20 33
M  V30 36 1 21 34
M  V30 37 1 22 35
M  V30 38 1 23 36
M  V30 39 1 24 37
M  V30 END BOND
M  V30 END CTAB
M  END
>  <Dataset>  (361) 
ChEMBL_Kinases

>  <Ligand_Instance>  (361) 
nan

>  <PDB_ID>  (361) 
nan

>  <Standardized_SMILES>  (361) 
C[C@@H](NC(=O)Nc1ncc2c(C#N)n[nH]c2c1F)c1ccccc1

>  <Name>  (361) 
nan

>  <Pocket>  (361) 
nan

>  <ATP_Site>  (361) 
nan

>  <Peripheral>  (361) 
nan

>  <Num_H_Atoms_ProtBoundConf>  (361) 
nan

>  <Num_Resolved_Atoms>  (361) 
nan

>  <Num_Not_Resolved_Atoms>  (361) 
nan

$$$$
CHEMBL3662994
     RDKit          3D

  0  0  0  0  0  0  0  0  0  0999 V3000
M  V30 BEGIN CTAB
M  V30 COUNTS 45 48 0 0 0
M  V30 BEGIN ATOM
M  V30 1 C -2.461671 -3.653333 3.108946 0
M  V30 2 C -1.602551 -3.821737 1.853550 0 CFG=1
M  V30 3 N -0.475010 -2.902846 2.057333 0
M  V30 4 C -0.314046 -1.760204 1.235875 0
M  V30 5 O -1.085394 -1.436653 0.295775 0
M  V30 6 N 0.844892 -0.979315 1.582917 0
M  V30 7 C 1.147236 0.205214 0.848723 0
M  V30 8 N 0.552355 1.276683 1.406931 0
M  V30 9 C 0.684156 2.528837 0.895211 0
M  V30 10 C 1.457083 2.707658 -0.239324 0
M  V30 11 C 1.833503 3.763102 -1.044096 0
M  V30 12 C 1.415580 5.155704 -0.818663 0
M  V30 13 C 2.452298 6.080970 -0.942547 0
M  V30 14 C 2.105494 7.408571 -0.738359 0
M  V30 15 N 0.864537 7.798640 -0.441189 0
M  V30 16 C -0.145912 6.901216 -0.320008 0
M  V30 17 F -1.441237 7.176763 -0.022900 0
M  V30 18 C 0.130664 5.557858 -0.511141 0
M  V30 19 N 2.628424 3.299176 -2.042130 0
M  V30 20 N 2.780551 1.972345 -1.910621 0
M  V30 21 C 2.072580 1.616703 -0.821476 0
M  V30 22 C 1.919371 0.357803 -0.277866 0
M  V30 23 F 2.456110 -0.791702 -0.733917 0
M  V30 24 C -1.156261 -5.212619 1.753743 0
M  V30 25 C -0.077396 -5.630595 1.000399 0
M  V30 26 C 0.329634 -6.948506 0.917967 0
M  V30 27 C -0.370725 -7.904448 1.620457 0
M  V30 28 C -1.451015 -7.550774 2.386076 0
M  V30 29 C -1.841080 -6.213338 2.452125 0
M  V30 30 H -3.441273 -4.123593 2.927407 0
M  V30 31 H -2.668753 -2.584133 3.313408 0
M  V30 32 H -1.937968 -4.025282 4.016156 0
M  V30 33 H -2.209907 -3.458111 1.021694 0
M  V30 34 H 0.151760 -3.176155 2.829967 0
M  V30 35 H 1.549571 -1.153029 2.339270 0
M  V30 36 H 0.210404 3.395892 1.336189 0
M  V30 37 H 3.457349 5.804381 -1.179311 0
M  V30 38 H 2.847480 8.194520 -0.814721 0
M  V30 39 H -0.618485 4.791975 -0.431291 0
M  V30 40 H 3.334754 1.333166 -2.524171 0
M  V30 41 H 0.475986 -4.862787 0.443155 0
M  V30 42 H 1.187984 -7.239982 0.311462 0
M  V30 43 H -0.081916 -8.940774 1.579569 0
M  V30 44 H -1.991036 -8.315128 2.932484 0
M  V30 45 H -2.689287 -6.015139 3.067086 0
M  V30 END ATOM
M  V30 BEGIN BOND
M  V30 1 1 1 2
M  V30 2 1 2 3
M  V30 3 1 3 4
M  V30 4 2 4 5
M  V30 5 1 4 6
M  V30 6 1 6 7
M  V30 7 2 7 8
M  V30 8 1 8 9
M  V30 9 2 9 10
M  V30 10 1 10 11
M  V30 11 1 11 12
M  V30 12 2 12 13
M  V30 13 1 13 14
M  V30 14 2 14 15
M  V30 15 1 15 16
M  V30 16 1 16 17
M  V30 17 2 16 18
M  V30 18 2 11 19
M  V30 19 1 19 20
M  V30 20 1 20 21
M  V30 21 2 21 22
M  V30 22 1 22 23
M  V30 23 1 2 24
M  V30 24 2 24 25
M  V30 25 1 25 26
M  V30 26 2 26 27
M  V30 27 1 27 28
M  V30 28 2 28 29
M  V30 29 1 22 7
M  V30 30 1 29 24
M  V30 31 1 21 10
M  V30 32 1 18 12
M  V30 33 1 1 30
M  V30 34 1 1 31
M  V30 35 1 1 32
M  V30 36 1 2 33 CFG=3
M  V30 37 1 3 34
M  V30 38 1 6 35
M  V30 39 1 9 36
M  V30 40 1 13 37
M  V30 41 1 14 38
M  V30 42 1 18 39
M  V30 43 1 20 40
M  V30 44 1 25 41
M  V30 45 1 26 42
M  V30 46 1 27 43
M  V30 47 1 28 44
M  V30 48 1 29 45
M  V30 END BOND
M  V30 END CTAB
M  END
>  <Dataset>  (362) 
ChEMBL_Kinases

>  <Ligand_Instance>  (362) 
nan

>  <PDB_ID>  (362) 
nan

>  <Standardized_SMILES>  (362) 
C[C@@H](NC(=O)Nc1ncc2c(-c3ccnc(F)c3)n[nH]c2c1F)c1ccccc1

>  <Name>  (362) 
nan

>  <Pocket>  (362) 
nan

>  <ATP_Site>  (362) 
nan

>  <Peripheral>  (362) 
nan

>  <Num_H_Atoms_ProtBoundConf>  (362) 
nan

>  <Num_Resolved_Atoms>  (362) 
nan

>  <Num_Not_Resolved_Atoms>  (362) 
nan

$$$$
CHEMBL3662993
     RDKit          3D

  0  0  0  0  0  0  0  0  0  0999 V3000
M  V30 BEGIN CTAB
M  V30 COUNTS 52 55 0 0 0
M  V30 BEGIN ATOM
M  V30 1 C -1.673176 -3.840786 -2.217516 0
M  V30 2 O -1.256046 -4.712734 -1.249728 0
M  V30 3 C 0.004837 -5.224817 -1.437886 0
M  V30 4 C 1.051652 -4.139383 -1.462818 0 CFG=1
M  V30 5 N 0.963354 -3.462451 -0.168108 0
M  V30 6 C 0.692528 -2.079583 0.095376 0
M  V30 7 O 0.480114 -1.192145 -0.760397 0
M  V30 8 N 0.674449 -1.731969 1.488360 0
M  V30 9 C 0.410484 -0.371381 1.814763 0
M  V30 10 C 1.332320 0.646886 1.965764 0
M  V30 11 C 0.878899 1.915558 2.287467 0
M  V30 12 N 1.600863 3.035759 2.477925 0
M  V30 13 N 0.726341 3.988133 2.763938 0
M  V30 14 C -0.538006 3.486469 2.757122 0
M  V30 15 C -1.783681 4.210274 3.022959 0
M  V30 16 C -1.803485 5.066948 4.108850 0
M  V30 17 C -2.939061 5.789325 4.431242 0
M  V30 18 N -4.078933 5.680738 3.687863 0
M  V30 19 C -4.067418 4.840538 2.618678 0
M  V30 20 C -5.286732 4.687642 1.776763 0
M  V30 21 C -2.945016 4.110856 2.279948 0
M  V30 22 C -0.485247 2.140527 2.451561 0
M  V30 23 C -1.378997 1.098547 2.292915 0
M  V30 24 N -0.920048 -0.145198 1.976322 0
M  V30 25 C 2.422632 -4.732892 -1.627211 0
M  V30 26 C 3.081943 -4.567776 -2.830780 0
M  V30 27 C 4.346484 -5.111791 -2.992221 0
M  V30 28 C 4.952708 -5.816327 -1.962730 0
M  V30 29 C 4.296182 -5.980919 -0.763820 0
M  V30 30 C 3.038320 -5.435060 -0.615019 0
M  V30 31 H -2.716697 -3.508330 -1.954731 0
M  V30 32 H -1.070516 -2.898979 -2.253335 0
M  V30 33 H -1.617560 -4.280313 -3.226917 0
M  V30 34 H 0.246441 -5.915919 -0.581300 0
M  V30 35 H 0.076022 -5.806634 -2.404432 0
M  V30 36 H 0.861208 -3.416976 -2.269095 0
M  V30 37 H 1.130774 -4.145317 0.598299 0
M  V30 38 H 0.830014 -2.343827 2.320895 0
M  V30 39 H 2.359146 0.339735 1.811354 0
M  V30 40 H 2.638467 3.116298 2.409398 0
M  V30 41 H -0.932108 5.180661 4.716397 0
M  V30 42 H -2.917828 6.459008 5.299562 0
M  V30 43 H -6.168740 4.916541 2.377687 0
M  V30 44 H -5.203655 5.263095 0.829378 0
M  V30 45 H -5.306212 3.618646 1.451605 0
M  V30 46 H -2.922779 3.437839 1.430341 0
M  V30 47 H -2.431792 1.308993 2.427804 0
M  V30 48 H 2.591504 -4.022744 -3.601467 0
M  V30 49 H 4.887587 -5.003112 -3.913089 0
M  V30 50 H 5.924825 -6.238891 -2.075964 0
M  V30 51 H 4.757310 -6.527952 0.046989 0
M  V30 52 H 2.550667 -5.581355 0.334724 0
M  V30 END ATOM
M  V30 BEGIN BOND
M  V30 1 1 1 2
M  V30 2 1 2 3
M  V30 3 1 3 4
M  V30 4 1 4 5
M  V30 5 1 5 6
M  V30 6 2 6 7
M  V30 7 1 6 8
M  V30 8 1 8 9
M  V30 9 2 9 10
M  V30 10 1 10 11
M  V30 11 1 11 12
M  V30 12 1 12 13
M  V30 13 2 13 14
M  V30 14 1 14 15
M  V30 15 2 15 16
M  V30 16 1 16 17
M  V30 17 2 17 18
M  V30 18 1 18 19
M  V30 19 1 19 20
M  V30 20 2 19 21
M  V30 21 1 14 22
M  V30 22 1 22 23
M  V30 23 2 23 24
M  V30 24 1 4 25
M  V30 25 2 25 26
M  V30 26 1 26 27
M  V30 27 2 27 28
M  V30 28 1 28 29
M  V30 29 2 29 30
M  V30 30 1 24 9
M  V30 31 1 30 25
M  V30 32 2 22 11
M  V30 33 1 21 15
M  V30 34 1 1 31
M  V30 35 1 1 32
M  V30 36 1 1 33
M  V30 37 1 3 34
M  V30 38 1 3 35
M  V30 39 1 4 36 CFG=3
M  V30 40 1 5 37
M  V30 41 1 8 38
M  V30 42 1 10 39
M  V30 43 1 12 40
M  V30 44 1 16 41
M  V30 45 1 17 42
M  V30 46 1 20 43
M  V30 47 1 20 44
M  V30 48 1 20 45
M  V30 49 1 21 46
M  V30 50 1 23 47
M  V30 51 1 26 48
M  V30 52 1 27 49
M  V30 53 1 28 50
M  V30 54 1 29 51
M  V30 55 1 30 52
M  V30 END BOND
M  V30 END CTAB
M  END
>  <Dataset>  (363) 
ChEMBL_Kinases

>  <Ligand_Instance>  (363) 
nan

>  <PDB_ID>  (363) 
nan

>  <Standardized_SMILES>  (363) 
COC[C@@H](NC(=O)Nc1cc2[nH]nc(-c3ccnc(C)c3)c2cn1)c1ccccc1

>  <Name>  (363) 
nan

>  <Pocket>  (363) 
nan

>  <ATP_Site>  (363) 
nan

>  <Peripheral>  (363) 
nan

>  <Num_H_Atoms_ProtBoundConf>  (363) 
nan

>  <Num_Resolved_Atoms>  (363) 
nan

>  <Num_Not_Resolved_Atoms>  (363) 
nan

$$$$
CHEMBL3662992
     RDKit          3D

  0  0  0  0  0  0  0  0  0  0999 V3000
M  V30 BEGIN CTAB
M  V30 COUNTS 37 39 0 0 0
M  V30 BEGIN ATOM
M  V30 1 C -1.903704 -3.424762 1.757066 0
M  V30 2 C -1.179135 -2.639156 0.695876 0 CFG=1
M  V30 3 N 0.083455 -2.120374 1.220495 0
M  V30 4 C 0.361537 -0.728192 1.283453 0
M  V30 5 O -0.601656 -0.031451 0.838265 0
M  V30 6 N 1.612049 -0.236390 1.803969 0
M  V30 7 C 1.625767 1.204885 1.750554 0
M  V30 8 C 1.186627 2.049382 2.753945 0
M  V30 9 C 1.304622 3.392733 2.460746 0
M  V30 10 N 0.954590 4.443943 3.254855 0
M  V30 11 N 1.240228 5.564057 2.577129 0
M  V30 12 C 1.763196 5.214873 1.372337 0
M  V30 13 C 2.206879 6.107346 0.332356 0
M  V30 14 N 2.543362 6.822657 -0.498531 0
M  V30 15 C 1.820171 3.831645 1.261282 0
M  V30 16 C 2.242172 2.941974 0.298227 0
M  V30 17 N 2.133527 1.608164 0.569648 0
M  V30 18 C -0.932450 -3.489304 -0.509767 0
M  V30 19 C -1.672040 -3.410402 -1.673605 0
M  V30 20 C -1.416942 -4.209637 -2.765735 0
M  V30 21 C -0.381639 -5.124470 -2.692732 0
M  V30 22 C 0.348006 -5.198977 -1.538097 0
M  V30 23 C 0.114749 -4.404395 -0.416087 0
M  V30 24 H -1.532128 -3.112560 2.765388 0
M  V30 25 H -1.712193 -4.506677 1.550649 0
M  V30 26 H -2.993264 -3.259472 1.654887 0
M  V30 27 H -1.838674 -1.804694 0.376520 0
M  V30 28 H 0.779487 -2.824546 1.550455 0
M  V30 29 H 2.264079 -0.982601 2.116645 0
M  V30 30 H 0.809703 1.591797 3.632944 0
M  V30 31 H 0.544143 4.414937 4.204974 0
M  V30 32 H 2.642976 3.310160 -0.634693 0
M  V30 33 H -2.468528 -2.652083 -1.624311 0
M  V30 34 H -2.042604 -4.083030 -3.634480 0
M  V30 35 H -0.193531 -5.740635 -3.549926 0
M  V30 36 H 1.137582 -5.931020 -1.548855 0
M  V30 37 H 0.747230 -4.540146 0.447122 0
M  V30 END ATOM
M  V30 BEGIN BOND
M  V30 1 1 1 2
M  V30 2 1 2 3
M  V30 3 1 3 4
M  V30 4 2 4 5
M  V30 5 1 4 6
M  V30 6 1 6 7
M  V30 7 2 7 8
M  V30 8 1 8 9
M  V30 9 1 9 10
M  V30 10 1 10 11
M  V30 11 2 11 12
M  V30 12 1 12 13
M  V30 13 3 13 14
M  V30 14 1 12 15
M  V30 15 1 15 16
M  V30 16 2 16 17
M  V30 17 1 2 18
M  V30 18 2 18 19
M  V30 19 1 19 20
M  V30 20 2 20 21
M  V30 21 1 21 22
M  V30 22 2 22 23
M  V30 23 1 17 7
M  V30 24 1 23 18
M  V30 25 2 15 9
M  V30 26 1 1 24
M  V30 27 1 1 25
M  V30 28 1 1 26
M  V30 29 1 2 27 CFG=3
M  V30 30 1 3 28
M  V30 31 1 6 29
M  V30 32 1 8 30
M  V30 33 1 10 31
M  V30 34 1 16 32
M  V30 35 1 19 33
M  V30 36 1 20 34
M  V30 37 1 21 35
M  V30 38 1 22 36
M  V30 39 1 23 37
M  V30 END BOND
M  V30 END CTAB
M  END
>  <Dataset>  (364) 
ChEMBL_Kinases

>  <Ligand_Instance>  (364) 
nan

>  <PDB_ID>  (364) 
nan

>  <Standardized_SMILES>  (364) 
C[C@@H](NC(=O)Nc1cc2[nH]nc(C#N)c2cn1)c1ccccc1

>  <Name>  (364) 
nan

>  <Pocket>  (364) 
nan

>  <ATP_Site>  (364) 
nan

>  <Peripheral>  (364) 
nan

>  <Num_H_Atoms_ProtBoundConf>  (364) 
nan

>  <Num_Resolved_Atoms>  (364) 
nan

>  <Num_Not_Resolved_Atoms>  (364) 
nan

$$$$
CHEMBL3662991
     RDKit          3D

  0  0  0  0  0  0  0  0  0  0999 V3000
M  V30 BEGIN CTAB
M  V30 COUNTS 45 48 0 0 0
M  V30 BEGIN ATOM
M  V30 1 C -2.540700 -5.678341 0.986954 0
M  V30 2 C -1.626993 -5.648776 -0.187471 0
M  V30 3 C -1.216798 -4.450211 -0.735441 0
M  V30 4 C -0.360549 -4.361176 -1.838599 0
M  V30 5 C 0.033691 -3.056434 -2.364112 0
M  V30 6 N 0.063743 -2.666253 -3.664220 0
M  V30 7 N 0.476611 -1.406294 -3.763628 0
M  V30 8 C 0.742134 -0.893022 -2.542132 0
M  V30 9 C 1.183988 0.307559 -2.012833 0
M  V30 10 F 1.452894 1.313879 -2.876658 0
M  V30 11 C 1.332497 0.435046 -0.646640 0
M  V30 12 N 1.785889 1.666500 -0.088278 0
M  V30 13 C 1.939131 1.790969 1.304513 0
M  V30 14 O 1.665895 0.788950 2.012855 0
M  V30 15 N 2.378710 2.975749 1.915470 0
M  V30 16 C 2.579642 3.243254 3.329863 0
M  V30 17 C 1.238123 3.445742 3.935240 0
M  V30 18 C 0.414781 2.498655 4.504287 0
M  V30 19 C -0.816807 2.826546 5.030023 0
M  V30 20 C -1.252352 4.149395 4.990578 0
M  V30 21 C -0.470323 5.121009 4.436565 0
M  V30 22 C 0.756090 4.756845 3.920429 0
M  V30 23 N 1.046341 -0.608939 0.156975 0
M  V30 24 C 0.613888 -1.793595 -0.317658 0
M  V30 25 C 0.461125 -1.934336 -1.679167 0
M  V30 26 C 0.099692 -5.532711 -2.410926 0
M  V30 27 C -0.329787 -6.717347 -1.838385 0
M  V30 28 N -1.157778 -6.770481 -0.772173 0
M  V30 29 H -2.546610 -6.693847 1.428315 0
M  V30 30 H -2.267225 -4.972286 1.777715 0
M  V30 31 H -3.571411 -5.509572 0.567207 0
M  V30 32 H -1.614222 -3.551074 -0.242463 0
M  V30 33 H 0.591969 -0.856278 -4.648376 0
M  V30 34 H 1.999568 2.467472 -0.714594 0
M  V30 35 H 2.588652 3.774755 1.246147 0
M  V30 36 H 3.028016 2.300816 3.765346 0
M  V30 37 H 3.222049 4.107410 3.496875 0
M  V30 38 H 0.798780 1.504144 4.509056 0
M  V30 39 H -1.362229 1.972495 5.448887 0
M  V30 40 H -2.229320 4.313553 5.424512 0
M  V30 41 H -0.823096 6.138536 4.413689 0
M  V30 42 H 1.349908 5.560057 3.488228 0
M  V30 43 H 0.430225 -2.526525 0.455951 0
M  V30 44 H 0.761287 -5.529487 -3.262591 0
M  V30 45 H -0.020285 -7.675356 -2.219188 0
M  V30 END ATOM
M  V30 BEGIN BOND
M  V30 1 1 1 2
M  V30 2 2 2 3
M  V30 3 1 3 4
M  V30 4 1 4 5
M  V30 5 2 5 6
M  V30 6 1 6 7
M  V30 7 1 7 8
M  V30 8 2 8 9
M  V30 9 1 9 10
M  V30 10 1 9 11
M  V30 11 1 11 12
M  V30 12 1 12 13
M  V30 13 2 13 14
M  V30 14 1 13 15
M  V30 15 1 15 16
M  V30 16 1 16 17
M  V30 17 2 17 18
M  V30 18 1 18 19
M  V30 19 2 19 20
M  V30 20 1 20 21
M  V30 21 2 21 22
M  V30 22 2 11 23
M  V30 23 1 23 24
M  V30 24 2 24 25
M  V30 25 2 4 26
M  V30 26 1 26 27
M  V30 27 2 27 28
M  V30 28 1 28 2
M  V30 29 1 25 5
M  V30 30 1 25 8
M  V30 31 1 22 17
M  V30 32 1 1 29
M  V30 33 1 1 30
M  V30 34 1 1 31
M  V30 35 1 3 32
M  V30 36 1 7 33
M  V30 37 1 12 34
M  V30 38 1 15 35
M  V30 39 1 16 36
M  V30 40 1 16 37
M  V30 41 1 18 38
M  V30 42 1 19 39
M  V30 43 1 20 40
M  V30 44 1 21 41
M  V30 45 1 22 42
M  V30 46 1 24 43
M  V30 47 1 26 44
M  V30 48 1 27 45
M  V30 END BOND
M  V30 END CTAB
M  END
>  <Dataset>  (365) 
ChEMBL_Kinases

>  <Ligand_Instance>  (365) 
nan

>  <PDB_ID>  (365) 
nan

>  <Standardized_SMILES>  (365) 
Cc1cc(-c2n[nH]c3c(F)c(NC(=O)NCc4ccccc4)ncc23)ccn1

>  <Name>  (365) 
nan

>  <Pocket>  (365) 
nan

>  <ATP_Site>  (365) 
nan

>  <Peripheral>  (365) 
nan

>  <Num_H_Atoms_ProtBoundConf>  (365) 
nan

>  <Num_Resolved_Atoms>  (365) 
nan

>  <Num_Not_Resolved_Atoms>  (365) 
nan

$$$$
CHEMBL3662990
     RDKit          3D

  0  0  0  0  0  0  0  0  0  0999 V3000
M  V30 BEGIN CTAB
M  V30 COUNTS 49 52 0 0 0
M  V30 BEGIN ATOM
M  V30 1 C -1.913574 -2.807305 -6.162587 0
M  V30 2 C -1.604074 -3.815864 -5.129657 0
M  V30 3 C -1.383349 -3.518502 -3.800325 0
M  V30 4 C -1.090548 -4.478265 -2.832196 0
M  V30 5 C -0.865576 -4.113751 -1.441416 0
M  V30 6 N -1.378694 -4.743107 -0.349488 0
M  V30 7 N -0.980549 -4.158432 0.764413 0
M  V30 8 C -0.187548 -3.118950 0.442881 0
M  V30 9 C 0.517912 -2.144511 1.150092 0
M  V30 10 F 0.366394 -2.277919 2.504747 0
M  V30 11 C 1.273127 -1.170777 0.502308 0
M  V30 12 N 1.890181 -0.299264 1.478843 0
M  V30 13 C 1.070459 0.814979 1.827648 0
M  V30 14 O -0.031382 0.890993 1.264859 0
M  V30 15 N 1.590606 1.738440 2.790519 0
M  V30 16 C 0.707865 2.871620 3.122594 0 CFG=2
M  V30 17 C 1.510315 4.114491 2.799594 0
M  V30 18 C 0.430487 2.916661 4.598064 0
M  V30 19 C 1.440646 2.765680 5.523543 0
M  V30 20 C 1.141133 2.811506 6.876727 0
M  V30 21 C -0.157836 3.006471 7.301199 0
M  V30 22 F -0.554495 3.067635 8.604977 0
M  V30 23 C -1.131937 3.151924 6.343193 0
M  V30 24 C -0.902636 3.116896 4.974817 0
M  V30 25 C 1.340391 -1.149187 -0.872051 0
M  V30 26 C 0.643869 -2.111133 -1.570232 0
M  V30 27 C -0.102806 -3.073819 -0.937155 0
M  V30 28 C -1.026602 -5.801308 -3.273488 0
M  V30 29 C -1.251883 -6.078369 -4.613219 0
M  V30 30 N -1.529405 -5.111823 -5.497994 0
M  V30 31 H -2.950933 -2.955566 -6.545444 0
M  V30 32 H -1.271400 -2.976794 -7.076044 0
M  V30 33 H -1.830613 -1.778226 -5.802197 0
M  V30 34 H -1.451975 -2.460012 -3.533259 0
M  V30 35 H -1.223954 -4.435094 1.737126 0
M  V30 36 H 2.852390 -0.467258 1.894646 0
M  V30 37 H 2.523452 1.650200 3.246474 0
M  V30 38 H -0.214523 2.817366 2.540941 0
M  V30 39 H 2.590469 3.915678 2.653853 0
M  V30 40 H 1.332581 4.927331 3.535388 0
M  V30 41 H 1.179094 4.543164 1.813252 0
M  V30 42 H 2.466846 2.611398 5.198384 0
M  V30 43 H 1.908537 2.698014 7.643734 0
M  V30 44 H -2.180650 3.309469 6.603407 0
M  V30 45 H -1.668800 3.230788 4.230836 0
M  V30 46 H 1.958664 -0.344910 -1.235904 0
M  V30 47 H 0.733214 -2.045984 -2.643411 0
M  V30 48 H -0.798764 -6.509446 -2.498610 0
M  V30 49 H -1.191228 -7.132577 -4.908782 0
M  V30 END ATOM
M  V30 BEGIN BOND
M  V30 1 1 1 2
M  V30 2 2 2 3
M  V30 3 1 3 4
M  V30 4 1 4 5
M  V30 5 2 5 6
M  V30 6 1 6 7
M  V30 7 1 7 8
M  V30 8 2 8 9
M  V30 9 1 9 10
M  V30 10 1 9 11
M  V30 11 1 11 12
M  V30 12 1 12 13
M  V30 13 2 13 14
M  V30 14 1 13 15
M  V30 15 1 15 16
M  V30 16 1 16 17
M  V30 17 1 16 18
M  V30 18 2 18 19
M  V30 19 1 19 20
M  V30 20 2 20 21
M  V30 21 1 21 22
M  V30 22 1 21 23
M  V30 23 2 23 24
M  V30 24 2 11 25
M  V30 25 1 25 26
M  V30 26 2 26 27
M  V30 27 2 4 28
M  V30 28 1 28 29
M  V30 29 2 29 30
M  V30 30 1 30 2
M  V30 31 1 27 5
M  V30 32 1 27 8
M  V30 33 1 24 18
M  V30 34 1 1 31
M  V30 35 1 1 32
M  V30 36 1 1 33
M  V30 37 1 3 34
M  V30 38 1 7 35
M  V30 39 1 12 36
M  V30 40 1 15 37
M  V30 41 1 16 38 CFG=3
M  V30 42 1 17 39
M  V30 43 1 17 40
M  V30 44 1 17 41
M  V30 45 1 19 42
M  V30 46 1 20 43
M  V30 47 1 23 44
M  V30 48 1 24 45
M  V30 49 1 25 46
M  V30 50 1 26 47
M  V30 51 1 28 48
M  V30 52 1 29 49
M  V30 END BOND
M  V30 END CTAB
M  END
>  <Dataset>  (366) 
ChEMBL_Kinases

>  <Ligand_Instance>  (366) 
nan

>  <PDB_ID>  (366) 
nan

>  <Standardized_SMILES>  (366) 
Cc1cc(-c2n[nH]c3c(F)c(NC(=O)N[C@H](C)c4ccc(F)cc4)ccc23)ccn1

>  <Name>  (366) 
nan

>  <Pocket>  (366) 
nan

>  <ATP_Site>  (366) 
nan

>  <Peripheral>  (366) 
nan

>  <Num_H_Atoms_ProtBoundConf>  (366) 
nan

>  <Num_Resolved_Atoms>  (366) 
nan

>  <Num_Not_Resolved_Atoms>  (366) 
nan

$$$$
CHEMBL3662989
     RDKit          3D

  0  0  0  0  0  0  0  0  0  0999 V3000
M  V30 BEGIN CTAB
M  V30 COUNTS 48 51 0 0 0
M  V30 BEGIN ATOM
M  V30 1 C -0.974961 -8.249171 -2.495065 0
M  V30 2 C 0.133177 -7.482954 -1.878216 0
M  V30 3 C -0.106211 -6.419870 -1.037369 0
M  V30 4 C 0.874207 -5.651006 -0.417645 0
M  V30 5 C 0.416368 -4.565408 0.440515 0
M  V30 6 N -0.596597 -4.765613 1.334493 0
M  V30 7 N -0.829853 -3.643109 1.991951 0
M  V30 8 C -0.011598 -2.654046 1.589545 0
M  V30 9 C 0.221323 -1.325813 1.879474 0
M  V30 10 F -0.559500 -0.776554 2.841003 0
M  V30 11 C 1.223605 -0.636545 1.184545 0
M  V30 12 N 1.352802 0.723183 1.586872 0
M  V30 13 C 0.567794 1.701485 0.904149 0
M  V30 14 O -0.215169 1.378096 -0.025819 0
M  V30 15 N 0.757983 3.038489 1.371672 0
M  V30 16 C -0.019843 4.081935 0.711304 0 CFG=2
M  V30 17 C 0.879211 5.180257 0.194545 0
M  V30 18 C -0.909890 4.711730 1.750539 0
M  V30 19 C -0.384036 5.040946 2.986808 0
M  V30 20 C -1.272049 5.621121 3.897555 0
M  V30 21 C -2.580001 5.851364 3.591192 0
M  V30 22 Cl -3.735088 6.574070 4.691027 0
M  V30 23 C -3.099229 5.518059 2.348757 0
M  V30 24 C -2.236627 4.941779 1.430594 0
M  V30 25 N 1.957788 -1.266301 0.236948 0
M  V30 26 C 1.752523 -2.569953 -0.069935 0
M  V30 27 C 0.771711 -3.242585 0.610832 0
M  V30 28 C 2.181422 -6.005885 -0.686091 0
M  V30 29 C 2.395607 -7.060310 -1.520483 0
M  V30 30 N 1.435810 -7.791090 -2.109692 0
M  V30 31 H -1.075253 -7.968536 -3.562108 0
M  V30 32 H -1.921889 -7.952447 -2.005140 0
M  V30 33 H -0.798497 -9.341948 -2.479417 0
M  V30 34 H -1.162451 -6.195298 -0.870137 0
M  V30 35 H -1.546234 -3.485087 2.739556 0
M  V30 36 H 2.031984 0.873578 2.368363 0
M  V30 37 H 1.417024 3.276375 2.146504 0
M  V30 38 H -0.635678 3.600996 -0.072971 0
M  V30 39 H 0.442453 6.204352 0.347781 0
M  V30 40 H 0.964121 5.080896 -0.906232 0
M  V30 41 H 1.875213 5.178657 0.670509 0
M  V30 42 H 0.650756 4.865279 3.247226 0
M  V30 43 H -0.938088 5.909138 4.891484 0
M  V30 44 H -4.104534 5.642628 1.974288 0
M  V30 45 H -2.566558 4.647371 0.423999 0
M  V30 46 H 2.362522 -3.033088 -0.833894 0
M  V30 47 H 2.933371 -5.401894 -0.199150 0
M  V30 48 H 3.425083 -7.324486 -1.719939 0
M  V30 END ATOM
M  V30 BEGIN BOND
M  V30 1 1 1 2
M  V30 2 2 2 3
M  V30 3 1 3 4
M  V30 4 1 4 5
M  V30 5 2 5 6
M  V30 6 1 6 7
M  V30 7 1 7 8
M  V30 8 2 8 9
M  V30 9 1 9 10
M  V30 10 1 9 11
M  V30 11 1 11 12
M  V30 12 1 12 13
M  V30 13 2 13 14
M  V30 14 1 13 15
M  V30 15 1 15 16
M  V30 16 1 16 17
M  V30 17 1 16 18
M  V30 18 2 18 19
M  V30 19 1 19 20
M  V30 20 2 20 21
M  V30 21 1 21 22
M  V30 22 1 21 23
M  V30 23 2 23 24
M  V30 24 2 11 25
M  V30 25 1 25 26
M  V30 26 2 26 27
M  V30 27 2 4 28
M  V30 28 1 28 29
M  V30 29 2 29 30
M  V30 30 1 30 2
M  V30 31 1 27 5
M  V30 32 1 27 8
M  V30 33 1 24 18
M  V30 34 1 1 31
M  V30 35 1 1 32
M  V30 36 1 1 33
M  V30 37 1 3 34
M  V30 38 1 7 35
M  V30 39 1 12 36
M  V30 40 1 15 37
M  V30 41 1 16 38 CFG=3
M  V30 42 1 17 39
M  V30 43 1 17 40
M  V30 44 1 17 41
M  V30 45 1 19 42
M  V30 46 1 20 43
M  V30 47 1 23 44
M  V30 48 1 24 45
M  V30 49 1 26 46
M  V30 50 1 28 47
M  V30 51 1 29 48
M  V30 END BOND
M  V30 END CTAB
M  END
>  <Dataset>  (367) 
ChEMBL_Kinases

>  <Ligand_Instance>  (367) 
nan

>  <PDB_ID>  (367) 
nan

>  <Standardized_SMILES>  (367) 
Cc1cc(-c2n[nH]c3c(F)c(NC(=O)N[C@H](C)c4ccc(Cl)cc4)ncc23)ccn1

>  <Name>  (367) 
nan

>  <Pocket>  (367) 
nan

>  <ATP_Site>  (367) 
nan

>  <Peripheral>  (367) 
nan

>  <Num_H_Atoms_ProtBoundConf>  (367) 
nan

>  <Num_Resolved_Atoms>  (367) 
nan

>  <Num_Not_Resolved_Atoms>  (367) 
nan

$$$$
CHEMBL3662988
     RDKit          3D

  0  0  0  0  0  0  0  0  0  0999 V3000
M  V30 BEGIN CTAB
M  V30 COUNTS 45 49 0 0 0
M  V30 BEGIN ATOM
M  V30 1 C -4.765414 -4.424177 -2.352573 0
M  V30 2 C -3.360397 -4.912469 -2.412541 0
M  V30 3 C -2.415769 -4.204704 -1.685804 0
M  V30 4 C -1.100121 -4.635358 -1.722308 0
M  V30 5 C -0.012250 -3.980602 -1.004049 0
M  V30 6 N 0.965506 -4.544141 -0.270758 0
M  V30 7 N 1.778916 -3.632060 0.234141 0
M  V30 8 C 1.350619 -2.405183 -0.161686 0
M  V30 9 C 1.857347 -1.146903 0.100329 0
M  V30 10 C 1.189956 -0.072952 -0.452657 0
M  V30 11 N 1.727205 1.221007 -0.171805 0
M  V30 12 C 1.319047 1.983191 0.959772 0
M  V30 13 O 0.441185 1.407394 1.686534 0
M  V30 14 N 1.805272 3.254583 1.291244 0
M  V30 15 C 1.327762 3.933135 2.450831 0
M  V30 16 N 0.291684 4.776344 2.595026 0
M  V30 17 N 0.170099 5.199841 3.835593 0
M  V30 18 C 1.140077 4.646316 4.589980 0
M  V30 19 C 1.492936 4.725688 5.922860 0
M  V30 20 C 2.563249 4.036908 6.461184 0
M  V30 21 C 3.265752 3.248460 5.546317 0
M  V30 22 C 2.954621 3.134965 4.207014 0
M  V30 23 C 1.875849 3.848564 3.737480 0
M  V30 24 N 0.077415 -0.248012 -1.224883 0
M  V30 25 C -0.398484 -1.500761 -1.465551 0
M  V30 26 C 0.223655 -2.630785 -0.940248 0
M  V30 27 C -0.773866 -5.761421 -2.486007 0
M  V30 28 C -1.768800 -6.433026 -3.196767 0
M  V30 29 N -3.049195 -5.994063 -3.146547 0
M  V30 30 H -4.931469 -3.855533 -1.420478 0
M  V30 31 H -4.978382 -3.730701 -3.188738 0
M  V30 32 H -5.463646 -5.282617 -2.456691 0
M  V30 33 H -2.659150 -3.333771 -1.093212 0
M  V30 34 H 2.623465 -3.797425 0.843059 0
M  V30 35 H 2.737450 -1.039239 0.713563 0
M  V30 36 H 2.443839 1.727821 -0.736754 0
M  V30 37 H 2.530514 3.697322 0.665440 0
M  V30 38 H -0.513563 5.846893 4.272543 0
M  V30 39 H 0.930984 5.344596 6.610219 0
M  V30 40 H 2.861065 4.081046 7.499962 0
M  V30 41 H 4.111876 2.700303 5.958109 0
M  V30 42 H 3.574059 2.489530 3.588037 0
M  V30 43 H -1.284503 -1.626125 -2.081614 0
M  V30 44 H 0.221621 -6.178528 -2.581187 0
M  V30 45 H -1.549182 -7.306355 -3.796232 0
M  V30 END ATOM
M  V30 BEGIN BOND
M  V30 1 1 1 2
M  V30 2 2 2 3
M  V30 3 1 3 4
M  V30 4 1 4 5
M  V30 5 2 5 6
M  V30 6 1 6 7
M  V30 7 1 7 8
M  V30 8 2 8 9
M  V30 9 1 9 10
M  V30 10 1 10 11
M  V30 11 1 11 12
M  V30 12 2 12 13
M  V30 13 1 12 14
M  V30 14 1 14 15
M  V30 15 2 15 16
M  V30 16 1 16 17
M  V30 17 1 17 18
M  V30 18 2 18 19
M  V30 19 1 19 20
M  V30 20 2 20 21
M  V30 21 1 21 22
M  V30 22 2 22 23
M  V30 23 2 10 24
M  V30 24 1 24 25
M  V30 25 2 25 26
M  V30 26 2 4 27
M  V30 27 1 27 28
M  V30 28 2 28 29
M  V30 29 1 29 2
M  V30 30 1 26 5
M  V30 31 1 26 8
M  V30 32 1 23 15
M  V30 33 1 23 18
M  V30 34 1 1 30
M  V30 35 1 1 31
M  V30 36 1 1 32
M  V30 37 1 3 33
M  V30 38 1 7 34
M  V30 39 1 9 35
M  V30 40 1 11 36
M  V30 41 1 14 37
M  V30 42 1 17 38
M  V30 43 1 19 39
M  V30 44 1 20 40
M  V30 45 1 21 41
M  V30 46 1 22 42
M  V30 47 1 25 43
M  V30 48 1 27 44
M  V30 49 1 28 45
M  V30 END BOND
M  V30 END CTAB
M  END
>  <Dataset>  (368) 
ChEMBL_Kinases

>  <Ligand_Instance>  (368) 
nan

>  <PDB_ID>  (368) 
nan

>  <Standardized_SMILES>  (368) 
Cc1cc(-c2n[nH]c3cc(NC(=O)Nc4n[nH]c5ccccc45)ncc23)ccn1

>  <Name>  (368) 
nan

>  <Pocket>  (368) 
nan

>  <ATP_Site>  (368) 
nan

>  <Peripheral>  (368) 
nan

>  <Num_H_Atoms_ProtBoundConf>  (368) 
nan

>  <Num_Resolved_Atoms>  (368) 
nan

>  <Num_Not_Resolved_Atoms>  (368) 
nan

$$$$
CHEMBL3662987
     RDKit          3D

  0  0  0  0  0  0  0  0  0  0999 V3000
M  V30 BEGIN CTAB
M  V30 COUNTS 50 54 0 0 0
M  V30 BEGIN ATOM
M  V30 1 C 1.552099 -8.149327 -1.389852 0
M  V30 2 C 2.406494 -7.044542 -1.907852 0
M  V30 3 C 1.928058 -5.755872 -1.994609 0
M  V30 4 C 2.671004 -4.694847 -2.464836 0
M  V30 5 C 2.167805 -3.326799 -2.558621 0
M  V30 6 N 2.288529 -2.439879 -3.583200 0
M  V30 7 N 1.702547 -1.297916 -3.303605 0
M  V30 8 C 1.183609 -1.434049 -2.067284 0
M  V30 9 C 0.472686 -0.486429 -1.351005 0
M  V30 10 C 0.023747 -0.840393 -0.078096 0
M  V30 11 N -0.719873 0.001773 0.799964 0
M  V30 12 C -0.206134 0.880838 1.762573 0
M  V30 13 O 1.026139 0.880817 1.806775 0
M  V30 14 N -1.153632 1.595409 2.496105 0
M  V30 15 C -0.868445 2.550519 3.532210 0
M  V30 16 C -1.500586 2.245810 4.854973 0
M  V30 17 C -3.000614 2.079544 4.772711 0
M  V30 18 O -3.563384 2.860442 3.733384 0
M  V30 19 C -2.869007 3.946103 3.183555 0
M  V30 20 C -3.530748 5.071513 2.784643 0
M  V30 21 C -2.837295 6.157446 2.234689 0
M  V30 22 C -1.469220 5.997913 2.133364 0
M  V30 23 C -0.784044 4.865021 2.532602 0
M  V30 24 C -1.488722 3.823543 3.064911 0
M  V30 25 N 0.311209 -2.076925 0.367600 0
M  V30 26 C 0.989723 -3.003343 -0.297101 0
M  V30 27 C 1.443748 -2.686400 -1.549128 0
M  V30 28 C 3.960534 -5.013242 -2.854325 0
M  V30 29 C 4.463385 -6.316206 -2.773343 0
M  V30 30 N 3.675457 -7.302349 -2.302094 0
M  V30 31 H 1.346754 -8.931475 -2.135280 0
M  V30 32 H 0.608862 -7.712170 -0.994840 0
M  V30 33 H 2.056580 -8.609716 -0.503940 0
M  V30 34 H 0.910269 -5.581459 -1.672189 0
M  V30 35 H 1.656088 -0.451930 -3.932298 0
M  V30 36 H 0.225802 0.516751 -1.683105 0
M  V30 37 H -1.727213 -0.211362 0.534903 0
M  V30 38 H -2.184363 1.502473 2.359357 0
M  V30 39 H 0.213244 2.675074 3.703701 0
M  V30 40 H -1.014224 1.407975 5.392976 0
M  V30 41 H -1.321114 3.139458 5.492832 0
M  V30 42 H -3.532474 2.369542 5.703487 0
M  V30 43 H -3.285574 1.002828 4.606360 0
M  V30 44 H -4.608246 5.161257 2.879811 0
M  V30 45 H -3.381077 7.023039 1.932218 0
M  V30 46 H -0.910036 6.838497 1.704834 0
M  V30 47 H 0.290333 4.764832 2.442238 0
M  V30 48 H 1.200151 -3.988274 0.098085 0
M  V30 49 H 4.600650 -4.207355 -3.238139 0
M  V30 50 H 5.482037 -6.437594 -3.106854 0
M  V30 END ATOM
M  V30 BEGIN BOND
M  V30 1 1 1 2
M  V30 2 2 2 3
M  V30 3 1 3 4
M  V30 4 1 4 5
M  V30 5 2 5 6
M  V30 6 1 6 7
M  V30 7 1 7 8
M  V30 8 2 8 9
M  V30 9 1 9 10
M  V30 10 1 10 11
M  V30 11 1 11 12
M  V30 12 2 12 13
M  V30 13 1 12 14
M  V30 14 1 14 15
M  V30 15 1 15 16
M  V30 16 1 16 17
M  V30 17 1 17 18
M  V30 18 1 18 19
M  V30 19 2 19 20
M  V30 20 1 20 21
M  V30 21 2 21 22
M  V30 22 1 22 23
M  V30 23 2 23 24
M  V30 24 2 10 25
M  V30 25 1 25 26
M  V30 26 2 26 27
M  V30 27 2 4 28
M  V30 28 1 28 29
M  V30 29 2 29 30
M  V30 30 1 30 2
M  V30 31 1 27 5
M  V30 32 1 27 8
M  V30 33 1 24 15
M  V30 34 1 24 19
M  V30 35 1 1 31
M  V30 36 1 1 32
M  V30 37 1 1 33
M  V30 38 1 3 34
M  V30 39 1 7 35
M  V30 40 1 9 36
M  V30 41 1 11 37
M  V30 42 1 14 38
M  V30 43 1 15 39
M  V30 44 1 16 40
M  V30 45 1 16 41
M  V30 46 1 17 42
M  V30 47 1 17 43
M  V30 48 1 20 44
M  V30 49 1 21 45
M  V30 50 1 22 46
M  V30 51 1 23 47
M  V30 52 1 26 48
M  V30 53 1 28 49
M  V30 54 1 29 50
M  V30 END BOND
M  V30 END CTAB
M  END
>  <Dataset>  (369) 
ChEMBL_Kinases

>  <Ligand_Instance>  (369) 
nan

>  <PDB_ID>  (369) 
nan

>  <Standardized_SMILES>  (369) 
Cc1cc(-c2n[nH]c3cc(NC(=O)NC4CCOc5ccccc54)ncc23)ccn1

>  <Name>  (369) 
nan

>  <Pocket>  (369) 
nan

>  <ATP_Site>  (369) 
nan

>  <Peripheral>  (369) 
nan

>  <Num_H_Atoms_ProtBoundConf>  (369) 
nan

>  <Num_Resolved_Atoms>  (369) 
nan

>  <Num_Not_Resolved_Atoms>  (369) 
nan

$$$$
CHEMBL3662986
     RDKit          3D

  0  0  0  0  0  0  0  0  0  0999 V3000
M  V30 BEGIN CTAB
M  V30 COUNTS 59 63 0 0 0
M  V30 BEGIN ATOM
M  V30 1 C 6.527983 -4.854335 4.580267 0
M  V30 2 C 5.328193 -4.247654 5.254540 0
M  V30 3 C 4.786806 -3.147489 4.590722 0
M  V30 4 C 3.686587 -2.547403 5.157803 0
M  V30 5 C 2.983862 -1.383035 4.604872 0
M  V30 6 N 2.603463 -0.332906 5.374812 0
M  V30 7 N 1.989802 0.584704 4.639561 0
M  V30 8 C 1.964213 0.134243 3.364407 0
M  V30 9 C 1.481991 0.602605 2.143185 0
M  V30 10 C 1.631786 -0.147881 0.981950 0
M  V30 11 N 1.091995 0.450880 -0.195527 0
M  V30 12 C -0.277257 0.149470 -0.503415 0
M  V30 13 O -0.955238 -0.606718 0.237395 0
M  V30 14 N -0.873809 0.713427 -1.660822 0
M  V30 15 C -2.260804 0.409316 -1.974696 0 CFG=1
M  V30 16 C -3.109023 1.614470 -1.966185 0
M  V30 17 C -2.658213 2.773280 -2.593313 0
M  V30 18 C -3.426998 3.918585 -2.603968 0
M  V30 19 C -4.654579 3.903869 -1.983077 0
M  V30 20 C -5.167592 2.775827 -1.335395 0
M  V30 21 C -4.349590 1.661159 -1.360028 0
M  V30 22 C -2.298658 -0.320465 -3.295358 0
M  V30 23 O -1.761591 0.443336 -4.325158 0
M  V30 24 C -1.421341 -1.550117 -3.176773 0
M  V30 25 C -2.355528 -2.630554 -2.699367 0
M  V30 26 C -3.625075 -2.337438 -3.433492 0
M  V30 27 C -3.658607 -0.855847 -3.625525 0
M  V30 28 N 2.248286 -1.346865 1.014833 0
M  V30 29 C 2.740072 -1.863582 2.160820 0
M  V30 30 C 2.583358 -1.105586 3.306541 0
M  V30 31 C 3.191606 -3.066568 6.337356 0
M  V30 32 C 3.756103 -4.157524 6.963674 0
M  V30 33 N 4.833605 -4.738694 6.400668 0
M  V30 34 H 7.405195 -4.211467 4.829276 0
M  V30 35 H 6.745045 -5.876827 4.951505 0
M  V30 36 H 6.386733 -4.834918 3.477414 0
M  V30 37 H 5.162797 -2.736796 3.675542 0
M  V30 38 H 1.586538 1.495925 4.941070 0
M  V30 39 H 0.989174 1.571325 2.142988 0
M  V30 40 H 1.655836 1.078899 -0.810371 0
M  V30 41 H -0.283381 1.336332 -2.253363 0
M  V30 42 H -2.621508 -0.269473 -1.175220 0
M  V30 43 H -1.714751 2.829381 -3.086001 0
M  V30 44 H -3.069324 4.813678 -3.093106 0
M  V30 45 H -5.244275 4.808081 -2.000156 0
M  V30 46 H -6.134095 2.765839 -0.847117 0
M  V30 47 H -4.699116 0.759924 -0.872873 0
M  V30 48 H -2.485352 0.555487 -5.004664 0
M  V30 49 H -0.644376 -1.377900 -2.402592 0
M  V30 50 H -0.969918 -1.801808 -4.160867 0
M  V30 51 H -2.511750 -2.471103 -1.613371 0
M  V30 52 H -1.965307 -3.651015 -2.927348 0
M  V30 53 H -4.545286 -2.716964 -2.919981 0
M  V30 54 H -3.564623 -2.897461 -4.406311 0
M  V30 55 H -4.468738 -0.360137 -3.057597 0
M  V30 56 H -3.858549 -0.645874 -4.701748 0
M  V30 57 H 3.233502 -2.824537 2.183820 0
M  V30 58 H 2.318928 -2.662266 6.871094 0
M  V30 59 H 3.389662 -4.585769 7.888217 0
M  V30 END ATOM
M  V30 BEGIN BOND
M  V30 1 1 1 2
M  V30 2 2 2 3
M  V30 3 1 3 4
M  V30 4 1 4 5
M  V30 5 2 5 6
M  V30 6 1 6 7
M  V30 7 1 7 8
M  V30 8 2 8 9
M  V30 9 1 9 10
M  V30 10 1 10 11
M  V30 11 1 11 12
M  V30 12 2 12 13
M  V30 13 1 12 14
M  V30 14 1 14 15
M  V30 15 1 15 16
M  V30 16 2 16 17
M  V30 17 1 17 18
M  V30 18 2 18 19
M  V30 19 1 19 20
M  V30 20 2 20 21
M  V30 21 1 15 22
M  V30 22 1 22 23
M  V30 23 1 22 24
M  V30 24 1 24 25
M  V30 25 1 25 26
M  V30 26 1 26 27
M  V30 27 2 10 28
M  V30 28 1 28 29
M  V30 29 2 29 30
M  V30 30 2 4 31
M  V30 31 1 31 32
M  V30 32 2 32 33
M  V30 33 1 33 2
M  V30 34 1 30 5
M  V30 35 1 30 8
M  V30 36 1 21 16
M  V30 37 1 27 22
M  V30 38 1 1 34
M  V30 39 1 1 35
M  V30 40 1 1 36
M  V30 41 1 3 37
M  V30 42 1 7 38
M  V30 43 1 9 39
M  V30 44 1 11 40
M  V30 45 1 14 41
M  V30 46 1 15 42 CFG=1
M  V30 47 1 17 43
M  V30 48 1 18 44
M  V30 49 1 19 45
M  V30 50 1 20 46
M  V30 51 1 21 47
M  V30 52 1 23 48
M  V30 53 1 24 49
M  V30 54 1 24 50
M  V30 55 1 25 51
M  V30 56 1 25 52
M  V30 57 1 26 53
M  V30 58 1 26 54
M  V30 59 1 27 55
M  V30 60 1 27 56
M  V30 61 1 29 57
M  V30 62 1 31 58
M  V30 63 1 32 59
M  V30 END BOND
M  V30 END CTAB
M  END
>  <Dataset>  (370) 
ChEMBL_Kinases

>  <Ligand_Instance>  (370) 
nan

>  <PDB_ID>  (370) 
nan

>  <Standardized_SMILES>  (370) 
Cc1cc(-c2n[nH]c3cc(NC(=O)N[C@@H](c4ccccc4)C4(O)CCCC4)ncc23)ccn1

>  <Name>  (370) 
nan

>  <Pocket>  (370) 
nan

>  <ATP_Site>  (370) 
nan

>  <Peripheral>  (370) 
nan

>  <Num_H_Atoms_ProtBoundConf>  (370) 
nan

>  <Num_Resolved_Atoms>  (370) 
nan

>  <Num_Not_Resolved_Atoms>  (370) 
nan

$$$$
CHEMBL3662985
     RDKit          3D

  0  0  0  0  0  0  0  0  0  0999 V3000
M  V30 BEGIN CTAB
M  V30 COUNTS 57 61 0 0 0
M  V30 BEGIN ATOM
M  V30 1 C 5.335608 -7.109528 3.854527 0
M  V30 2 C 5.385902 -6.063979 2.784867 0
M  V30 3 C 4.845772 -4.830524 3.000915 0
M  V30 4 C 4.911733 -3.878115 1.976867 0
M  V30 5 C 4.317001 -2.574262 2.263930 0
M  V30 6 N 4.457092 -1.833613 3.396193 0
M  V30 7 N 3.773462 -0.700499 3.307517 0
M  V30 8 C 3.191051 -0.729262 2.093537 0
M  V30 9 C 2.371353 0.237904 1.538903 0
M  V30 10 C 1.871573 0.015324 0.270542 0
M  V30 11 N 1.015148 0.842986 -0.518272 0
M  V30 12 C -0.368666 0.569416 -0.305156 0
M  V30 13 O -0.831510 -0.292664 0.477723 0
M  V30 14 N -1.345923 1.314779 -1.021358 0
M  V30 15 C -2.751277 1.115577 -0.877476 0
M  V30 16 C -3.416938 2.305382 -0.283717 0
M  V30 17 C -2.773094 3.278298 0.453094 0
M  V30 18 C -3.474330 4.349752 0.966229 0
M  V30 19 C -4.834705 4.458241 0.745459 0
M  V30 20 C -5.477752 3.490624 0.012087 0
M  V30 21 C -4.784694 2.410488 -0.508136 0
M  V30 22 O -5.534437 1.508263 -1.223706 0
M  V30 23 C -4.904489 0.413005 -1.842259 0
M  V30 24 C -5.056047 -0.863722 -1.061601 0
M  V30 25 C -5.629588 0.198891 -3.171189 0
M  V30 26 C -3.433718 0.629852 -2.118155 0
M  V30 27 O -2.922373 -0.636212 -2.423613 0
M  V30 28 N 2.174728 -1.114974 -0.409092 0
M  V30 29 C 2.983038 -2.071321 0.134833 0
M  V30 30 C 3.496884 -1.881640 1.394036 0
M  V30 31 C 5.521305 -4.206151 0.770694 0
M  V30 32 C 6.046521 -5.486377 0.633716 0
M  V30 33 N 5.985813 -6.405739 1.614921 0
M  V30 34 H 6.009688 -7.950250 3.638216 0
M  V30 35 H 4.283792 -7.431496 3.967317 0
M  V30 36 H 5.620758 -6.627076 4.823671 0
M  V30 37 H 4.379259 -4.633108 3.972531 0
M  V30 38 H 3.707726 0.044124 4.026930 0
M  V30 39 H 2.050462 1.174856 1.961152 0
M  V30 40 H 1.346827 1.575871 -1.185598 0
M  V30 41 H -0.986451 2.051095 -1.691071 0
M  V30 42 H -2.879561 0.292107 -0.120353 0
M  V30 43 H -1.703257 3.160465 0.606636 0
M  V30 44 H -2.960452 5.107718 1.542854 0
M  V30 45 H -5.404125 5.301237 1.145442 0
M  V30 46 H -6.551939 3.608990 -0.142050 0
M  V30 47 H -4.952395 -0.724545 0.031663 0
M  V30 48 H -6.003821 -1.390113 -1.256263 0
M  V30 49 H -4.235154 -1.550956 -1.353170 0
M  V30 50 H -5.814614 1.178332 -3.667367 0
M  V30 51 H -6.607111 -0.283638 -2.895783 0
M  V30 52 H -5.094279 -0.504416 -3.819351 0
M  V30 53 H -3.382961 1.335443 -2.960832 0
M  V30 54 H -2.228971 -0.529703 -3.142744 0
M  V30 55 H 3.237198 -2.982601 -0.393328 0
M  V30 56 H 5.558200 -3.451656 -0.002644 0
M  V30 57 H 6.528755 -5.744629 -0.321628 0
M  V30 END ATOM
M  V30 BEGIN BOND
M  V30 1 1 1 2
M  V30 2 2 2 3
M  V30 3 1 3 4
M  V30 4 1 4 5
M  V30 5 2 5 6
M  V30 6 1 6 7
M  V30 7 1 7 8
M  V30 8 2 8 9
M  V30 9 1 9 10
M  V30 10 1 10 11
M  V30 11 1 11 12
M  V30 12 2 12 13
M  V30 13 1 12 14
M  V30 14 1 14 15
M  V30 15 1 15 16
M  V30 16 2 16 17
M  V30 17 1 17 18
M  V30 18 2 18 19
M  V30 19 1 19 20
M  V30 20 2 20 21
M  V30 21 1 21 22
M  V30 22 1 22 23
M  V30 23 1 23 24
M  V30 24 1 23 25
M  V30 25 1 23 26
M  V30 26 1 26 27
M  V30 27 2 10 28
M  V30 28 1 28 29
M  V30 29 2 29 30
M  V30 30 2 4 31
M  V30 31 1 31 32
M  V30 32 2 32 33
M  V30 33 1 33 2
M  V30 34 1 30 5
M  V30 35 1 30 8
M  V30 36 1 26 15
M  V30 37 1 21 16
M  V30 38 1 1 34
M  V30 39 1 1 35
M  V30 40 1 1 36
M  V30 41 1 3 37
M  V30 42 1 7 38
M  V30 43 1 9 39
M  V30 44 1 11 40
M  V30 45 1 14 41
M  V30 46 1 15 42
M  V30 47 1 17 43
M  V30 48 1 18 44
M  V30 49 1 19 45
M  V30 50 1 20 46
M  V30 51 1 24 47
M  V30 52 1 24 48
M  V30 53 1 24 49
M  V30 54 1 25 50
M  V30 55 1 25 51
M  V30 56 1 25 52
M  V30 57 1 26 53
M  V30 58 1 27 54
M  V30 59 1 29 55
M  V30 60 1 31 56
M  V30 61 1 32 57
M  V30 END BOND
M  V30 END CTAB
M  END
>  <Dataset>  (371) 
ChEMBL_Kinases

>  <Ligand_Instance>  (371) 
nan

>  <PDB_ID>  (371) 
nan

>  <Standardized_SMILES>  (371) 
Cc1cc(-c2n[nH]c3cc(NC(=O)NC4c5ccccc5OC(C)(C)C4O)ncc23)ccn1

>  <Name>  (371) 
nan

>  <Pocket>  (371) 
nan

>  <ATP_Site>  (371) 
nan

>  <Peripheral>  (371) 
nan

>  <Num_H_Atoms_ProtBoundConf>  (371) 
nan

>  <Num_Resolved_Atoms>  (371) 
nan

>  <Num_Not_Resolved_Atoms>  (371) 
nan

$$$$
CHEMBL3662984
     RDKit          3D

  0  0  0  0  0  0  0  0  0  0999 V3000
M  V30 BEGIN CTAB
M  V30 COUNTS 49 52 0 0 0
M  V30 BEGIN ATOM
M  V30 1 C -2.380674 -3.741692 -3.829707 0
M  V30 2 O -3.300604 -2.727454 -3.504720 0
M  V30 3 C -3.588515 -1.764069 -4.452619 0
M  V30 4 C -3.057077 -1.691890 -5.720364 0
M  V30 5 C -3.388304 -0.707175 -6.625232 0
M  V30 6 C -4.290155 0.219543 -6.201556 0
M  V30 7 C -4.830525 0.153773 -4.922744 0
M  V30 8 C -4.487549 -0.853219 -4.004419 0
M  V30 9 C -5.195517 -0.622215 -2.724217 0
M  V30 10 N -4.393959 0.108023 -1.778695 0
M  V30 11 C -3.214833 0.027649 -1.028748 0
M  V30 12 O -2.576711 -1.038273 -1.172155 0
M  V30 13 N -2.729363 1.038477 -0.159779 0
M  V30 14 C -1.493680 0.722402 0.506813 0
M  V30 15 C -1.399834 0.110340 1.742333 0
M  V30 16 C -0.139814 -0.135148 2.251821 0
M  V30 17 N 0.242601 -0.704692 3.410229 0
M  V30 18 N 1.561993 -0.741821 3.502712 0
M  V30 19 C 2.125515 -0.189751 2.391757 0
M  V30 20 C 3.523698 0.003828 2.022377 0
M  V30 21 C 3.994444 -0.313454 0.754497 0
M  V30 22 C 5.288814 -0.164820 0.309630 0
M  V30 23 N 6.151797 0.337389 1.213129 0
M  V30 24 C 5.803321 0.678170 2.466738 0
M  V30 25 C 6.840277 1.226906 3.379170 0
M  V30 26 C 4.498381 0.511860 2.866893 0
M  V30 27 C 1.038255 0.189146 1.610727 0
M  V30 28 C 0.868257 0.800104 0.376722 0
M  V30 29 N -0.357194 1.048413 -0.137751 0
M  V30 30 H -2.784793 -4.347299 -4.661654 0
M  V30 31 H -2.051787 -4.335002 -2.953995 0
M  V30 32 H -1.471117 -3.229966 -4.237119 0
M  V30 33 H -2.342662 -2.493901 -5.943891 0
M  V30 34 H -2.940674 -0.701968 -7.598950 0
M  V30 35 H -4.543481 0.987562 -6.921449 0
M  V30 36 H -5.538493 0.980782 -4.754218 0
M  V30 37 H -5.380139 -1.639874 -2.214142 0
M  V30 38 H -6.194804 -0.221325 -2.845259 0
M  V30 39 H -4.868570 1.049054 -1.580338 0
M  V30 40 H -3.267776 1.916898 -0.050694 0
M  V30 41 H -2.319113 -0.142577 2.243597 0
M  V30 42 H -0.429281 -1.072124 4.146372 0
M  V30 43 H 3.291147 -0.723946 0.018580 0
M  V30 44 H 5.559827 -0.442786 -0.701529 0
M  V30 45 H 7.834664 0.906014 3.020335 0
M  V30 46 H 6.721481 0.813433 4.399309 0
M  V30 47 H 6.837942 2.336410 3.384319 0
M  V30 48 H 4.185791 0.778276 3.875410 0
M  V30 49 H 1.736295 1.085724 -0.187495 0
M  V30 END ATOM
M  V30 BEGIN BOND
M  V30 1 1 1 2
M  V30 2 1 2 3
M  V30 3 2 3 4
M  V30 4 1 4 5
M  V30 5 2 5 6
M  V30 6 1 6 7
M  V30 7 2 7 8
M  V30 8 1 8 9
M  V30 9 1 9 10
M  V30 10 1 10 11
M  V30 11 2 11 12
M  V30 12 1 11 13
M  V30 13 1 13 14
M  V30 14 2 14 15
M  V30 15 1 15 16
M  V30 16 1 16 17
M  V30 17 1 17 18
M  V30 18 2 18 19
M  V30 19 1 19 20
M  V30 20 2 20 21
M  V30 21 1 21 22
M  V30 22 2 22 23
M  V30 23 1 23 24
M  V30 24 1 24 25
M  V30 25 2 24 26
M  V30 26 1 19 27
M  V30 27 1 27 28
M  V30 28 2 28 29
M  V30 29 1 8 3
M  V30 30 1 29 14
M  V30 31 2 27 16
M  V30 32 1 26 20
M  V30 33 1 1 30
M  V30 34 1 1 31
M  V30 35 1 1 32
M  V30 36 1 4 33
M  V30 37 1 5 34
M  V30 38 1 6 35
M  V30 39 1 7 36
M  V30 40 1 9 37
M  V30 41 1 9 38
M  V30 42 1 10 39
M  V30 43 1 13 40
M  V30 44 1 15 41
M  V30 45 1 17 42
M  V30 46 1 21 43
M  V30 47 1 22 44
M  V30 48 1 25 45
M  V30 49 1 25 46
M  V30 50 1 25 47
M  V30 51 1 26 48
M  V30 52 1 28 49
M  V30 END BOND
M  V30 END CTAB
M  END
>  <Dataset>  (372) 
ChEMBL_Kinases

>  <Ligand_Instance>  (372) 
nan

>  <PDB_ID>  (372) 
nan

>  <Standardized_SMILES>  (372) 
COc1ccccc1CNC(=O)Nc1cc2[nH]nc(-c3ccnc(C)c3)c2cn1

>  <Name>  (372) 
nan

>  <Pocket>  (372) 
nan

>  <ATP_Site>  (372) 
nan

>  <Peripheral>  (372) 
nan

>  <Num_H_Atoms_ProtBoundConf>  (372) 
nan

>  <Num_Resolved_Atoms>  (372) 
nan

>  <Num_Not_Resolved_Atoms>  (372) 
nan

$$$$
CHEMBL3662983
     RDKit          3D

  0  0  0  0  0  0  0  0  0  0999 V3000
M  V30 BEGIN CTAB
M  V30 COUNTS 49 52 0 0 0
M  V30 BEGIN ATOM
M  V30 1 C -1.323644 -7.221197 -0.412273 0
M  V30 2 C -0.486970 -6.670610 -1.509025 0
M  V30 3 C 0.176835 -5.448081 -1.398179 0
M  V30 4 C 0.960289 -4.911573 -2.399082 0
M  V30 5 C 1.639614 -3.629224 -2.246613 0
M  V30 6 N 2.924592 -3.348165 -2.582551 0
M  V30 7 N 3.202411 -2.066040 -2.299600 0
M  V30 8 C 2.096121 -1.505585 -1.776760 0
M  V30 9 C 1.845972 -0.225274 -1.322676 0
M  V30 10 C 0.597561 0.096397 -0.823145 0
M  V30 11 N 0.183713 1.363826 -0.319560 0
M  V30 12 C 0.310074 1.742225 1.042666 0
M  V30 13 O 0.818527 0.879288 1.798753 0
M  V30 14 N -0.083058 2.976464 1.581206 0
M  V30 15 C 0.085908 3.263349 2.968636 0
M  V30 16 C 1.087391 4.394092 3.090849 0
M  V30 17 C -1.130219 3.614373 3.744266 0
M  V30 18 C -2.177572 2.530618 3.750476 0
M  V30 19 C -2.843922 2.772073 5.085920 0
M  V30 20 O -1.904837 3.344617 5.914343 0
M  V30 21 C -0.724970 3.517120 5.226280 0
M  V30 22 N -0.376289 -0.859890 -0.784952 0
M  V30 23 C -0.131132 -2.113573 -1.229659 0
M  V30 24 C 1.104405 -2.465362 -1.733766 0
M  V30 25 C 1.065785 -5.655754 -3.553266 0
M  V30 26 C 0.390224 -6.875853 -3.636007 0
M  V30 27 N -0.369359 -7.375589 -2.640099 0
M  V30 28 H -1.131511 -8.307182 -0.229558 0
M  V30 29 H -2.383433 -7.122565 -0.712986 0
M  V30 30 H -1.185562 -6.641286 0.534155 0
M  V30 31 H 0.039725 -4.930105 -0.459046 0
M  V30 32 H 4.118384 -1.591566 -2.459254 0
M  V30 33 H 2.568698 0.570141 -1.326069 0
M  V30 34 H -0.249930 2.134954 -0.894793 0
M  V30 35 H -0.509615 3.685688 0.917838 0
M  V30 36 H 0.548936 2.373049 3.448355 0
M  V30 37 H 1.775738 4.262387 3.946703 0
M  V30 38 H 0.583690 5.378740 3.072849 0
M  V30 39 H 1.747756 4.388136 2.190083 0
M  V30 40 H -1.521428 4.622721 3.630714 0
M  V30 41 H -2.938146 2.599671 2.977288 0
M  V30 42 H -1.636265 1.552639 3.745847 0
M  V30 43 H -3.657005 3.526668 4.960696 0
M  V30 44 H -3.337815 1.873205 5.473322 0
M  V30 45 H -0.247109 4.457091 5.573115 0
M  V30 46 H -0.094634 2.620074 5.406815 0
M  V30 47 H -0.918228 -2.854403 -1.189466 0
M  V30 48 H 1.651592 -5.314018 -4.375870 0
M  V30 49 H 0.431615 -7.514161 -4.521318 0
M  V30 END ATOM
M  V30 BEGIN BOND
M  V30 1 1 1 2
M  V30 2 2 2 3
M  V30 3 1 3 4
M  V30 4 1 4 5
M  V30 5 2 5 6
M  V30 6 1 6 7
M  V30 7 1 7 8
M  V30 8 2 8 9
M  V30 9 1 9 10
M  V30 10 1 10 11
M  V30 11 1 11 12
M  V30 12 2 12 13
M  V30 13 1 12 14
M  V30 14 1 14 15
M  V30 15 1 15 16
M  V30 16 1 15 17
M  V30 17 1 17 18
M  V30 18 1 18 19
M  V30 19 1 19 20
M  V30 20 1 20 21
M  V30 21 2 10 22
M  V30 22 1 22 23
M  V30 23 2 23 24
M  V30 24 2 4 25
M  V30 25 1 25 26
M  V30 26 2 26 27
M  V30 27 1 27 2
M  V30 28 1 24 5
M  V30 29 1 24 8
M  V30 30 1 21 17
M  V30 31 1 1 28
M  V30 32 1 1 29
M  V30 33 1 1 30
M  V30 34 1 3 31
M  V30 35 1 7 32
M  V30 36 1 9 33
M  V30 37 1 11 34
M  V30 38 1 14 35
M  V30 39 1 15 36
M  V30 40 1 16 37
M  V30 41 1 16 38
M  V30 42 1 16 39
M  V30 43 1 17 40
M  V30 44 1 18 41
M  V30 45 1 18 42
M  V30 46 1 19 43
M  V30 47 1 19 44
M  V30 48 1 21 45
M  V30 49 1 21 46
M  V30 50 1 23 47
M  V30 51 1 25 48
M  V30 52 1 26 49
M  V30 END BOND
M  V30 END CTAB
M  END
>  <Dataset>  (373) 
ChEMBL_Kinases

>  <Ligand_Instance>  (373) 
nan

>  <PDB_ID>  (373) 
nan

>  <Standardized_SMILES>  (373) 
Cc1cc(-c2n[nH]c3cc(NC(=O)NC(C)C4CCOC4)ncc23)ccn1

>  <Name>  (373) 
nan

>  <Pocket>  (373) 
nan

>  <ATP_Site>  (373) 
nan

>  <Peripheral>  (373) 
nan

>  <Num_H_Atoms_ProtBoundConf>  (373) 
nan

>  <Num_Resolved_Atoms>  (373) 
nan

>  <Num_Not_Resolved_Atoms>  (373) 
nan

$$$$
CHEMBL3662965
     RDKit          3D

  0  0  0  0  0  0  0  0  0  0999 V3000
M  V30 BEGIN CTAB
M  V30 COUNTS 47 50 0 0 0
M  V30 BEGIN ATOM
M  V30 1 C -0.954224 -5.964051 4.705435 0
M  V30 2 C -0.536659 -6.338553 3.323752 0
M  V30 3 C 0.066500 -5.395806 2.515434 0
M  V30 4 C 0.478234 -5.684922 1.217288 0
M  V30 5 C 1.118161 -4.703276 0.344868 0
M  V30 6 N 2.205296 -4.880180 -0.430138 0
M  V30 7 N 2.521699 -3.787458 -1.094301 0
M  V30 8 C 1.604999 -2.865321 -0.737094 0
M  V30 9 C 1.496213 -1.549672 -1.157075 0
M  V30 10 C 0.466358 -0.773085 -0.656348 0
M  V30 11 N 0.169533 0.591060 -0.949091 0
M  V30 12 C 0.699707 1.677442 -0.215923 0
M  V30 13 O 1.469615 1.418412 0.739089 0
M  V30 14 N 0.322045 2.982701 -0.614014 0
M  V30 15 C 0.784372 4.198326 0.041423 0
M  V30 16 C -0.391666 4.856795 0.671617 0
M  V30 17 C -0.375771 5.376142 1.967972 0
M  V30 18 C -1.519001 5.973473 2.474876 0
M  V30 19 C -2.677684 6.058859 1.704084 0
M  V30 20 N -2.668872 5.551640 0.458618 0
M  V30 21 C -1.552521 4.962248 -0.051446 0
M  V30 22 C 1.534907 5.119115 -0.875587 0
M  V30 23 F 1.922567 6.241876 -0.131376 0
M  V30 24 F 0.811334 5.583150 -1.927730 0
M  V30 25 N -0.409249 -1.319935 0.232095 0
M  V30 26 C -0.292938 -2.611118 0.636863 0
M  V30 27 C 0.706916 -3.402892 0.165221 0
M  V30 28 C 0.247297 -6.982954 0.776877 0
M  V30 29 C -0.358262 -7.902246 1.610180 0
M  V30 30 N -0.746520 -7.602384 2.856105 0
M  V30 31 H -1.590128 -6.766400 5.121721 0
M  V30 32 H -1.482221 -4.995572 4.751397 0
M  V30 33 H -0.062928 -5.891825 5.361299 0
M  V30 34 H 0.223665 -4.399998 2.905122 0
M  V30 35 H 3.312023 -3.654284 -1.758059 0
M  V30 36 H 2.137647 -1.034728 -1.851744 0
M  V30 37 H -0.479596 0.758454 -1.757338 0
M  V30 38 H -0.337273 3.117094 -1.437115 0
M  V30 39 H 1.462339 3.939151 0.880487 0
M  V30 40 H 0.546679 5.293187 2.544625 0
M  V30 41 H -1.486091 6.372013 3.487241 0
M  V30 42 H -3.570736 6.525684 2.100563 0
M  V30 43 H -1.686223 4.600305 -1.058809 0
M  V30 44 H 2.466130 4.598997 -1.178162 0
M  V30 45 H -1.001994 -3.036622 1.349670 0
M  V30 46 H 0.549361 -7.264366 -0.230937 0
M  V30 47 H -0.552956 -8.932747 1.289962 0
M  V30 END ATOM
M  V30 BEGIN BOND
M  V30 1 1 1 2
M  V30 2 2 2 3
M  V30 3 1 3 4
M  V30 4 1 4 5
M  V30 5 2 5 6
M  V30 6 1 6 7
M  V30 7 1 7 8
M  V30 8 2 8 9
M  V30 9 1 9 10
M  V30 10 1 10 11
M  V30 11 1 11 12
M  V30 12 2 12 13
M  V30 13 1 12 14
M  V30 14 1 14 15
M  V30 15 1 15 16
M  V30 16 2 16 17
M  V30 17 1 17 18
M  V30 18 2 18 19
M  V30 19 1 19 20
M  V30 20 2 20 21
M  V30 21 1 15 22
M  V30 22 1 22 23
M  V30 23 1 22 24
M  V30 24 2 10 25
M  V30 25 1 25 26
M  V30 26 2 26 27
M  V30 27 2 4 28
M  V30 28 1 28 29
M  V30 29 2 29 30
M  V30 30 1 30 2
M  V30 31 1 27 5
M  V30 32 1 27 8
M  V30 33 1 21 16
M  V30 34 1 1 31
M  V30 35 1 1 32
M  V30 36 1 1 33
M  V30 37 1 3 34
M  V30 38 1 7 35
M  V30 39 1 9 36
M  V30 40 1 11 37
M  V30 41 1 14 38
M  V30 42 1 15 39
M  V30 43 1 17 40
M  V30 44 1 18 41
M  V30 45 1 19 42
M  V30 46 1 21 43
M  V30 47 1 22 44
M  V30 48 1 26 45
M  V30 49 1 28 46
M  V30 50 1 29 47
M  V30 END BOND
M  V30 END CTAB
M  END
>  <Dataset>  (374) 
ChEMBL_Kinases

>  <Ligand_Instance>  (374) 
nan

>  <PDB_ID>  (374) 
nan

>  <Standardized_SMILES>  (374) 
Cc1cc(-c2n[nH]c3cc(NC(=O)NC(c4cccnc4)C(F)F)ncc23)ccn1

>  <Name>  (374) 
nan

>  <Pocket>  (374) 
nan

>  <ATP_Site>  (374) 
nan

>  <Peripheral>  (374) 
nan

>  <Num_H_Atoms_ProtBoundConf>  (374) 
nan

>  <Num_Resolved_Atoms>  (374) 
nan

>  <Num_Not_Resolved_Atoms>  (374) 
nan

$$$$
CHEMBL3662966
     RDKit          3D

  0  0  0  0  0  0  0  0  0  0999 V3000
M  V30 BEGIN CTAB
M  V30 COUNTS 47 50 0 0 0
M  V30 BEGIN ATOM
M  V30 1 C -2.705732 -5.470910 5.640594 0
M  V30 2 C -1.776282 -5.491336 4.474871 0
M  V30 3 C -0.827605 -4.495966 4.336082 0
M  V30 4 C 0.070773 -4.462606 3.260420 0
M  V30 5 C 0.998697 -3.335150 3.283889 0
M  V30 6 N 1.730320 -2.842489 4.299791 0
M  V30 7 N 2.440364 -1.802534 3.901646 0
M  V30 8 C 2.175299 -1.594216 2.580087 0
M  V30 9 C 2.633914 -0.654040 1.676645 0
M  V30 10 C 2.163241 -0.703846 0.381010 0
M  V30 11 N 2.553162 0.206375 -0.620052 0
M  V30 12 C 2.246917 1.414656 -1.190289 0
M  V30 13 O 1.289450 1.417698 -0.297863 0
M  V30 14 N 1.938533 2.601877 -1.743618 0
M  V30 15 C 1.385155 3.852588 -2.103377 0
M  V30 16 C -0.044809 3.779818 -2.406820 0
M  V30 17 C -0.383297 3.393153 -3.707781 0
M  V30 18 N -1.624587 3.178327 -4.205610 0
M  V30 19 C -2.671300 3.352047 -3.364825 0
M  V30 20 C -2.390353 3.735235 -2.069946 0
M  V30 21 C -1.107099 3.959837 -1.552391 0
M  V30 22 C -0.889516 4.452940 -0.185135 0
M  V30 23 F -2.161756 4.517989 0.414271 0
M  V30 24 F -0.484495 5.797236 -0.205876 0
M  V30 25 F -0.134185 3.710585 0.646321 0
M  V30 26 N 1.267596 -1.648242 -0.023918 0
M  V30 27 C 0.807936 -2.582407 0.860504 0
M  V30 28 C 1.267294 -2.554427 2.178056 0
M  V30 29 C -0.005918 -5.464110 2.315463 0
M  V30 30 C -0.982807 -6.451869 2.497146 0
M  V30 31 N -1.828956 -6.454586 3.539824 0
M  V30 32 H -3.388563 -4.589009 5.631024 0
M  V30 33 H -3.324041 -6.384252 5.612074 0
M  V30 34 H -2.152056 -5.461427 6.614495 0
M  V30 35 H -0.812619 -3.725104 5.118818 0
M  V30 36 H 3.107258 -1.187469 4.420216 0
M  V30 37 H 3.353202 0.117400 1.969045 0
M  V30 38 H 3.295893 0.271793 -1.358224 0
M  V30 39 H 2.782269 2.370300 -2.392026 0
M  V30 40 H 1.902972 4.227528 -3.028199 0
M  V30 41 H 1.612309 4.660001 -1.351303 0
M  V30 42 H 0.384231 3.227138 -4.458683 0
M  V30 43 H -3.716937 3.212104 -3.633083 0
M  V30 44 H -3.221440 3.883791 -1.368259 0
M  V30 45 H 0.098188 -3.319228 0.514629 0
M  V30 46 H 0.693242 -5.405143 1.515921 0
M  V30 47 H -0.973779 -7.204321 1.706031 0
M  V30 END ATOM
M  V30 BEGIN BOND
M  V30 1 1 1 2
M  V30 2 2 2 3
M  V30 3 1 3 4
M  V30 4 1 4 5
M  V30 5 2 5 6
M  V30 6 1 6 7
M  V30 7 1 7 8
M  V30 8 2 8 9
M  V30 9 1 9 10
M  V30 10 1 10 11
M  V30 11 1 11 12
M  V30 12 2 12 13
M  V30 13 1 12 14
M  V30 14 1 14 15
M  V30 15 1 15 16
M  V30 16 2 16 17
M  V30 17 1 17 18
M  V30 18 2 18 19
M  V30 19 1 19 20
M  V30 20 2 20 21
M  V30 21 1 21 22
M  V30 22 1 22 23
M  V30 23 1 22 24
M  V30 24 1 22 25
M  V30 25 2 10 26
M  V30 26 1 26 27
M  V30 27 2 27 28
M  V30 28 2 4 29
M  V30 29 1 29 30
M  V30 30 2 30 31
M  V30 31 1 31 2
M  V30 32 1 28 5
M  V30 33 1 28 8
M  V30 34 1 21 16
M  V30 35 1 1 32
M  V30 36 1 1 33
M  V30 37 1 1 34
M  V30 38 1 3 35
M  V30 39 1 7 36
M  V30 40 1 9 37
M  V30 41 1 11 38
M  V30 42 1 14 39
M  V30 43 1 15 40
M  V30 44 1 15 41
M  V30 45 1 17 42
M  V30 46 1 19 43
M  V30 47 1 20 44
M  V30 48 1 27 45
M  V30 49 1 29 46
M  V30 50 1 30 47
M  V30 END BOND
M  V30 END CTAB
M  END
>  <Dataset>  (375) 
ChEMBL_Kinases

>  <Ligand_Instance>  (375) 
nan

>  <PDB_ID>  (375) 
nan

>  <Standardized_SMILES>  (375) 
Cc1cc(-c2n[nH]c3cc(NC(=O)NCc4cnccc4C(F)(F)F)ncc23)ccn1

>  <Name>  (375) 
nan

>  <Pocket>  (375) 
nan

>  <ATP_Site>  (375) 
nan

>  <Peripheral>  (375) 
nan

>  <Num_H_Atoms_ProtBoundConf>  (375) 
nan

>  <Num_Resolved_Atoms>  (375) 
nan

>  <Num_Not_Resolved_Atoms>  (375) 
nan

$$$$
CHEMBL3662967
     RDKit          3D

  0  0  0  0  0  0  0  0  0  0999 V3000
M  V30 BEGIN CTAB
M  V30 COUNTS 44 47 0 0 0
M  V30 BEGIN ATOM
M  V30 1 C -1.563000 -6.491709 -0.648869 0
M  V30 2 C -0.472299 -6.280399 0.316364 0
M  V30 3 C 0.320241 -5.144622 0.114074 0
M  V30 4 C 1.346295 -4.923098 1.004617 0
M  V30 5 C 2.300509 -3.816226 0.989283 0
M  V30 6 N 3.631961 -3.862342 1.176650 0
M  V30 7 N 4.156337 -2.651190 1.087672 0
M  V30 8 C 3.146248 -1.768088 0.833118 0
M  V30 9 C 3.212094 -0.398629 0.660156 0
M  V30 10 C 2.021065 0.253652 0.409970 0
M  V30 11 N 2.116478 1.663634 0.236583 0
M  V30 12 C 0.939040 2.394282 -0.035828 0
M  V30 13 O -0.129026 1.748064 -0.109994 0
M  V30 14 N 0.815320 3.764660 -0.235676 0
M  V30 15 C -0.127588 4.797817 -0.514695 0
M  V30 16 C -1.213674 4.999800 0.443118 0
M  V30 17 C -0.958548 5.944653 1.455134 0
M  V30 18 N -1.787350 6.265155 2.471794 0
M  V30 19 C -2.975316 5.665410 2.583809 0
M  V30 20 F -3.827647 5.953089 3.577454 0
M  V30 21 C -3.314138 4.734821 1.649548 0
M  V30 22 C -2.450185 4.418821 0.611485 0
M  V30 23 Cl -2.906128 3.270700 -0.625807 0
M  V30 24 N 0.856730 -0.418564 0.340135 0
M  V30 25 C 0.810371 -1.775780 0.515135 0
M  V30 26 C 1.968862 -2.489292 0.768011 0
M  V30 27 C 1.580499 -5.797620 2.061569 0
M  V30 28 C 0.762954 -6.899500 2.204978 0
M  V30 29 N -0.244274 -7.139506 1.351560 0
M  V30 30 H -2.367880 -5.740841 -0.414940 0
M  V30 31 H -1.230657 -6.402569 -1.688608 0
M  V30 32 H -2.014868 -7.487438 -0.441142 0
M  V30 33 H 0.209824 -4.430734 -0.660249 0
M  V30 34 H 5.170618 -2.443219 1.198568 0
M  V30 35 H 4.174754 0.094723 0.726627 0
M  V30 36 H 2.996696 2.186323 0.298727 0
M  V30 37 H 1.806332 4.177283 -0.139127 0
M  V30 38 H -0.625825 4.518272 -1.494555 0
M  V30 39 H 0.390984 5.767574 -0.631329 0
M  V30 40 H -0.031631 6.521399 1.502335 0
M  V30 41 H -4.258270 4.177471 1.634111 0
M  V30 42 H -0.123250 -2.319648 0.459664 0
M  V30 43 H 2.372441 -5.691272 2.810487 0
M  V30 44 H 0.912788 -7.616133 3.025672 0
M  V30 END ATOM
M  V30 BEGIN BOND
M  V30 1 1 1 2
M  V30 2 2 2 3
M  V30 3 1 3 4
M  V30 4 1 4 5
M  V30 5 2 5 6
M  V30 6 1 6 7
M  V30 7 1 7 8
M  V30 8 2 8 9
M  V30 9 1 9 10
M  V30 10 1 10 11
M  V30 11 1 11 12
M  V30 12 2 12 13
M  V30 13 1 12 14
M  V30 14 1 14 15
M  V30 15 1 15 16
M  V30 16 2 16 17
M  V30 17 1 17 18
M  V30 18 2 18 19
M  V30 19 1 19 20
M  V30 20 1 19 21
M  V30 21 2 21 22
M  V30 22 1 22 23
M  V30 23 2 10 24
M  V30 24 1 24 25
M  V30 25 2 25 26
M  V30 26 2 4 27
M  V30 27 1 27 28
M  V30 28 2 28 29
M  V30 29 1 29 2
M  V30 30 1 26 5
M  V30 31 1 26 8
M  V30 32 1 22 16
M  V30 33 1 1 30
M  V30 34 1 1 31
M  V30 35 1 1 32
M  V30 36 1 3 33
M  V30 37 1 7 34
M  V30 38 1 9 35
M  V30 39 1 11 36
M  V30 40 1 14 37
M  V30 41 1 15 38
M  V30 42 1 15 39
M  V30 43 1 17 40
M  V30 44 1 21 41
M  V30 45 1 25 42
M  V30 46 1 27 43
M  V30 47 1 28 44
M  V30 END BOND
M  V30 END CTAB
M  END
>  <Dataset>  (376) 
ChEMBL_Kinases

>  <Ligand_Instance>  (376) 
nan

>  <PDB_ID>  (376) 
nan

>  <Standardized_SMILES>  (376) 
Cc1cc(-c2n[nH]c3cc(NC(=O)NCc4cnc(F)cc4Cl)ncc23)ccn1

>  <Name>  (376) 
nan

>  <Pocket>  (376) 
nan

>  <ATP_Site>  (376) 
nan

>  <Peripheral>  (376) 
nan

>  <Num_H_Atoms_ProtBoundConf>  (376) 
nan

>  <Num_Resolved_Atoms>  (376) 
nan

>  <Num_Not_Resolved_Atoms>  (376) 
nan

$$$$
CHEMBL3662968
     RDKit          3D

  0  0  0  0  0  0  0  0  0  0999 V3000
M  V30 BEGIN CTAB
M  V30 COUNTS 48 51 0 0 0
M  V30 BEGIN ATOM
M  V30 1 C -1.110570 0.612174 -5.513777 0
M  V30 2 C -0.057693 -0.399526 -5.180561 0
M  V30 3 C 0.692228 -0.182192 -4.045437 0
M  V30 4 C 1.647604 -1.143531 -3.784068 0
M  V30 5 C 2.553944 -1.116636 -2.639156 0
M  V30 6 N 3.878211 -1.359864 -2.634131 0
M  V30 7 N 4.357602 -1.239771 -1.403598 0
M  V30 8 C 3.378904 -0.910993 -0.526997 0
M  V30 9 C 3.375685 -0.679876 0.833127 0
M  V30 10 C 2.160570 -0.359074 1.403898 0
M  V30 11 N 2.017002 -0.093557 2.809782 0
M  V30 12 C 0.736272 0.240799 3.384219 0
M  V30 13 O -0.227287 0.276003 2.543784 0
M  V30 14 N 0.629595 0.501484 4.800552 0
M  V30 15 C -0.722417 0.808494 5.161742 0
M  V30 16 C -1.704436 -0.243818 4.909497 0
M  V30 17 C -1.376455 -1.514263 4.488355 0
M  V30 18 C -2.298841 -2.513572 4.254160 0
M  V30 19 C -3.642626 -2.254485 4.445203 0
M  V30 20 F -4.622603 -3.167456 4.242384 0
M  V30 21 C -3.977280 -0.977898 4.868840 0
M  V30 22 C -3.044139 0.021290 5.102039 0
M  V30 23 C -3.492654 1.364317 5.555345 0
M  V30 24 F -2.905477 1.617341 6.782963 0
M  V30 25 F -4.858708 1.380018 5.727223 0
M  V30 26 F -3.180648 2.377336 4.700285 0
M  V30 27 N 1.066092 -0.289324 0.625083 0
M  V30 28 C 1.064799 -0.513944 -0.701694 0
M  V30 29 C 2.253605 -0.838296 -1.322513 0
M  V30 30 C 1.821893 -2.235364 -4.613185 0
M  V30 31 C 1.035788 -2.395683 -5.738544 0
M  V30 32 N 0.108955 -1.461160 -5.990367 0
M  V30 33 H -0.656872 1.613087 -5.448261 0
M  V30 34 H -1.975717 0.573764 -4.827286 0
M  V30 35 H -1.440432 0.477126 -6.582492 0
M  V30 36 H 0.600081 0.638574 -3.373846 0
M  V30 37 H 5.354179 -1.376298 -1.124781 0
M  V30 38 H 4.249954 -0.739814 1.430629 0
M  V30 39 H 2.822567 -0.132184 3.458271 0
M  V30 40 H 1.508938 0.437064 5.360964 0
M  V30 41 H -0.754918 1.003135 6.270753 0
M  V30 42 H -0.974061 1.757162 4.610297 0
M  V30 43 H -0.350480 -1.791923 4.321760 0
M  V30 44 H -2.026227 -3.504919 3.924216 0
M  V30 45 H -5.025426 -0.725703 5.033231 0
M  V30 46 H 0.129085 -0.436092 -1.257390 0
M  V30 47 H 2.556744 -3.011760 -4.447398 0
M  V30 48 H 1.169696 -3.257402 -6.398393 0
M  V30 END ATOM
M  V30 BEGIN BOND
M  V30 1 1 1 2
M  V30 2 2 2 3
M  V30 3 1 3 4
M  V30 4 1 4 5
M  V30 5 2 5 6
M  V30 6 1 6 7
M  V30 7 1 7 8
M  V30 8 2 8 9
M  V30 9 1 9 10
M  V30 10 1 10 11
M  V30 11 1 11 12
M  V30 12 2 12 13
M  V30 13 1 12 14
M  V30 14 1 14 15
M  V30 15 1 15 16
M  V30 16 2 16 17
M  V30 17 1 17 18
M  V30 18 2 18 19
M  V30 19 1 19 20
M  V30 20 1 19 21
M  V30 21 2 21 22
M  V30 22 1 22 23
M  V30 23 1 23 24
M  V30 24 1 23 25
M  V30 25 1 23 26
M  V30 26 2 10 27
M  V30 27 1 27 28
M  V30 28 2 28 29
M  V30 29 2 4 30
M  V30 30 1 30 31
M  V30 31 2 31 32
M  V30 32 1 32 2
M  V30 33 1 29 5
M  V30 34 1 29 8
M  V30 35 1 22 16
M  V30 36 1 1 33
M  V30 37 1 1 34
M  V30 38 1 1 35
M  V30 39 1 3 36
M  V30 40 1 7 37
M  V30 41 1 9 38
M  V30 42 1 11 39
M  V30 43 1 14 40
M  V30 44 1 15 41
M  V30 45 1 15 42
M  V30 46 1 17 43
M  V30 47 1 18 44
M  V30 48 1 21 45
M  V30 49 1 28 46
M  V30 50 1 30 47
M  V30 51 1 31 48
M  V30 END BOND
M  V30 END CTAB
M  END
>  <Dataset>  (377) 
ChEMBL_Kinases

>  <Ligand_Instance>  (377) 
nan

>  <PDB_ID>  (377) 
nan

>  <Standardized_SMILES>  (377) 
Cc1cc(-c2n[nH]c3cc(NC(=O)NCc4ccc(F)cc4C(F)(F)F)ncc23)ccn1

>  <Name>  (377) 
nan

>  <Pocket>  (377) 
nan

>  <ATP_Site>  (377) 
nan

>  <Peripheral>  (377) 
nan

>  <Num_H_Atoms_ProtBoundConf>  (377) 
nan

>  <Num_Resolved_Atoms>  (377) 
nan

>  <Num_Not_Resolved_Atoms>  (377) 
nan

$$$$
CHEMBL3662969
     RDKit          3D

  0  0  0  0  0  0  0  0  0  0999 V3000
M  V30 BEGIN CTAB
M  V30 COUNTS 45 48 0 0 0
M  V30 BEGIN ATOM
M  V30 1 C -2.666753 -5.505934 0.604705 0
M  V30 2 C -1.234075 -5.706704 0.973195 0
M  V30 3 C -0.407079 -4.635152 1.302790 0
M  V30 4 C 0.925642 -4.796680 1.648261 0
M  V30 5 C 1.759761 -3.649940 1.987258 0
M  V30 6 N 2.613136 -3.561101 3.024133 0
M  V30 7 N 3.217453 -2.383979 3.049661 0
M  V30 8 C 2.731490 -1.704219 1.994652 0
M  V30 9 C 3.062693 -0.437342 1.613277 0
M  V30 10 C 2.443426 0.077642 0.492348 0
M  V30 11 N 2.588691 1.367420 -0.140763 0
M  V30 12 C 1.689860 2.357677 0.350389 0
M  V30 13 O 0.849826 2.127969 1.250584 0
M  V30 14 N 1.706690 3.660611 -0.163519 0
M  V30 15 C 0.812202 4.688366 0.308625 0
M  V30 16 C -0.612445 4.396905 0.140732 0
M  V30 17 C -1.430667 4.005795 1.207560 0
M  V30 18 C -2.774082 3.738604 1.010006 0
M  V30 19 C -3.320229 3.857459 -0.252570 0
M  V30 20 F -4.636328 3.574820 -0.337528 0
M  V30 21 C -2.523045 4.243573 -1.318147 0
M  V30 22 C -1.165348 4.513793 -1.119628 0
M  V30 23 F -0.494241 4.879587 -2.228400 0
M  V30 24 N 1.538734 -0.665757 -0.193992 0
M  V30 25 C 1.217518 -1.931913 0.199720 0
M  V30 26 C 1.816939 -2.471201 1.310705 0
M  V30 27 C 1.399434 -6.112748 1.647328 0
M  V30 28 C 0.559992 -7.161644 1.316574 0
M  V30 29 N -0.727338 -6.940120 0.989307 0
M  V30 30 H -2.893255 -4.433253 0.440677 0
M  V30 31 H -2.963801 -6.104758 -0.272830 0
M  V30 32 H -3.268536 -5.790419 1.503592 0
M  V30 33 H -0.873407 -3.671409 1.271051 0
M  V30 34 H 3.921625 -2.072306 3.753474 0
M  V30 35 H 3.747122 0.263757 2.044272 0
M  V30 36 H 3.285725 1.559906 -0.888373 0
M  V30 37 H 2.399955 3.897380 -0.924167 0
M  V30 38 H 1.038077 5.679497 -0.078363 0
M  V30 39 H 1.001048 4.743528 1.420800 0
M  V30 40 H -1.013392 3.908530 2.207227 0
M  V30 41 H -3.348218 3.436758 1.900388 0
M  V30 42 H -3.069666 4.297525 -2.243588 0
M  V30 43 H 0.503474 -2.533386 -0.332576 0
M  V30 44 H 2.451071 -6.214745 1.922413 0
M  V30 45 H 0.969156 -8.165398 1.328883 0
M  V30 END ATOM
M  V30 BEGIN BOND
M  V30 1 1 1 2
M  V30 2 2 2 3
M  V30 3 1 3 4
M  V30 4 1 4 5
M  V30 5 2 5 6
M  V30 6 1 6 7
M  V30 7 1 7 8
M  V30 8 2 8 9
M  V30 9 1 9 10
M  V30 10 1 10 11
M  V30 11 1 11 12
M  V30 12 2 12 13
M  V30 13 1 12 14
M  V30 14 1 14 15
M  V30 15 1 15 16
M  V30 16 2 16 17
M  V30 17 1 17 18
M  V30 18 2 18 19
M  V30 19 1 19 20
M  V30 20 1 19 21
M  V30 21 2 21 22
M  V30 22 1 22 23
M  V30 23 2 10 24
M  V30 24 1 24 25
M  V30 25 2 25 26
M  V30 26 2 4 27
M  V30 27 1 27 28
M  V30 28 2 28 29
M  V30 29 1 29 2
M  V30 30 1 26 5
M  V30 31 1 26 8
M  V30 32 1 22 16
M  V30 33 1 1 30
M  V30 34 1 1 31
M  V30 35 1 1 32
M  V30 36 1 3 33
M  V30 37 1 7 34
M  V30 38 1 9 35
M  V30 39 1 11 36
M  V30 40 1 14 37
M  V30 41 1 15 38
M  V30 42 1 15 39
M  V30 43 1 17 40
M  V30 44 1 18 41
M  V30 45 1 21 42
M  V30 46 1 25 43
M  V30 47 1 27 44
M  V30 48 1 28 45
M  V30 END BOND
M  V30 END CTAB
M  END
>  <Dataset>  (378) 
ChEMBL_Kinases

>  <Ligand_Instance>  (378) 
nan

>  <PDB_ID>  (378) 
nan

>  <Standardized_SMILES>  (378) 
Cc1cc(-c2n[nH]c3cc(NC(=O)NCc4ccc(F)cc4F)ncc23)ccn1

>  <Name>  (378) 
nan

>  <Pocket>  (378) 
nan

>  <ATP_Site>  (378) 
nan

>  <Peripheral>  (378) 
nan

>  <Num_H_Atoms_ProtBoundConf>  (378) 
nan

>  <Num_Resolved_Atoms>  (378) 
nan

>  <Num_Not_Resolved_Atoms>  (378) 
nan

$$$$
CHEMBL3662970
     RDKit          3D

  0  0  0  0  0  0  0  0  0  0999 V3000
M  V30 BEGIN CTAB
M  V30 COUNTS 48 51 0 0 0
M  V30 BEGIN ATOM
M  V30 1 C -4.238423 -5.040576 1.688429 0
M  V30 2 C -3.021194 -5.682601 1.127446 0
M  V30 3 C -1.819548 -4.990763 1.064141 0
M  V30 4 C -0.641115 -5.519799 0.555541 0
M  V30 5 C 0.598752 -4.770868 0.502018 0
M  V30 6 N 1.835898 -5.196881 0.852211 0
M  V30 7 N 2.717170 -4.218269 0.658937 0
M  V30 8 C 2.038820 -3.159632 0.181825 0
M  V30 9 C 2.536971 -1.926321 -0.163112 0
M  V30 10 C 1.656320 -0.955504 -0.643756 0
M  V30 11 N 1.930218 0.380125 -1.064822 0
M  V30 12 C 1.871116 1.402821 -0.096630 0
M  V30 13 O 1.585023 1.097603 1.080364 0
M  V30 14 N 2.103607 2.751034 -0.319588 0
M  V30 15 C 2.140279 4.033245 0.333895 0
M  V30 16 C 0.857897 4.476951 0.912135 0
M  V30 17 C 0.193617 4.231985 2.080054 0
M  V30 18 C 0.871292 3.393440 3.085023 0
M  V30 19 C -1.041541 4.750059 2.362614 0
M  V30 20 C -1.706612 5.567893 1.471630 0
M  V30 21 Cl -3.279869 6.178932 1.925046 0
M  V30 22 C -1.068290 5.840778 0.278944 0
M  V30 23 C 0.193352 5.304075 0.003491 0
M  V30 24 Cl 0.789691 5.804183 -1.585065 0
M  V30 25 N 0.330279 -1.261095 -0.755689 0
M  V30 26 C -0.139111 -2.485762 -0.409091 0
M  V30 27 C 0.695519 -3.473582 0.069821 0
M  V30 28 C -0.746262 -6.826171 0.100473 0
M  V30 29 C -1.962125 -7.510090 0.170574 0
M  V30 30 N -3.067939 -6.945041 0.673118 0
M  V30 31 H -5.008582 -5.812386 1.857377 0
M  V30 32 H -4.578399 -4.222170 0.990792 0
M  V30 33 H -4.034690 -4.541272 2.672342 0
M  V30 34 H -1.841300 -3.984033 1.442796 0
M  V30 35 H 3.748782 -4.296899 0.855468 0
M  V30 36 H 3.538780 -1.574126 -0.120403 0
M  V30 37 H 2.168358 0.625213 -2.047874 0
M  V30 38 H 2.340669 2.893826 -1.359097 0
M  V30 39 H 2.800482 3.852744 1.255540 0
M  V30 40 H 2.634874 4.803468 -0.267422 0
M  V30 41 H 0.727509 3.843514 4.111415 0
M  V30 42 H 1.916302 3.167350 2.901740 0
M  V30 43 H 0.344650 2.416923 3.152487 0
M  V30 44 H -1.489445 4.509565 3.294663 0
M  V30 45 H -1.627918 6.485358 -0.384275 0
M  V30 46 H -1.190207 -2.724659 -0.499380 0
M  V30 47 H 0.136675 -7.322401 -0.316979 0
M  V30 48 H -2.056309 -8.537398 -0.184440 0
M  V30 END ATOM
M  V30 BEGIN BOND
M  V30 1 1 1 2
M  V30 2 2 2 3
M  V30 3 1 3 4
M  V30 4 1 4 5
M  V30 5 2 5 6
M  V30 6 1 6 7
M  V30 7 1 7 8
M  V30 8 2 8 9
M  V30 9 1 9 10
M  V30 10 1 10 11
M  V30 11 1 11 12
M  V30 12 2 12 13
M  V30 13 1 12 14
M  V30 14 1 14 15
M  V30 15 1 15 16
M  V30 16 2 16 17
M  V30 17 1 17 18
M  V30 18 1 17 19
M  V30 19 2 19 20
M  V30 20 1 20 21
M  V30 21 1 20 22
M  V30 22 2 22 23
M  V30 23 1 23 24
M  V30 24 2 10 25
M  V30 25 1 25 26
M  V30 26 2 26 27
M  V30 27 2 4 28
M  V30 28 1 28 29
M  V30 29 2 29 30
M  V30 30 1 30 2
M  V30 31 1 27 5
M  V30 32 1 27 8
M  V30 33 1 23 16
M  V30 34 1 1 31
M  V30 35 1 1 32
M  V30 36 1 1 33
M  V30 37 1 3 34
M  V30 38 1 7 35
M  V30 39 1 9 36
M  V30 40 1 11 37
M  V30 41 1 14 38
M  V30 42 1 15 39
M  V30 43 1 15 40
M  V30 44 1 18 41
M  V30 45 1 18 42
M  V30 46 1 18 43
M  V30 47 1 19 44
M  V30 48 1 22 45
M  V30 49 1 26 46
M  V30 50 1 28 47
M  V30 51 1 29 48
M  V30 END BOND
M  V30 END CTAB
M  END
>  <Dataset>  (379) 
ChEMBL_Kinases

>  <Ligand_Instance>  (379) 
nan

>  <PDB_ID>  (379) 
nan

>  <Standardized_SMILES>  (379) 
Cc1cc(-c2n[nH]c3cc(NC(=O)NCc4c(C)cc(Cl)cc4Cl)ncc23)ccn1

>  <Name>  (379) 
nan

>  <Pocket>  (379) 
nan

>  <ATP_Site>  (379) 
nan

>  <Peripheral>  (379) 
nan

>  <Num_H_Atoms_ProtBoundConf>  (379) 
nan

>  <Num_Resolved_Atoms>  (379) 
nan

>  <Num_Not_Resolved_Atoms>  (379) 
nan

$$$$
CHEMBL3662971
     RDKit          3D

  0  0  0  0  0  0  0  0  0  0999 V3000
M  V30 BEGIN CTAB
M  V30 COUNTS 48 51 0 0 0
M  V30 BEGIN ATOM
M  V30 1 C -2.629552 -5.684076 0.737395 0
M  V30 2 C -1.204768 -5.881549 0.424049 0
M  V30 3 C -0.206545 -5.021768 0.837019 0
M  V30 4 C 1.140546 -5.185476 0.555628 0
M  V30 5 C 2.127534 -4.217183 1.037273 0
M  V30 6 N 3.311491 -4.499544 1.620868 0
M  V30 7 N 3.951847 -3.384595 1.930363 0
M  V30 8 C 3.214451 -2.319176 1.562598 0
M  V30 9 C 3.378379 -0.953357 1.636369 0
M  V30 10 C 2.349653 -0.186521 1.126168 0
M  V30 11 N 2.428545 1.254922 1.159469 0
M  V30 12 C 1.373173 2.066729 0.636255 0
M  V30 13 O 0.369763 1.498104 0.141651 0
M  V30 14 N 1.386795 3.489921 0.639995 0
M  V30 15 C 0.205336 4.041106 0.062745 0
M  V30 16 C -1.059079 3.728541 0.706177 0
M  V30 17 C -1.175652 3.081142 1.917865 0
M  V30 18 C -2.427988 2.832475 2.452961 0
M  V30 19 C -3.606380 3.203938 1.829466 0
M  V30 20 Cl -5.184856 2.883557 2.515638 0
M  V30 21 C -3.456687 3.854520 0.609880 0
M  V30 22 C -2.218498 4.127787 0.029760 0
M  V30 23 C -2.122652 4.831342 -1.287469 0
M  V30 24 N 1.234395 -0.726780 0.580079 0
M  V30 25 C 1.066010 -2.054497 0.504052 0
M  V30 26 C 2.075429 -2.830164 1.004826 0
M  V30 27 C 1.465400 -6.311892 -0.200717 0
M  V30 28 C 0.437142 -7.142510 -0.591095 0
M  V30 29 N -0.863354 -6.956197 -0.301660 0
M  V30 30 H -2.672083 -5.028964 1.646530 0
M  V30 31 H -3.146871 -5.174314 -0.095066 0
M  V30 32 H -3.180790 -6.602938 0.981755 0
M  V30 33 H -0.577058 -4.182468 1.420592 0
M  V30 34 H 4.882287 -3.236388 2.386626 0
M  V30 35 H 4.265213 -0.519969 2.070379 0
M  V30 36 H 3.251209 1.742918 1.564583 0
M  V30 37 H 2.233706 3.942563 1.051902 0
M  V30 38 H 0.155711 3.801415 -1.022593 0
M  V30 39 H 0.324025 5.163343 0.118407 0
M  V30 40 H -0.297806 2.766346 2.461081 0
M  V30 41 H -2.493204 2.313987 3.422039 0
M  V30 42 H -4.384916 4.154917 0.103942 0
M  V30 43 H -3.147215 4.974916 -1.659051 0
M  V30 44 H -1.630441 5.804820 -1.234130 0
M  V30 45 H -1.582808 4.209872 -2.030412 0
M  V30 46 H 0.138295 -2.357881 0.047783 0
M  V30 47 H 2.493438 -6.477650 -0.441102 0
M  V30 48 H 0.753453 -8.000537 -1.176143 0
M  V30 END ATOM
M  V30 BEGIN BOND
M  V30 1 1 1 2
M  V30 2 2 2 3
M  V30 3 1 3 4
M  V30 4 1 4 5
M  V30 5 2 5 6
M  V30 6 1 6 7
M  V30 7 1 7 8
M  V30 8 2 8 9
M  V30 9 1 9 10
M  V30 10 1 10 11
M  V30 11 1 11 12
M  V30 12 2 12 13
M  V30 13 1 12 14
M  V30 14 1 14 15
M  V30 15 1 15 16
M  V30 16 2 16 17
M  V30 17 1 17 18
M  V30 18 2 18 19
M  V30 19 1 19 20
M  V30 20 1 19 21
M  V30 21 2 21 22
M  V30 22 1 22 23
M  V30 23 2 10 24
M  V30 24 1 24 25
M  V30 25 2 25 26
M  V30 26 2 4 27
M  V30 27 1 27 28
M  V30 28 2 28 29
M  V30 29 1 29 2
M  V30 30 1 26 5
M  V30 31 1 26 8
M  V30 32 1 22 16
M  V30 33 1 1 30
M  V30 34 1 1 31
M  V30 35 1 1 32
M  V30 36 1 3 33
M  V30 37 1 7 34
M  V30 38 1 9 35
M  V30 39 1 11 36
M  V30 40 1 14 37
M  V30 41 1 15 38
M  V30 42 1 15 39
M  V30 43 1 17 40
M  V30 44 1 18 41
M  V30 45 1 21 42
M  V30 46 1 23 43
M  V30 47 1 23 44
M  V30 48 1 23 45
M  V30 49 1 25 46
M  V30 50 1 27 47
M  V30 51 1 28 48
M  V30 END BOND
M  V30 END CTAB
M  END
>  <Dataset>  (380) 
ChEMBL_Kinases

>  <Ligand_Instance>  (380) 
nan

>  <PDB_ID>  (380) 
nan

>  <Standardized_SMILES>  (380) 
Cc1cc(-c2n[nH]c3cc(NC(=O)NCc4ccc(Cl)cc4C)ncc23)ccn1

>  <Name>  (380) 
nan

>  <Pocket>  (380) 
nan

>  <ATP_Site>  (380) 
nan

>  <Peripheral>  (380) 
nan

>  <Num_H_Atoms_ProtBoundConf>  (380) 
nan

>  <Num_Resolved_Atoms>  (380) 
nan

>  <Num_Not_Resolved_Atoms>  (380) 
nan

$$$$
CHEMBL3662972
     RDKit          3D

  0  0  0  0  0  0  0  0  0  0999 V3000
M  V30 BEGIN CTAB
M  V30 COUNTS 44 47 0 0 0
M  V30 BEGIN ATOM
M  V30 1 C -1.330399 -6.012746 1.741054 0
M  V30 2 C -0.879832 -5.722905 0.341788 0
M  V30 3 C -0.581940 -4.445107 -0.084347 0
M  V30 4 C -0.165486 -4.105917 -1.344986 0
M  V30 5 C 0.137085 -2.734776 -1.744211 0
M  V30 6 N -0.236081 -2.109288 -2.867232 0
M  V30 7 N 0.212915 -0.860335 -2.911677 0
M  V30 8 C 0.905323 -0.669678 -1.770142 0
M  V30 9 C 1.566461 0.469856 -1.347817 0
M  V30 10 C 2.202475 0.382595 -0.116294 0
M  V30 11 N 2.945678 1.448549 0.508432 0
M  V30 12 C 2.121032 2.255442 1.333937 0
M  V30 13 O 0.891760 2.153920 1.568928 0
M  V30 14 N 2.718660 3.360037 2.025124 0
M  V30 15 C 2.101016 4.327109 2.920257 0
M  V30 16 C 0.645013 4.046290 3.076076 0
M  V30 17 C -0.359373 4.559804 2.289250 0
M  V30 18 C -1.673208 4.210200 2.551506 0
M  V30 19 C -2.040116 3.360508 3.575748 0
M  V30 20 F -3.299569 2.993856 3.866987 0
M  V30 21 C -1.004514 2.878336 4.327213 0
M  V30 22 N 0.272815 3.215230 4.076032 0
M  V30 23 N 2.183949 -0.742089 0.633846 0
M  V30 24 C 1.530169 -1.860852 0.210581 0
M  V30 25 C 0.881042 -1.822342 -1.011085 0
M  V30 26 C -0.057652 -5.193165 -2.211315 0
M  V30 27 C -0.340208 -6.472854 -1.838219 0
M  V30 28 N -0.742171 -6.715097 -0.582313 0
M  V30 29 H -0.527063 -5.824989 2.489464 0
M  V30 30 H -1.716352 -7.041466 1.756085 0
M  V30 31 H -2.199233 -5.336886 1.963600 0
M  V30 32 H -0.701368 -3.684169 0.671502 0
M  V30 33 H 0.054268 -0.163376 -3.689679 0
M  V30 34 H 1.644858 1.402198 -1.853628 0
M  V30 35 H 3.967431 1.624418 0.382934 0
M  V30 36 H 3.740243 3.608801 1.955322 0
M  V30 37 H 2.572936 4.257962 3.900218 0
M  V30 38 H 2.160015 5.335183 2.463041 0
M  V30 39 H -0.070870 5.216722 1.498051 0
M  V30 40 H -2.479367 4.619047 1.924183 0
M  V30 41 H -1.175444 2.205833 5.154221 0
M  V30 42 H 1.509846 -2.755739 0.797186 0
M  V30 43 H 0.270793 -5.005996 -3.242443 0
M  V30 44 H -0.257652 -7.322944 -2.509590 0
M  V30 END ATOM
M  V30 BEGIN BOND
M  V30 1 1 1 2
M  V30 2 2 2 3
M  V30 3 1 3 4
M  V30 4 1 4 5
M  V30 5 2 5 6
M  V30 6 1 6 7
M  V30 7 1 7 8
M  V30 8 2 8 9
M  V30 9 1 9 10
M  V30 10 1 10 11
M  V30 11 1 11 12
M  V30 12 2 12 13
M  V30 13 1 12 14
M  V30 14 1 14 15
M  V30 15 1 15 16
M  V30 16 2 16 17
M  V30 17 1 17 18
M  V30 18 2 18 19
M  V30 19 1 19 20
M  V30 20 1 19 21
M  V30 21 2 21 22
M  V30 22 2 10 23
M  V30 23 1 23 24
M  V30 24 2 24 25
M  V30 25 2 4 26
M  V30 26 1 26 27
M  V30 27 2 27 28
M  V30 28 1 28 2
M  V30 29 1 25 5
M  V30 30 1 25 8
M  V30 31 1 22 16
M  V30 32 1 1 29
M  V30 33 1 1 30
M  V30 34 1 1 31
M  V30 35 1 3 32
M  V30 36 1 7 33
M  V30 37 1 9 34
M  V30 38 1 11 35
M  V30 39 1 14 36
M  V30 40 1 15 37
M  V30 41 1 15 38
M  V30 42 1 17 39
M  V30 43 1 18 40
M  V30 44 1 21 41
M  V30 45 1 24 42
M  V30 46 1 26 43
M  V30 47 1 27 44
M  V30 END BOND
M  V30 END CTAB
M  END
>  <Dataset>  (381) 
ChEMBL_Kinases

>  <Ligand_Instance>  (381) 
nan

>  <PDB_ID>  (381) 
nan

>  <Standardized_SMILES>  (381) 
Cc1cc(-c2n[nH]c3cc(NC(=O)NCc4ccc(F)cn4)ncc23)ccn1

>  <Name>  (381) 
nan

>  <Pocket>  (381) 
nan

>  <ATP_Site>  (381) 
nan

>  <Peripheral>  (381) 
nan

>  <Num_H_Atoms_ProtBoundConf>  (381) 
nan

>  <Num_Resolved_Atoms>  (381) 
nan

>  <Num_Not_Resolved_Atoms>  (381) 
nan

$$$$
CHEMBL3662982
     RDKit          3D

  0  0  0  0  0  0  0  0  0  0999 V3000
M  V30 BEGIN CTAB
M  V30 COUNTS 50 53 0 0 0
M  V30 BEGIN ATOM
M  V30 1 C 3.509701 -1.128181 -6.824336 0
M  V30 2 C 3.715700 -2.180438 -5.790707 0
M  V30 3 C 2.915304 -2.086574 -4.653810 0
M  V30 4 C 3.076868 -3.040797 -3.676804 0
M  V30 5 C 2.361385 -3.150524 -2.410975 0
M  V30 6 N 1.833684 -4.286105 -1.869701 0
M  V30 7 N 1.262260 -3.991254 -0.716621 0
M  V30 8 C 1.379353 -2.684276 -0.444383 0
M  V30 9 C 0.978979 -1.883654 0.584385 0
M  V30 10 C 1.249635 -0.531338 0.592959 0
M  V30 11 N 0.791969 0.224926 1.709888 0
M  V30 12 C -0.507492 0.822493 1.686412 0
M  V30 13 O -1.229173 0.672735 0.680566 0
M  V30 14 N -0.833117 1.541826 2.854759 0
M  V30 15 C -2.137541 2.201518 2.955241 0 CFG=2
M  V30 16 C -1.856372 3.655176 3.268678 0
M  V30 17 C -2.885902 1.529270 4.075635 0
M  V30 18 C -2.232361 1.263344 5.282747 0
M  V30 19 C -3.006420 0.636646 6.265116 0
M  V30 20 C -4.324030 0.283418 6.109547 0
M  V30 21 C -5.073069 -0.382600 7.212430 0
M  V30 22 F -4.479647 -1.578605 7.570653 0
M  V30 23 F -6.351502 -0.669498 6.794868 0
M  V30 24 F -5.123400 0.401672 8.333561 0
M  V30 25 N -4.913582 0.561693 4.922326 0
M  V30 26 C -4.216376 1.165840 3.935879 0
M  V30 27 N 1.935777 -0.007959 -0.465347 0
M  V30 28 C 2.334436 -0.795633 -1.486148 0
M  V30 29 C 2.070670 -2.149009 -1.507676 0
M  V30 30 C 4.022800 -4.039026 -3.875812 0
M  V30 31 C 4.811261 -4.125755 -5.003139 0
M  V30 32 N 4.618678 -3.168984 -5.934679 0
M  V30 33 H 2.434403 -0.859124 -6.885306 0
M  V30 34 H 4.056477 -0.227065 -6.463053 0
M  V30 35 H 3.931123 -1.464276 -7.778090 0
M  V30 36 H 2.172092 -1.349643 -4.436314 0
M  V30 37 H 0.768068 -4.663136 -0.064077 0
M  V30 38 H 0.435055 -2.350167 1.404120 0
M  V30 39 H 1.489729 0.280340 2.498198 0
M  V30 40 H -0.193198 1.640372 3.675463 0
M  V30 41 H -2.740046 2.047297 2.052725 0
M  V30 42 H -1.622792 4.129220 2.280382 0
M  V30 43 H -2.730259 4.160610 3.743817 0
M  V30 44 H -0.950151 3.704305 3.902193 0
M  V30 45 H -1.201144 1.524085 5.444816 0
M  V30 46 H -2.565155 0.397745 7.232035 0
M  V30 47 H -4.709489 1.380935 2.987996 0
M  V30 48 H 2.878120 -0.337608 -2.308639 0
M  V30 49 H 4.212215 -4.837592 -3.143435 0
M  V30 50 H 5.537999 -4.898084 -5.149075 0
M  V30 END ATOM
M  V30 BEGIN BOND
M  V30 1 1 1 2
M  V30 2 2 2 3
M  V30 3 1 3 4
M  V30 4 1 4 5
M  V30 5 2 5 6
M  V30 6 1 6 7
M  V30 7 1 7 8
M  V30 8 2 8 9
M  V30 9 1 9 10
M  V30 10 1 10 11
M  V30 11 1 11 12
M  V30 12 2 12 13
M  V30 13 1 12 14
M  V30 14 1 14 15
M  V30 15 1 15 16
M  V30 16 1 15 17
M  V30 17 2 17 18
M  V30 18 1 18 19
M  V30 19 2 19 20
M  V30 20 1 20 21
M  V30 21 1 21 22
M  V30 22 1 21 23
M  V30 23 1 21 24
M  V30 24 1 20 25
M  V30 25 2 25 26
M  V30 26 2 10 27
M  V30 27 1 27 28
M  V30 28 2 28 29
M  V30 29 2 4 30
M  V30 30 1 30 31
M  V30 31 2 31 32
M  V30 32 1 32 2
M  V30 33 1 29 5
M  V30 34 1 29 8
M  V30 35 1 26 17
M  V30 36 1 1 33
M  V30 37 1 1 34
M  V30 38 1 1 35
M  V30 39 1 3 36
M  V30 40 1 7 37
M  V30 41 1 9 38
M  V30 42 1 11 39
M  V30 43 1 14 40
M  V30 44 1 15 41 CFG=3
M  V30 45 1 16 42
M  V30 46 1 16 43
M  V30 47 1 16 44
M  V30 48 1 18 45
M  V30 49 1 19 46
M  V30 50 1 26 47
M  V30 51 1 28 48
M  V30 52 1 30 49
M  V30 53 1 31 50
M  V30 END BOND
M  V30 END CTAB
M  END
>  <Dataset>  (382) 
ChEMBL_Kinases

>  <Ligand_Instance>  (382) 
nan

>  <PDB_ID>  (382) 
nan

>  <Standardized_SMILES>  (382) 
Cc1cc(-c2n[nH]c3cc(NC(=O)N[C@H](C)c4ccc(C(F)(F)F)nc4)ncc23)ccn1

>  <Name>  (382) 
nan

>  <Pocket>  (382) 
nan

>  <ATP_Site>  (382) 
nan

>  <Peripheral>  (382) 
nan

>  <Num_H_Atoms_ProtBoundConf>  (382) 
nan

>  <Num_Resolved_Atoms>  (382) 
nan

>  <Num_Not_Resolved_Atoms>  (382) 
nan

$$$$
CHEMBL3662974
     RDKit          3D

  0  0  0  0  0  0  0  0  0  0999 V3000
M  V30 BEGIN CTAB
M  V30 COUNTS 52 55 0 0 0
M  V30 BEGIN ATOM
M  V30 1 C 4.979234 0.375278 -2.250827 0
M  V30 2 N 4.706682 0.343278 -0.827583 0
M  V30 3 C 5.038183 1.351124 0.133945 0
M  V30 4 O 5.625460 2.336357 -0.385068 0
M  V30 5 C 4.595570 0.946606 1.462740 0
M  V30 6 C 5.196735 -0.185612 1.977886 0
M  V30 7 C 4.831062 -0.634287 3.237464 0
M  V30 8 F 5.397616 -1.744909 3.786313 0
M  V30 9 C 3.873574 0.051293 3.963027 0
M  V30 10 C 3.295633 1.187880 3.401078 0
M  V30 11 C 3.635770 1.667104 2.143803 0
M  V30 12 C 3.017450 2.877256 1.550745 0
M  V30 13 N 2.044617 2.606488 0.537673 0
M  V30 14 C 0.887466 1.859855 0.792709 0
M  V30 15 O 0.590647 1.365041 1.906112 0
M  V30 16 N -0.071704 1.598325 -0.231109 0
M  V30 17 C -1.282346 0.857944 -0.102791 0
M  V30 18 C -2.541487 1.313236 0.228943 0
M  V30 19 C -3.574380 0.400072 0.294729 0
M  V30 20 N -4.871367 0.615178 0.594140 0
M  V30 21 N -5.459448 -0.556374 0.526481 0
M  V30 22 C -4.607094 -1.529276 0.196490 0
M  V30 23 C -4.884414 -2.958197 0.021453 0
M  V30 24 C -5.972240 -3.455375 -0.698702 0
M  V30 25 C -6.098691 -4.829806 -0.766951 0
M  V30 26 N -5.235153 -5.682583 -0.180818 0
M  V30 27 C -4.185561 -5.234289 0.514461 0
M  V30 28 C -3.232007 -6.198250 1.164044 0
M  V30 29 C -4.002325 -3.855783 0.620711 0
M  V30 30 C -3.377123 -0.941157 0.039253 0
M  V30 31 C -2.105116 -1.350947 -0.287939 0
M  V30 32 N -1.079885 -0.467729 -0.356998 0
M  V30 33 H 5.456267 -0.526904 -2.643717 0
M  V30 34 H 5.553545 1.245450 -2.569950 0
M  V30 35 H 3.976569 0.466911 -2.750046 0
M  V30 36 H 4.213405 -0.577785 -0.653445 0
M  V30 37 H 5.950496 -0.748094 1.438967 0
M  V30 38 H 3.543909 -0.253509 4.960422 0
M  V30 39 H 2.539939 1.767559 3.920836 0
M  V30 40 H 3.780192 3.563322 1.130932 0
M  V30 41 H 2.530024 3.480120 2.371781 0
M  V30 42 H 2.158923 2.962014 -0.454953 0
M  V30 43 H 0.111269 1.986346 -1.204719 0
M  V30 44 H -2.592445 2.375543 0.409556 0
M  V30 45 H -5.329680 1.516543 0.832477 0
M  V30 46 H -6.637666 -2.759190 -1.150891 0
M  V30 47 H -6.940693 -5.208535 -1.324976 0
M  V30 48 H -3.579977 -6.387696 2.190991 0
M  V30 49 H -3.237338 -7.162605 0.629209 0
M  V30 50 H -2.197821 -5.784953 1.138766 0
M  V30 51 H -3.134146 -3.580159 1.199628 0
M  V30 52 H -1.935786 -2.398663 -0.492592 0
M  V30 END ATOM
M  V30 BEGIN BOND
M  V30 1 1 1 2
M  V30 2 1 2 3
M  V30 3 2 3 4
M  V30 4 1 3 5
M  V30 5 2 5 6
M  V30 6 1 6 7
M  V30 7 1 7 8
M  V30 8 2 7 9
M  V30 9 1 9 10
M  V30 10 2 10 11
M  V30 11 1 11 12
M  V30 12 1 12 13
M  V30 13 1 13 14
M  V30 14 2 14 15
M  V30 15 1 14 16
M  V30 16 1 16 17
M  V30 17 2 17 18
M  V30 18 1 18 19
M  V30 19 1 19 20
M  V30 20 1 20 21
M  V30 21 2 21 22
M  V30 22 1 22 23
M  V30 23 2 23 24
M  V30 24 1 24 25
M  V30 25 2 25 26
M  V30 26 1 26 27
M  V30 27 1 27 28
M  V30 28 2 27 29
M  V30 29 1 22 30
M  V30 30 1 30 31
M  V30 31 2 31 32
M  V30 32 1 11 5
M  V30 33 1 32 17
M  V30 34 2 30 19
M  V30 35 1 29 23
M  V30 36 1 1 33
M  V30 37 1 1 34
M  V30 38 1 1 35
M  V30 39 1 2 36
M  V30 40 1 6 37
M  V30 41 1 9 38
M  V30 42 1 10 39
M  V30 43 1 12 40
M  V30 44 1 12 41
M  V30 45 1 13 42
M  V30 46 1 16 43
M  V30 47 1 18 44
M  V30 48 1 20 45
M  V30 49 1 24 46
M  V30 50 1 25 47
M  V30 51 1 28 48
M  V30 52 1 28 49
M  V30 53 1 28 50
M  V30 54 1 29 51
M  V30 55 1 31 52
M  V30 END BOND
M  V30 END CTAB
M  END
>  <Dataset>  (383) 
ChEMBL_Kinases

>  <Ligand_Instance>  (383) 
nan

>  <PDB_ID>  (383) 
nan

>  <Standardized_SMILES>  (383) 
CNC(=O)c1cc(F)ccc1CNC(=O)Nc1cc2[nH]nc(-c3ccnc(C)c3)c2cn1

>  <Name>  (383) 
nan

>  <Pocket>  (383) 
nan

>  <ATP_Site>  (383) 
nan

>  <Peripheral>  (383) 
nan

>  <Num_H_Atoms_ProtBoundConf>  (383) 
nan

>  <Num_Resolved_Atoms>  (383) 
nan

>  <Num_Not_Resolved_Atoms>  (383) 
nan

$$$$
CHEMBL3662975
     RDKit          3D

  0  0  0  0  0  0  0  0  0  0999 V3000
M  V30 BEGIN CTAB
M  V30 COUNTS 49 52 0 0 0
M  V30 BEGIN ATOM
M  V30 1 C 2.615683 1.211157 -3.219491 0
M  V30 2 O 3.157848 1.669184 -2.024176 0
M  V30 3 C 4.362242 1.292448 -1.460582 0
M  V30 4 C 5.232182 0.382734 -2.018875 0
M  V30 5 C 6.421685 0.065100 -1.392045 0
M  V30 6 F 7.155928 -0.847468 -2.080338 0
M  V30 7 C 6.718057 0.680030 -0.194642 0
M  V30 8 C 5.826994 1.587234 0.341571 0
M  V30 9 C 4.612137 1.928142 -0.272171 0
M  V30 10 C 3.864098 2.889365 0.568087 0
M  V30 11 N 2.942463 2.167010 1.405033 0
M  V30 12 C 1.833429 1.340513 1.404172 0
M  V30 13 O 1.387794 1.067792 0.277008 0
M  V30 14 N 1.190000 0.800803 2.544622 0
M  V30 15 C 0.055769 -0.031009 2.311306 0
M  V30 16 C 0.261808 -1.389517 2.149901 0
M  V30 17 C -0.796602 -2.257349 1.919525 0
M  V30 18 N -0.905335 -3.585949 1.728378 0
M  V30 19 N -2.197032 -3.892591 1.548543 0
M  V30 20 C -2.935971 -2.757868 1.622757 0
M  V30 21 C -4.386656 -2.727480 1.471364 0
M  V30 22 C -4.955173 -1.755621 0.674423 0
M  V30 23 C -6.337425 -1.678853 0.494187 0
M  V30 24 N -7.111528 -2.597175 1.132142 0
M  V30 25 C -6.543963 -3.552316 1.916011 0
M  V30 26 C -7.504044 -4.497799 2.558139 0
M  V30 27 C -5.174851 -3.663853 2.121886 0
M  V30 28 C -2.066092 -1.712661 1.857236 0
M  V30 29 C -2.270177 -0.358918 2.018285 0
M  V30 30 N -1.212723 0.472372 2.243668 0
M  V30 31 H 2.935141 0.149851 -3.426072 0
M  V30 32 H 3.003179 1.802206 -4.073652 0
M  V30 33 H 1.503649 1.279072 -3.250661 0
M  V30 34 H 4.906149 -0.041174 -2.958433 0
M  V30 35 H 7.649471 0.389945 0.233097 0
M  V30 36 H 6.212439 1.984762 1.294547 0
M  V30 37 H 4.499962 3.585692 1.102177 0
M  V30 38 H 3.207605 3.534699 -0.093598 0
M  V30 39 H 3.240671 2.340665 2.426222 0
M  V30 40 H 1.566874 1.031714 3.489437 0
M  V30 41 H 1.271461 -1.771287 2.206248 0
M  V30 42 H -0.051297 -4.204495 1.736437 0
M  V30 43 H -4.403008 -0.996267 0.138504 0
M  V30 44 H -6.800283 -0.922843 -0.127402 0
M  V30 45 H -7.054029 -5.046655 3.407750 0
M  V30 46 H -8.375364 -3.930726 2.988365 0
M  V30 47 H -7.924360 -5.164257 1.791525 0
M  V30 48 H -4.768133 -4.431282 2.747270 0
M  V30 49 H -3.267774 0.055475 1.967913 0
M  V30 END ATOM
M  V30 BEGIN BOND
M  V30 1 1 1 2
M  V30 2 1 2 3
M  V30 3 2 3 4
M  V30 4 1 4 5
M  V30 5 1 5 6
M  V30 6 2 5 7
M  V30 7 1 7 8
M  V30 8 2 8 9
M  V30 9 1 9 10
M  V30 10 1 10 11
M  V30 11 1 11 12
M  V30 12 2 12 13
M  V30 13 1 12 14
M  V30 14 1 14 15
M  V30 15 2 15 16
M  V30 16 1 16 17
M  V30 17 1 17 18
M  V30 18 1 18 19
M  V30 19 2 19 20
M  V30 20 1 20 21
M  V30 21 2 21 22
M  V30 22 1 22 23
M  V30 23 2 23 24
M  V30 24 1 24 25
M  V30 25 1 25 26
M  V30 26 2 25 27
M  V30 27 1 20 28
M  V30 28 1 28 29
M  V30 29 2 29 30
M  V30 30 1 9 3
M  V30 31 1 30 15
M  V30 32 2 28 17
M  V30 33 1 27 21
M  V30 34 1 1 31
M  V30 35 1 1 32
M  V30 36 1 1 33
M  V30 37 1 4 34
M  V30 38 1 7 35
M  V30 39 1 8 36
M  V30 40 1 10 37
M  V30 41 1 10 38
M  V30 42 1 11 39
M  V30 43 1 14 40
M  V30 44 1 16 41
M  V30 45 1 18 42
M  V30 46 1 22 43
M  V30 47 1 23 44
M  V30 48 1 26 45
M  V30 49 1 26 46
M  V30 50 1 26 47
M  V30 51 1 27 48
M  V30 52 1 29 49
M  V30 END BOND
M  V30 END CTAB
M  END
>  <Dataset>  (384) 
ChEMBL_Kinases

>  <Ligand_Instance>  (384) 
nan

>  <PDB_ID>  (384) 
nan

>  <Standardized_SMILES>  (384) 
COc1cc(F)ccc1CNC(=O)Nc1cc2[nH]nc(-c3ccnc(C)c3)c2cn1

>  <Name>  (384) 
nan

>  <Pocket>  (384) 
nan

>  <ATP_Site>  (384) 
nan

>  <Peripheral>  (384) 
nan

>  <Num_H_Atoms_ProtBoundConf>  (384) 
nan

>  <Num_Resolved_Atoms>  (384) 
nan

>  <Num_Not_Resolved_Atoms>  (384) 
nan

$$$$
CHEMBL3662976
     RDKit          3D

  0  0  0  0  0  0  0  0  0  0999 V3000
M  V30 BEGIN CTAB
M  V30 COUNTS 45 48 0 0 0
M  V30 BEGIN ATOM
M  V30 1 C -2.540185 -5.558365 0.747573 0
M  V30 2 C -1.069816 -5.733247 0.956359 0
M  V30 3 C -0.246411 -4.674085 1.292840 0
M  V30 4 C 1.114240 -4.896499 1.474410 0
M  V30 5 C 1.937760 -3.753639 1.822633 0
M  V30 6 N 2.882519 -3.665134 2.767325 0
M  V30 7 N 3.424291 -2.474101 2.797799 0
M  V30 8 C 2.811183 -1.756071 1.836806 0
M  V30 9 C 3.043046 -0.452878 1.493239 0
M  V30 10 C 2.305282 0.108091 0.472138 0
M  V30 11 N 2.331147 1.420641 -0.090857 0
M  V30 12 C 1.549447 2.496033 0.362821 0
M  V30 13 O 0.805504 2.191135 1.335893 0
M  V30 14 N 1.560891 3.787356 -0.176336 0
M  V30 15 C 0.709700 4.854949 0.360814 0
M  V30 16 C -0.717169 4.497960 0.269246 0
M  V30 17 C -1.419174 4.097624 1.373267 0
M  V30 18 C -2.755057 3.761265 1.297567 0
M  V30 19 C -3.428834 3.818067 0.100242 0
M  V30 20 Cl -5.134528 3.384136 0.032596 0
M  V30 21 C -2.718407 4.221407 -1.008571 0
M  V30 22 C -1.372597 4.561710 -0.938415 0
M  V30 23 F -0.732445 4.946908 -2.048605 0
M  V30 24 N 1.367358 -0.649881 -0.165706 0
M  V30 25 C 1.137078 -1.940595 0.174010 0
M  V30 26 C 1.870665 -2.518949 1.199067 0
M  V30 27 C 1.638776 -6.171569 1.319123 0
M  V30 28 C 0.748826 -7.198603 0.977710 0
M  V30 29 N -0.543654 -6.948271 0.812454 0
M  V30 30 H -2.781130 -4.478847 0.883922 0
M  V30 31 H -2.854056 -5.820680 -0.290990 0
M  V30 32 H -3.135834 -6.141836 1.470714 0
M  V30 33 H -0.766734 -3.730059 1.388616 0
M  V30 34 H 4.177051 -2.162753 3.443619 0
M  V30 35 H 3.739797 0.248940 1.905073 0
M  V30 36 H 2.966805 1.615998 -0.895653 0
M  V30 37 H 2.223084 3.894256 -0.975926 0
M  V30 38 H 0.913708 5.815713 -0.102461 0
M  V30 39 H 0.993638 4.911418 1.437602 0
M  V30 40 H -0.974439 4.020635 2.362999 0
M  V30 41 H -3.298983 3.443384 2.193169 0
M  V30 42 H -3.225003 4.275055 -1.960117 0
M  V30 43 H 0.402682 -2.545374 -0.321855 0
M  V30 44 H 2.702443 -6.295249 1.470397 0
M  V30 45 H 1.186368 -8.179001 0.863597 0
M  V30 END ATOM
M  V30 BEGIN BOND
M  V30 1 1 1 2
M  V30 2 2 2 3
M  V30 3 1 3 4
M  V30 4 1 4 5
M  V30 5 2 5 6
M  V30 6 1 6 7
M  V30 7 1 7 8
M  V30 8 2 8 9
M  V30 9 1 9 10
M  V30 10 1 10 11
M  V30 11 1 11 12
M  V30 12 2 12 13
M  V30 13 1 12 14
M  V30 14 1 14 15
M  V30 15 1 15 16
M  V30 16 2 16 17
M  V30 17 1 17 18
M  V30 18 2 18 19
M  V30 19 1 19 20
M  V30 20 1 19 21
M  V30 21 2 21 22
M  V30 22 1 22 23
M  V30 23 2 10 24
M  V30 24 1 24 25
M  V30 25 2 25 26
M  V30 26 2 4 27
M  V30 27 1 27 28
M  V30 28 2 28 29
M  V30 29 1 29 2
M  V30 30 1 26 5
M  V30 31 1 26 8
M  V30 32 1 22 16
M  V30 33 1 1 30
M  V30 34 1 1 31
M  V30 35 1 1 32
M  V30 36 1 3 33
M  V30 37 1 7 34
M  V30 38 1 9 35
M  V30 39 1 11 36
M  V30 40 1 14 37
M  V30 41 1 15 38
M  V30 42 1 15 39
M  V30 43 1 17 40
M  V30 44 1 18 41
M  V30 45 1 21 42
M  V30 46 1 25 43
M  V30 47 1 27 44
M  V30 48 1 28 45
M  V30 END BOND
M  V30 END CTAB
M  END
>  <Dataset>  (385) 
ChEMBL_Kinases

>  <Ligand_Instance>  (385) 
nan

>  <PDB_ID>  (385) 
nan

>  <Standardized_SMILES>  (385) 
Cc1cc(-c2n[nH]c3cc(NC(=O)NCc4ccc(Cl)cc4F)ncc23)ccn1

>  <Name>  (385) 
nan

>  <Pocket>  (385) 
nan

>  <ATP_Site>  (385) 
nan

>  <Peripheral>  (385) 
nan

>  <Num_H_Atoms_ProtBoundConf>  (385) 
nan

>  <Num_Resolved_Atoms>  (385) 
nan

>  <Num_Not_Resolved_Atoms>  (385) 
nan

$$$$
CHEMBL3662977
     RDKit          3D

  0  0  0  0  0  0  0  0  0  0999 V3000
M  V30 BEGIN CTAB
M  V30 COUNTS 50 53 0 0 0
M  V30 BEGIN ATOM
M  V30 1 C -1.258363 -5.065016 -6.292020 0
M  V30 2 C -1.758791 -5.207892 -4.893733 0
M  V30 3 C -0.987463 -4.674053 -3.885092 0
M  V30 4 C -1.403008 -4.779274 -2.576302 0
M  V30 5 C -0.753203 -4.293071 -1.361373 0
M  V30 6 N -0.607773 -5.017273 -0.211264 0
M  V30 7 N 0.019961 -4.281938 0.688615 0
M  V30 8 C 0.322713 -3.062008 0.212018 0
M  V30 9 C 0.947765 -1.915863 0.681182 0
M  V30 10 C 1.073360 -0.796879 -0.154537 0
M  V30 11 N 1.741157 0.256237 0.548060 0
M  V30 12 C 0.797656 1.105209 1.242989 0
M  V30 13 O -0.451822 0.966250 1.241778 0
M  V30 14 N 1.444133 2.175850 1.973301 0
M  V30 15 C 0.576930 3.086202 2.706240 0
M  V30 16 C 0.771756 4.512854 2.268238 0
M  V30 17 N 2.107141 4.988879 2.463493 0
M  V30 18 C 0.740668 2.925249 4.185857 0
M  V30 19 C -0.345461 2.856056 5.054533 0
M  V30 20 C -0.212711 2.710600 6.408104 0
M  V30 21 C 1.064710 2.628939 6.932327 0
M  V30 22 F 1.227459 2.483044 8.279582 0
M  V30 23 C 2.209226 2.689788 6.129049 0
M  V30 24 C 1.977212 2.836991 4.778359 0
M  V30 25 N 0.588515 -0.833900 -1.411781 0
M  V30 26 C -0.028190 -1.953007 -1.885811 0
M  V30 27 C -0.169289 -3.069984 -1.091811 0
M  V30 28 C -2.610757 -5.436095 -2.334017 0
M  V30 29 C -3.368191 -5.963579 -3.358554 0
M  V30 30 N -2.930691 -5.843824 -4.646669 0
M  V30 31 H -0.375201 -5.698436 -6.481680 0
M  V30 32 H -0.929072 -4.007752 -6.411245 0
M  V30 33 H -2.067611 -5.199582 -7.039006 0
M  V30 34 H -0.047547 -4.155651 -3.996815 0
M  V30 35 H 0.250360 -4.610641 1.651541 0
M  V30 36 H 1.285532 -2.027872 1.701203 0
M  V30 37 H 2.776983 0.286348 0.485509 0
M  V30 38 H 2.477228 2.321203 1.997973 0
M  V30 39 H -0.473339 2.780994 2.499791 0
M  V30 40 H 0.524195 4.563737 1.175648 0
M  V30 41 H 0.073625 5.208750 2.764105 0
M  V30 42 H 2.157332 6.026074 2.542703 0
M  V30 43 H 2.661880 4.737028 1.612210 0
M  V30 44 H -1.359426 2.921083 4.634725 0
M  V30 45 H -1.089940 2.661732 7.042886 0
M  V30 46 H 3.170814 2.622356 6.587034 0
M  V30 47 H 2.886142 2.881917 4.173014 0
M  V30 48 H -0.395551 -1.919051 -2.901359 0
M  V30 49 H -3.039122 -5.579453 -1.327965 0
M  V30 50 H -4.310408 -6.482711 -3.231770 0
M  V30 END ATOM
M  V30 BEGIN BOND
M  V30 1 1 1 2
M  V30 2 2 2 3
M  V30 3 1 3 4
M  V30 4 1 4 5
M  V30 5 2 5 6
M  V30 6 1 6 7
M  V30 7 1 7 8
M  V30 8 2 8 9
M  V30 9 1 9 10
M  V30 10 1 10 11
M  V30 11 1 11 12
M  V30 12 2 12 13
M  V30 13 1 12 14
M  V30 14 1 14 15
M  V30 15 1 15 16
M  V30 16 1 16 17
M  V30 17 1 15 18
M  V30 18 2 18 19
M  V30 19 1 19 20
M  V30 20 2 20 21
M  V30 21 1 21 22
M  V30 22 1 21 23
M  V30 23 2 23 24
M  V30 24 2 10 25
M  V30 25 1 25 26
M  V30 26 2 26 27
M  V30 27 2 4 28
M  V30 28 1 28 29
M  V30 29 2 29 30
M  V30 30 1 30 2
M  V30 31 1 27 5
M  V30 32 1 27 8
M  V30 33 1 24 18
M  V30 34 1 1 31
M  V30 35 1 1 32
M  V30 36 1 1 33
M  V30 37 1 3 34
M  V30 38 1 7 35
M  V30 39 1 9 36
M  V30 40 1 11 37
M  V30 41 1 14 38
M  V30 42 1 15 39
M  V30 43 1 16 40
M  V30 44 1 16 41
M  V30 45 1 17 42
M  V30 46 1 17 43
M  V30 47 1 19 44
M  V30 48 1 20 45
M  V30 49 1 23 46
M  V30 50 1 24 47
M  V30 51 1 26 48
M  V30 52 1 28 49
M  V30 53 1 29 50
M  V30 END BOND
M  V30 END CTAB
M  END
>  <Dataset>  (386) 
ChEMBL_Kinases

>  <Ligand_Instance>  (386) 
nan

>  <PDB_ID>  (386) 
nan

>  <Standardized_SMILES>  (386) 
Cc1cc(-c2n[nH]c3cc(NC(=O)NC(CN)c4ccc(F)cc4)ncc23)ccn1

>  <Name>  (386) 
nan

>  <Pocket>  (386) 
nan

>  <ATP_Site>  (386) 
nan

>  <Peripheral>  (386) 
nan

>  <Num_H_Atoms_ProtBoundConf>  (386) 
nan

>  <Num_Resolved_Atoms>  (386) 
nan

>  <Num_Not_Resolved_Atoms>  (386) 
nan

$$$$
CHEMBL3662978
     RDKit          3D

  0  0  0  0  0  0  0  0  0  0999 V3000
M  V30 BEGIN CTAB
M  V30 COUNTS 49 52 0 0 0
M  V30 BEGIN ATOM
M  V30 1 C 0.367824 -6.247918 -1.535293 0
M  V30 2 C 1.781303 -5.829395 -1.233046 0
M  V30 3 C 2.040089 -4.697271 -0.482514 0
M  V30 4 C 3.348895 -4.291623 -0.192199 0
M  V30 5 C 3.551910 -3.073786 0.610246 0
M  V30 6 N 4.380523 -2.891706 1.642257 0
M  V30 7 N 4.300006 -1.658153 2.127807 0
M  V30 8 C 3.378244 -1.051098 1.358384 0
M  V30 9 C 2.942901 0.252447 1.470705 0
M  V30 10 C 1.985292 0.703600 0.586427 0
M  V30 11 N 1.359494 1.984963 0.472754 0
M  V30 12 C 0.171163 2.168141 1.223914 0
M  V30 13 O -0.261292 1.229599 1.932314 0
M  V30 14 N -0.602151 3.340930 1.256572 0
M  V30 15 C -1.794363 3.877281 1.849502 0
M  V30 16 C -3.051619 3.188646 1.481518 0
M  V30 17 C -3.703819 3.837182 0.417606 0
M  V30 18 C -4.880296 3.392978 -0.145063 0
M  V30 19 C -5.494028 2.252530 0.325009 0
M  V30 20 C -4.864509 1.608827 1.367607 0
M  V30 21 C -3.692170 2.058052 1.923805 0
M  V30 22 O -3.049507 1.443069 2.959516 0
M  V30 23 C -3.426031 0.289822 3.639058 0
M  V30 24 F -4.657304 0.396768 4.255253 0
M  V30 25 F -2.493415 0.020068 4.621455 0
M  V30 26 F -3.509254 -0.820779 2.819013 0
M  V30 27 N 1.499696 -0.128810 -0.359135 0
M  V30 28 C 1.920874 -1.410552 -0.477385 0
M  V30 29 C 2.876997 -1.890983 0.391961 0
M  V30 30 C 4.403117 -5.070566 -0.686706 0
M  V30 31 C 4.102491 -6.204208 -1.439056 0
M  V30 32 N 2.815865 -6.571080 -1.703507 0
M  V30 33 H -0.217707 -5.925095 -0.634998 0
M  V30 34 H 0.264353 -7.323035 -1.682980 0
M  V30 35 H 0.009776 -5.624134 -2.379131 0
M  V30 36 H 1.170888 -4.174606 -0.149957 0
M  V30 37 H 4.843034 -1.265320 2.932520 0
M  V30 38 H 3.238826 1.020979 2.169063 0
M  V30 39 H 1.708043 2.761016 -0.105954 0
M  V30 40 H -0.137084 4.070285 0.620075 0
M  V30 41 H -1.651222 3.656362 2.971183 0
M  V30 42 H -1.860008 4.962832 1.720162 0
M  V30 43 H -3.346948 4.748617 -0.064547 0
M  V30 44 H -5.386338 3.886881 -0.962675 0
M  V30 45 H -6.397312 1.785251 -0.002125 0
M  V30 46 H -5.257120 0.699511 1.819836 0
M  V30 47 H 1.537017 -2.082020 -1.234029 0
M  V30 48 H 5.380562 -4.731185 -0.445863 0
M  V30 49 H 4.947219 -6.780766 -1.803762 0
M  V30 END ATOM
M  V30 BEGIN BOND
M  V30 1 1 1 2
M  V30 2 2 2 3
M  V30 3 1 3 4
M  V30 4 1 4 5
M  V30 5 2 5 6
M  V30 6 1 6 7
M  V30 7 1 7 8
M  V30 8 2 8 9
M  V30 9 1 9 10
M  V30 10 1 10 11
M  V30 11 1 11 12
M  V30 12 2 12 13
M  V30 13 1 12 14
M  V30 14 1 14 15
M  V30 15 1 15 16
M  V30 16 2 16 17
M  V30 17 1 17 18
M  V30 18 2 18 19
M  V30 19 1 19 20
M  V30 20 2 20 21
M  V30 21 1 21 22
M  V30 22 1 22 23
M  V30 23 1 23 24
M  V30 24 1 23 25
M  V30 25 1 23 26
M  V30 26 2 10 27
M  V30 27 1 27 28
M  V30 28 2 28 29
M  V30 29 2 4 30
M  V30 30 1 30 31
M  V30 31 2 31 32
M  V30 32 1 32 2
M  V30 33 1 29 5
M  V30 34 1 29 8
M  V30 35 1 21 16
M  V30 36 1 1 33
M  V30 37 1 1 34
M  V30 38 1 1 35
M  V30 39 1 3 36
M  V30 40 1 7 37
M  V30 41 1 9 38
M  V30 42 1 11 39
M  V30 43 1 14 40
M  V30 44 1 15 41
M  V30 45 1 15 42
M  V30 46 1 17 43
M  V30 47 1 18 44
M  V30 48 1 19 45
M  V30 49 1 20 46
M  V30 50 1 28 47
M  V30 51 1 30 48
M  V30 52 1 31 49
M  V30 END BOND
M  V30 END CTAB
M  END
>  <Dataset>  (387) 
ChEMBL_Kinases

>  <Ligand_Instance>  (387) 
nan

>  <PDB_ID>  (387) 
nan

>  <Standardized_SMILES>  (387) 
Cc1cc(-c2n[nH]c3cc(NC(=O)NCc4ccccc4OC(F)(F)F)ncc23)ccn1

>  <Name>  (387) 
nan

>  <Pocket>  (387) 
nan

>  <ATP_Site>  (387) 
nan

>  <Peripheral>  (387) 
nan

>  <Num_H_Atoms_ProtBoundConf>  (387) 
nan

>  <Num_Resolved_Atoms>  (387) 
nan

>  <Num_Not_Resolved_Atoms>  (387) 
nan

$$$$
CHEMBL3662979
     RDKit          3D

  0  0  0  0  0  0  0  0  0  0999 V3000
M  V30 BEGIN CTAB
M  V30 COUNTS 52 55 0 0 0
M  V30 BEGIN ATOM
M  V30 1 C 8.433286 -4.390586 -0.061724 0
M  V30 2 C 6.973118 -4.236575 0.154935 0
M  V30 3 C 6.451641 -3.032566 0.618062 0
M  V30 4 C 5.086050 -2.876982 0.824577 0
M  V30 5 C 4.471789 -1.643365 1.308145 0
M  V30 6 N 4.922945 -0.877464 2.343770 0
M  V30 7 N 4.139036 0.166329 2.519595 0
M  V30 8 C 3.119062 0.162791 1.615684 0
M  V30 9 C 2.041617 0.984960 1.347876 0
M  V30 10 C 1.182091 0.661073 0.319227 0
M  V30 11 N 0.044798 1.481165 -0.003187 0
M  V30 12 C -1.194946 1.188174 0.656133 0
M  V30 13 O -1.219395 0.220035 1.488727 0
M  V30 14 N -2.398992 1.896135 0.451195 0
M  V30 15 C -3.625672 1.551271 1.150410 0
M  V30 16 C -4.102667 2.660812 2.050517 0
M  V30 17 C -4.651962 1.089881 0.186697 0
M  V30 18 C -4.692501 1.729640 -1.043268 0
M  V30 19 C -5.635337 1.345227 -2.000151 0
M  V30 20 C -6.534258 0.320943 -1.720949 0
M  V30 21 C -6.485684 -0.314305 -0.485066 0
M  V30 22 C -5.549430 0.075536 0.450444 0
M  V30 23 O -5.402851 -0.480346 1.714402 0
M  V30 24 C -6.232399 -1.537481 2.174705 0
M  V30 25 F -7.546431 -1.166024 2.187075 0
M  V30 26 F -6.011602 -2.600567 1.302722 0
M  V30 27 F -5.809578 -1.934321 3.412446 0
M  V30 28 N 1.423073 -0.458518 -0.399232 0
M  V30 29 C 2.468718 -1.267480 -0.148529 0
M  V30 30 C 3.346522 -0.975517 0.869712 0
M  V30 31 C 4.274464 -3.972500 0.548477 0
M  V30 32 C 4.792050 -5.150386 0.094555 0
M  V30 33 N 6.125886 -5.268590 -0.095821 0
M  V30 34 H 8.995594 -4.414248 0.902479 0
M  V30 35 H 8.606590 -5.345134 -0.609524 0
M  V30 36 H 8.749426 -3.589786 -0.741174 0
M  V30 37 H 7.096256 -2.182211 0.830722 0
M  V30 38 H 4.238437 0.924182 3.237812 0
M  V30 39 H 1.886069 1.865628 1.943063 0
M  V30 40 H 0.053124 2.274649 -0.681701 0
M  V30 41 H -2.318988 2.680294 -0.243109 0
M  V30 42 H -3.369831 0.687087 1.802039 0
M  V30 43 H -3.643276 2.543577 3.068655 0
M  V30 44 H -5.187500 2.617490 2.218937 0
M  V30 45 H -3.757655 3.638306 1.654975 0
M  V30 46 H -4.051279 2.527495 -1.364173 0
M  V30 47 H -5.717623 1.807813 -2.982382 0
M  V30 48 H -7.282591 -0.008454 -2.436451 0
M  V30 49 H -7.158985 -1.113780 -0.217467 0
M  V30 50 H 2.601069 -2.142635 -0.759635 0
M  V30 51 H 3.204674 -3.974286 0.668751 0
M  V30 52 H 4.218391 -6.042931 -0.140286 0
M  V30 END ATOM
M  V30 BEGIN BOND
M  V30 1 1 1 2
M  V30 2 2 2 3
M  V30 3 1 3 4
M  V30 4 1 4 5
M  V30 5 2 5 6
M  V30 6 1 6 7
M  V30 7 1 7 8
M  V30 8 2 8 9
M  V30 9 1 9 10
M  V30 10 1 10 11
M  V30 11 1 11 12
M  V30 12 2 12 13
M  V30 13 1 12 14
M  V30 14 1 14 15
M  V30 15 1 15 16
M  V30 16 1 15 17
M  V30 17 2 17 18
M  V30 18 1 18 19
M  V30 19 2 19 20
M  V30 20 1 20 21
M  V30 21 2 21 22
M  V30 22 1 22 23
M  V30 23 1 23 24
M  V30 24 1 24 25
M  V30 25 1 24 26
M  V30 26 1 24 27
M  V30 27 2 10 28
M  V30 28 1 28 29
M  V30 29 2 29 30
M  V30 30 2 4 31
M  V30 31 1 31 32
M  V30 32 2 32 33
M  V30 33 1 33 2
M  V30 34 1 30 5
M  V30 35 1 30 8
M  V30 36 1 22 17
M  V30 37 1 1 34
M  V30 38 1 1 35
M  V30 39 1 1 36
M  V30 40 1 3 37
M  V30 41 1 7 38
M  V30 42 1 9 39
M  V30 43 1 11 40
M  V30 44 1 14 41
M  V30 45 1 15 42
M  V30 46 1 16 43
M  V30 47 1 16 44
M  V30 48 1 16 45
M  V30 49 1 18 46
M  V30 50 1 19 47
M  V30 51 1 20 48
M  V30 52 1 21 49
M  V30 53 1 29 50
M  V30 54 1 31 51
M  V30 55 1 32 52
M  V30 END BOND
M  V30 END CTAB
M  END
>  <Dataset>  (388) 
ChEMBL_Kinases

>  <Ligand_Instance>  (388) 
nan

>  <PDB_ID>  (388) 
nan

>  <Standardized_SMILES>  (388) 
Cc1cc(-c2n[nH]c3cc(NC(=O)NC(C)c4ccccc4OC(F)(F)F)ncc23)ccn1

>  <Name>  (388) 
nan

>  <Pocket>  (388) 
nan

>  <ATP_Site>  (388) 
nan

>  <Peripheral>  (388) 
nan

>  <Num_H_Atoms_ProtBoundConf>  (388) 
nan

>  <Num_Resolved_Atoms>  (388) 
nan

>  <Num_Not_Resolved_Atoms>  (388) 
nan

$$$$
CHEMBL3662980
     RDKit          3D

  0  0  0  0  0  0  0  0  0  0999 V3000
M  V30 BEGIN CTAB
M  V30 COUNTS 52 55 0 0 0
M  V30 BEGIN ATOM
M  V30 1 C 2.588119 -4.945861 -4.272681 0
M  V30 2 C 3.664802 -4.139688 -3.618234 0
M  V30 3 C 3.531127 -3.399275 -2.451642 0
M  V30 4 C 4.630950 -2.703425 -1.971985 0
M  V30 5 C 4.391148 -1.961273 -0.749632 0
M  V30 6 N 5.257251 -1.991059 0.277877 0
M  V30 7 N 4.841530 -1.244559 1.287756 0
M  V30 8 C 3.656644 -0.686663 0.943844 0
M  V30 9 C 2.734206 0.167325 1.537206 0
M  V30 10 C 1.598698 0.518969 0.831229 0
M  V30 11 N 0.749785 1.396165 1.567349 0
M  V30 12 C -0.255331 0.783878 2.393179 0
M  V30 13 O -0.347635 -0.451598 2.433991 0
M  V30 14 N -1.148287 1.560258 3.166567 0
M  V30 15 C -2.165713 0.997150 4.006138 0
M  V30 16 C -3.159376 0.162393 3.277918 0
M  V30 17 C -3.011379 -1.230930 3.407291 0
M  V30 18 C -3.875272 -2.092518 2.772868 0
M  V30 19 C -4.908883 -1.626433 1.993426 0
M  V30 20 C -5.003721 -0.259181 1.903639 0
M  V30 21 C -4.207361 0.689961 2.487254 0
M  V30 22 O -4.140006 2.024581 2.517490 0
M  V30 23 C -4.889104 3.008103 1.964613 0
M  V30 24 C -6.317773 3.162077 2.374819 0
M  V30 25 F -6.814028 4.256323 1.638125 0
M  V30 26 F -7.147835 2.131531 2.133686 0
M  V30 27 N 1.356705 0.060734 -0.414163 0
M  V30 28 C 2.236262 -0.780479 -1.035313 0
M  V30 29 C 3.374013 -1.138844 -0.339867 0
M  V30 30 C 5.825679 -2.769655 -2.671752 0
M  V30 31 C 5.929539 -3.518926 -3.836521 0
M  V30 32 N 4.842927 -4.196430 -4.295523 0
M  V30 33 H 2.864736 -6.022308 -4.364530 0
M  V30 34 H 1.676319 -4.876102 -3.655486 0
M  V30 35 H 2.366987 -4.584779 -5.304754 0
M  V30 36 H 2.542041 -3.479147 -2.071304 0
M  V30 37 H 5.258827 -1.044717 2.221753 0
M  V30 38 H 2.990540 0.490058 2.522078 0
M  V30 39 H 0.793247 2.430791 1.561072 0
M  V30 40 H -1.027419 2.601620 3.095001 0
M  V30 41 H -1.679752 0.357626 4.762781 0
M  V30 42 H -2.661256 1.806640 4.586923 0
M  V30 43 H -2.234587 -1.699204 3.995091 0
M  V30 44 H -3.763619 -3.163320 2.870580 0
M  V30 45 H -5.624176 -2.233613 1.467003 0
M  V30 46 H -5.779568 0.144107 1.292765 0
M  V30 47 H -4.425824 4.034507 2.057118 0
M  V30 48 H -4.923314 2.876051 0.833211 0
M  V30 49 H -6.407728 3.529413 3.442630 0
M  V30 50 H 2.025798 -1.137565 -2.033692 0
M  V30 51 H 6.651371 -2.214083 -2.261907 0
M  V30 52 H 6.904038 -3.495171 -4.291594 0
M  V30 END ATOM
M  V30 BEGIN BOND
M  V30 1 1 1 2
M  V30 2 2 2 3
M  V30 3 1 3 4
M  V30 4 1 4 5
M  V30 5 2 5 6
M  V30 6 1 6 7
M  V30 7 1 7 8
M  V30 8 2 8 9
M  V30 9 1 9 10
M  V30 10 1 10 11
M  V30 11 1 11 12
M  V30 12 2 12 13
M  V30 13 1 12 14
M  V30 14 1 14 15
M  V30 15 1 15 16
M  V30 16 2 16 17
M  V30 17 1 17 18
M  V30 18 2 18 19
M  V30 19 1 19 20
M  V30 20 2 20 21
M  V30 21 1 21 22
M  V30 22 1 22 23
M  V30 23 1 23 24
M  V30 24 1 24 25
M  V30 25 1 24 26
M  V30 26 2 10 27
M  V30 27 1 27 28
M  V30 28 2 28 29
M  V30 29 2 4 30
M  V30 30 1 30 31
M  V30 31 2 31 32
M  V30 32 1 32 2
M  V30 33 1 29 5
M  V30 34 1 29 8
M  V30 35 1 21 16
M  V30 36 1 1 33
M  V30 37 1 1 34
M  V30 38 1 1 35
M  V30 39 1 3 36
M  V30 40 1 7 37
M  V30 41 1 9 38
M  V30 42 1 11 39
M  V30 43 1 14 40
M  V30 44 1 15 41
M  V30 45 1 15 42
M  V30 46 1 17 43
M  V30 47 1 18 44
M  V30 48 1 19 45
M  V30 49 1 20 46
M  V30 50 1 23 47
M  V30 51 1 23 48
M  V30 52 1 24 49
M  V30 53 1 28 50
M  V30 54 1 30 51
M  V30 55 1 31 52
M  V30 END BOND
M  V30 END CTAB
M  END
>  <Dataset>  (389) 
ChEMBL_Kinases

>  <Ligand_Instance>  (389) 
nan

>  <PDB_ID>  (389) 
nan

>  <Standardized_SMILES>  (389) 
Cc1cc(-c2n[nH]c3cc(NC(=O)NCc4ccccc4OCC(F)F)ncc23)ccn1

>  <Name>  (389) 
nan

>  <Pocket>  (389) 
nan

>  <ATP_Site>  (389) 
nan

>  <Peripheral>  (389) 
nan

>  <Num_H_Atoms_ProtBoundConf>  (389) 
nan

>  <Num_Resolved_Atoms>  (389) 
nan

>  <Num_Not_Resolved_Atoms>  (389) 
nan

$$$$
CHEMBL3662981
     RDKit          3D

  0  0  0  0  0  0  0  0  0  0999 V3000
M  V30 BEGIN CTAB
M  V30 COUNTS 51 54 0 0 0
M  V30 BEGIN ATOM
M  V30 1 C 2.637959 -0.307608 -3.346644 0
M  V30 2 C 3.636746 -0.827406 -2.341327 0
M  V30 3 O 3.888081 0.150379 -1.354970 0
M  V30 4 C 4.779526 -0.121818 -0.331001 0
M  V30 5 N 5.449039 -1.280085 -0.199657 0
M  V30 6 C 6.313284 -1.501116 0.811297 0
M  V30 7 C 6.512944 -0.504149 1.736319 0
M  V30 8 C 5.815000 0.701405 1.599022 0
M  V30 9 C 4.916857 0.923496 0.544843 0
M  V30 10 C 4.281971 2.254370 0.652970 0
M  V30 11 N 3.027041 2.139299 1.342682 0
M  V30 12 C 1.748616 1.569458 1.301559 0
M  V30 13 O 1.537646 0.878548 0.301980 0
M  V30 14 N 0.747048 1.721589 2.264388 0
M  V30 15 C -0.489410 1.055764 2.031391 0
M  V30 16 C -1.515299 1.692886 1.335350 0
M  V30 17 C -2.672782 0.955302 1.166149 0
M  V30 18 N -3.818549 1.273184 0.555115 0
M  V30 19 N -4.633201 0.223126 0.660696 0
M  V30 20 C -4.035000 -0.778853 1.333544 0
M  V30 21 C -4.578132 -2.092696 1.663817 0
M  V30 22 C -4.496774 -2.727287 2.865675 0
M  V30 23 C -5.070819 -3.991116 3.025195 0
M  V30 24 N -5.700715 -4.576641 1.994562 0
M  V30 25 C -5.807911 -4.002075 0.805046 0
M  V30 26 C -6.506076 -4.665278 -0.316576 0
M  V30 27 C -5.243576 -2.753361 0.638665 0
M  V30 28 C -2.774609 -0.324072 1.665155 0
M  V30 29 C -1.754952 -0.918944 2.340719 0
M  V30 30 N -0.618612 -0.210980 2.513620 0
M  V30 31 H 2.719936 -0.979517 -4.230773 0
M  V30 32 H 2.879851 0.732928 -3.584089 0
M  V30 33 H 1.621283 -0.415765 -2.945795 0
M  V30 34 H 4.596487 -1.103826 -2.867048 0
M  V30 35 H 3.317464 -1.767263 -1.855528 0
M  V30 36 H 6.793347 -2.471211 0.813535 0
M  V30 37 H 7.204820 -0.689621 2.539555 0
M  V30 38 H 6.055435 1.406687 2.386716 0
M  V30 39 H 3.983616 2.542178 -0.413069 0
M  V30 40 H 4.950110 3.003328 1.063359 0
M  V30 41 H 3.109289 2.720617 2.247108 0
M  V30 42 H 0.931207 2.306754 3.107279 0
M  V30 43 H -1.352732 2.700700 0.976375 0
M  V30 44 H -4.017183 2.199230 0.080732 0
M  V30 45 H -3.976969 -2.206379 3.659293 0
M  V30 46 H -4.934383 -4.388522 4.036154 0
M  V30 47 H -7.590304 -4.777789 -0.133197 0
M  V30 48 H -6.088521 -5.655782 -0.584290 0
M  V30 49 H -6.418831 -4.030858 -1.239652 0
M  V30 50 H -5.338893 -2.289754 -0.347703 0
M  V30 51 H -1.772669 -1.918166 2.756114 0
M  V30 END ATOM
M  V30 BEGIN BOND
M  V30 1 1 1 2
M  V30 2 1 2 3
M  V30 3 1 3 4
M  V30 4 2 4 5
M  V30 5 1 5 6
M  V30 6 2 6 7
M  V30 7 1 7 8
M  V30 8 2 8 9
M  V30 9 1 9 10
M  V30 10 1 10 11
M  V30 11 1 11 12
M  V30 12 2 12 13
M  V30 13 1 12 14
M  V30 14 1 14 15
M  V30 15 2 15 16
M  V30 16 1 16 17
M  V30 17 1 17 18
M  V30 18 1 18 19
M  V30 19 2 19 20
M  V30 20 1 20 21
M  V30 21 2 21 22
M  V30 22 1 22 23
M  V30 23 2 23 24
M  V30 24 1 24 25
M  V30 25 1 25 26
M  V30 26 2 25 27
M  V30 27 1 20 28
M  V30 28 1 28 29
M  V30 29 2 29 30
M  V30 30 1 9 4
M  V30 31 1 30 15
M  V30 32 2 28 17
M  V30 33 1 27 21
M  V30 34 1 1 31
M  V30 35 1 1 32
M  V30 36 1 1 33
M  V30 37 1 2 34
M  V30 38 1 2 35
M  V30 39 1 6 36
M  V30 40 1 7 37
M  V30 41 1 8 38
M  V30 42 1 10 39
M  V30 43 1 10 40
M  V30 44 1 11 41
M  V30 45 1 14 42
M  V30 46 1 16 43
M  V30 47 1 18 44
M  V30 48 1 22 45
M  V30 49 1 23 46
M  V30 50 1 26 47
M  V30 51 1 26 48
M  V30 52 1 26 49
M  V30 53 1 27 50
M  V30 54 1 29 51
M  V30 END BOND
M  V30 END CTAB
M  END
>  <Dataset>  (390) 
ChEMBL_Kinases

>  <Ligand_Instance>  (390) 
nan

>  <PDB_ID>  (390) 
nan

>  <Standardized_SMILES>  (390) 
CCOc1ncccc1CNC(=O)Nc1cc2[nH]nc(-c3ccnc(C)c3)c2cn1

>  <Name>  (390) 
nan

>  <Pocket>  (390) 
nan

>  <ATP_Site>  (390) 
nan

>  <Peripheral>  (390) 
nan

>  <Num_H_Atoms_ProtBoundConf>  (390) 
nan

>  <Num_Resolved_Atoms>  (390) 
nan

>  <Num_Not_Resolved_Atoms>  (390) 
nan

$$$$
CHEMBL3662973
     RDKit          3D

  0  0  0  0  0  0  0  0  0  0999 V3000
M  V30 BEGIN CTAB
M  V30 COUNTS 44 47 0 0 0
M  V30 BEGIN ATOM
M  V30 1 C -0.254764 -5.412323 -2.839892 0
M  V30 2 C 0.341260 -5.646428 -1.486150 0
M  V30 3 C 1.106526 -4.569906 -1.024273 0
M  V30 4 C 1.675673 -4.745846 0.228362 0
M  V30 5 C 2.503677 -3.724957 0.873305 0
M  V30 6 N 3.686909 -3.868467 1.516749 0
M  V30 7 N 4.113920 -2.682669 1.967808 0
M  V30 8 C 3.237706 -1.706632 1.645142 0
M  V30 9 C 3.197553 -0.331425 1.863141 0
M  V30 10 C 2.090390 0.315734 1.349437 0
M  V30 11 N 2.041399 1.721215 1.571578 0
M  V30 12 C 0.956488 2.437286 1.041333 0
M  V30 13 O 0.095450 1.797317 0.398939 0
M  V30 14 N 0.716589 3.817757 1.146717 0
M  V30 15 C -0.191721 4.863869 0.773557 0
M  V30 16 C -1.591603 4.687105 1.232862 0
M  V30 17 N -1.872340 5.218375 2.426055 0
M  V30 18 C -3.038412 5.148083 3.068237 0
M  V30 19 C -4.092341 4.475197 2.494743 0
M  V30 20 F -5.333559 4.320545 3.031956 0
M  V30 21 C -3.866499 3.908417 1.267569 0
M  V30 22 C -2.626712 4.000912 0.616105 0
M  V30 23 Cl -2.345589 3.338093 -0.974342 0
M  V30 24 N 1.116507 -0.328580 0.685231 0
M  V30 25 C 1.155824 -1.674084 0.471882 0
M  V30 26 C 2.237743 -2.374578 0.961618 0
M  V30 27 C 1.457329 -5.931444 0.913946 0
M  V30 28 C 0.685991 -6.971983 0.407374 0
M  V30 29 N 0.142859 -6.779668 -0.810989 0
M  V30 30 H -1.174302 -4.798654 -2.652215 0
M  V30 31 H 0.436531 -4.927032 -3.532558 0
M  V30 32 H -0.619590 -6.397450 -3.194725 0
M  V30 33 H 1.267623 -3.653357 -1.569879 0
M  V30 34 H 4.982424 -2.451896 2.499239 0
M  V30 35 H 3.998041 0.145765 2.400364 0
M  V30 36 H 2.759248 2.247725 2.105825 0
M  V30 37 H 1.525997 4.225189 1.728199 0
M  V30 38 H -0.218471 4.907619 -0.360140 0
M  V30 39 H 0.166739 5.824611 1.133732 0
M  V30 40 H -3.218492 5.596571 4.039971 0
M  V30 41 H -4.589258 3.340809 0.675880 0
M  V30 42 H 0.307104 -2.061529 -0.072815 0
M  V30 43 H 1.893002 -6.085483 1.888992 0
M  V30 44 H 0.535036 -7.884621 0.969717 0
M  V30 END ATOM
M  V30 BEGIN BOND
M  V30 1 1 1 2
M  V30 2 2 2 3
M  V30 3 1 3 4
M  V30 4 1 4 5
M  V30 5 2 5 6
M  V30 6 1 6 7
M  V30 7 1 7 8
M  V30 8 2 8 9
M  V30 9 1 9 10
M  V30 10 1 10 11
M  V30 11 1 11 12
M  V30 12 2 12 13
M  V30 13 1 12 14
M  V30 14 1 14 15
M  V30 15 1 15 16
M  V30 16 2 16 17
M  V30 17 1 17 18
M  V30 18 2 18 19
M  V30 19 1 19 20
M  V30 20 1 19 21
M  V30 21 2 21 22
M  V30 22 1 22 23
M  V30 23 2 10 24
M  V30 24 1 24 25
M  V30 25 2 25 26
M  V30 26 2 4 27
M  V30 27 1 27 28
M  V30 28 2 28 29
M  V30 29 1 29 2
M  V30 30 1 26 5
M  V30 31 1 26 8
M  V30 32 1 22 16
M  V30 33 1 1 30
M  V30 34 1 1 31
M  V30 35 1 1 32
M  V30 36 1 3 33
M  V30 37 1 7 34
M  V30 38 1 9 35
M  V30 39 1 11 36
M  V30 40 1 14 37
M  V30 41 1 15 38
M  V30 42 1 15 39
M  V30 43 1 18 40
M  V30 44 1 21 41
M  V30 45 1 25 42
M  V30 46 1 27 43
M  V30 47 1 28 44
M  V30 END BOND
M  V30 END CTAB
M  END
>  <Dataset>  (391) 
ChEMBL_Kinases

>  <Ligand_Instance>  (391) 
nan

>  <PDB_ID>  (391) 
nan

>  <Standardized_SMILES>  (391) 
Cc1cc(-c2n[nH]c3cc(NC(=O)NCc4ncc(F)cc4Cl)ncc23)ccn1

>  <Name>  (391) 
nan

>  <Pocket>  (391) 
nan

>  <ATP_Site>  (391) 
nan

>  <Peripheral>  (391) 
nan

>  <Num_H_Atoms_ProtBoundConf>  (391) 
nan

>  <Num_Resolved_Atoms>  (391) 
nan

>  <Num_Not_Resolved_Atoms>  (391) 
nan

$$$$
CHEMBL3662871
     RDKit          3D

  0  0  0  0  0  0  0  0  0  0999 V3000
M  V30 BEGIN CTAB
M  V30 COUNTS 65 69 0 0 0
M  V30 BEGIN ATOM
M  V30 1 C 1.747075 -2.274190 2.375793 0
M  V30 2 C 0.837075 -1.207765 2.903952 0
M  V30 3 C 0.084579 -1.750653 4.113916 0
M  V30 4 C 1.599113 -0.033491 3.347513 0
M  V30 5 N 2.364904 0.529917 4.279773 0
M  V30 6 N 2.718951 1.768252 3.939330 0
M  V30 7 C 2.166587 2.051605 2.722730 0
M  V30 8 N 2.230400 3.229967 1.907841 0
M  V30 9 C 3.213529 3.487752 0.915642 0
M  V30 10 O 4.143355 2.677542 0.658184 0
M  V30 11 C 3.111211 4.751260 0.185270 0
M  V30 12 C 4.044395 5.051488 -0.792582 0
M  V30 13 C 3.920397 6.250713 -1.463224 0
M  V30 14 C 2.918688 7.165562 -1.212862 0
M  V30 15 C 1.998873 6.820616 -0.217350 0
M  V30 16 N 2.135904 5.652491 0.422255 0
M  V30 17 C 1.470438 0.913990 2.368686 0
M  V30 18 C 0.623691 0.330958 1.306478 0
M  V30 19 N -0.120578 -0.734503 1.911231 0
M  V30 20 C -1.409274 -1.257845 1.689442 0
M  V30 21 O -1.901163 -2.218472 2.335277 0
M  V30 22 C -2.228319 -0.607671 0.604952 0
M  V30 23 F -2.323179 0.729573 0.952704 0
M  V30 24 C -1.561382 -0.697338 -0.727187 0
M  V30 25 C -2.433069 -1.424429 -1.746948 0
M  V30 26 N -2.825803 -2.624128 -1.154316 0
M  V30 27 C -2.768988 -3.817255 -1.878187 0
M  V30 28 C -1.315038 -4.057542 -2.306227 0
M  V30 29 C -1.215586 -5.532205 -2.685368 0
M  V30 30 O -1.086979 -6.228557 -1.471780 0
M  V30 31 C -2.011276 -5.798241 -0.533532 0
M  V30 32 C -3.188954 -5.053974 -1.170013 0
M  V30 33 C -3.722926 -2.512127 -0.074381 0
M  V30 34 C -3.621826 -1.172925 0.622702 0
M  V30 35 H 2.764596 -2.212759 2.796649 0
M  V30 36 H 1.708827 -2.254724 1.272049 0
M  V30 37 H 1.301134 -3.267081 2.663640 0
M  V30 38 H -0.307975 -2.766620 3.958998 0
M  V30 39 H 0.875208 -1.856854 4.912589 0
M  V30 40 H -0.636420 -1.026952 4.511244 0
M  V30 41 H 2.641059 0.037789 5.164504 0
M  V30 42 H 1.457980 3.908327 2.118256 0
M  V30 43 H 4.873892 4.379319 -1.055112 0
M  V30 44 H 4.607715 6.567394 -2.245187 0
M  V30 45 H 2.816143 8.110486 -1.737197 0
M  V30 46 H 1.173482 7.504491 0.034166 0
M  V30 47 H 1.335747 -0.029698 0.513063 0
M  V30 48 H -0.039062 1.122214 0.944935 0
M  V30 49 H -0.662382 -1.347947 -0.601005 0
M  V30 50 H -1.327656 0.278257 -1.193663 0
M  V30 51 H -3.333354 -0.761314 -1.887610 0
M  V30 52 H -1.940448 -1.491213 -2.705919 0
M  V30 53 H -3.347294 -3.723720 -2.821181 0
M  V30 54 H -1.062887 -3.448535 -3.192990 0
M  V30 55 H -0.598171 -3.898827 -1.492842 0
M  V30 56 H -2.083113 -5.892456 -3.250709 0
M  V30 57 H -0.242690 -5.691228 -3.222833 0
M  V30 58 H -1.576821 -5.246303 0.299617 0
M  V30 59 H -2.460326 -6.739020 -0.102720 0
M  V30 60 H -3.615180 -5.807014 -1.895993 0
M  V30 61 H -3.937473 -4.954348 -0.388572 0
M  V30 62 H -3.632820 -3.272911 0.725398 0
M  V30 63 H -4.759344 -2.590087 -0.466740 0
M  V30 64 H -4.308381 -0.416802 0.142111 0
M  V30 65 H -3.959871 -1.228046 1.678132 0
M  V30 END ATOM
M  V30 BEGIN BOND
M  V30 1 1 1 2
M  V30 2 1 2 3
M  V30 3 1 2 4
M  V30 4 1 4 5
M  V30 5 1 5 6
M  V30 6 2 6 7
M  V30 7 1 7 8
M  V30 8 1 8 9
M  V30 9 2 9 10
M  V30 10 1 9 11
M  V30 11 2 11 12
M  V30 12 1 12 13
M  V30 13 2 13 14
M  V30 14 1 14 15
M  V30 15 2 15 16
M  V30 16 1 7 17
M  V30 17 1 17 18
M  V30 18 1 18 19
M  V30 19 1 19 20
M  V30 20 2 20 21
M  V30 21 1 20 22
M  V30 22 1 22 23
M  V30 23 1 22 24
M  V30 24 1 24 25
M  V30 25 1 25 26
M  V30 26 1 26 27
M  V30 27 1 27 28
M  V30 28 1 28 29
M  V30 29 1 29 30
M  V30 30 1 30 31
M  V30 31 1 31 32
M  V30 32 1 26 33
M  V30 33 1 33 34
M  V30 34 1 19 2
M  V30 35 1 34 22
M  V30 36 2 17 4
M  V30 37 1 32 27
M  V30 38 1 16 11
M  V30 39 1 1 35
M  V30 40 1 1 36
M  V30 41 1 1 37
M  V30 42 1 3 38
M  V30 43 1 3 39
M  V30 44 1 3 40
M  V30 45 1 5 41
M  V30 46 1 8 42
M  V30 47 1 12 43
M  V30 48 1 13 44
M  V30 49 1 14 45
M  V30 50 1 15 46
M  V30 51 1 18 47
M  V30 52 1 18 48
M  V30 53 1 24 49
M  V30 54 1 24 50
M  V30 55 1 25 51
M  V30 56 1 25 52
M  V30 57 1 27 53
M  V30 58 1 28 54
M  V30 59 1 28 55
M  V30 60 1 29 56
M  V30 61 1 29 57
M  V30 62 1 31 58
M  V30 63 1 31 59
M  V30 64 1 32 60
M  V30 65 1 32 61
M  V30 66 1 33 62
M  V30 67 1 33 63
M  V30 68 1 34 64
M  V30 69 1 34 65
M  V30 END BOND
M  V30 END CTAB
M  END
>  <Dataset>  (392) 
ChEMBL_Kinases

>  <Ligand_Instance>  (392) 
nan

>  <PDB_ID>  (392) 
nan

>  <Standardized_SMILES>  (392) 
CC1(C)c2[nH]nc(NC(=O)c3ccccn3)c2CN1C(=O)C1(F)CCN(C2CCOCC2)CC1

>  <Name>  (392) 
nan

>  <Pocket>  (392) 
nan

>  <ATP_Site>  (392) 
nan

>  <Peripheral>  (392) 
nan

>  <Num_H_Atoms_ProtBoundConf>  (392) 
nan

>  <Num_Resolved_Atoms>  (392) 
nan

>  <Num_Not_Resolved_Atoms>  (392) 
nan

$$$$
CHEMBL3662870
     RDKit          3D

  0  0  0  0  0  0  0  0  0  0999 V3000
M  V30 BEGIN CTAB
M  V30 COUNTS 61 65 0 0 0
M  V30 BEGIN ATOM
M  V30 1 C -1.497027 -1.121723 4.779766 0
M  V30 2 C -0.163015 -1.325633 4.080601 0
M  V30 3 C 0.786010 -2.133965 4.903431 0
M  V30 4 C 0.429270 0.050354 3.910574 0
M  V30 5 N 0.554763 1.333097 4.342894 0
M  V30 6 N 1.381059 1.978515 3.503557 0
M  V30 7 C 1.807590 1.182752 2.536919 0
M  V30 8 N 2.685287 1.457417 1.451956 0
M  V30 9 C 3.281681 2.712333 1.220933 0
M  V30 10 O 3.061020 3.669631 1.980125 0
M  V30 11 C 4.182799 2.912714 0.068435 0
M  V30 12 C 4.767034 4.141148 -0.157455 0
M  V30 13 C 5.613679 4.326372 -1.241007 0
M  V30 14 C 5.878932 3.270190 -2.108730 0
M  V30 15 C 5.277458 2.048495 -1.855822 0
M  V30 16 N 4.463694 1.920500 -0.790627 0
M  V30 17 C 1.211653 -0.036857 2.785980 0
M  V30 18 C 1.037293 -1.449780 2.360448 0
M  V30 19 N -0.327233 -1.795667 2.724696 0
M  V30 20 C -1.545491 -2.348573 2.247414 0
M  V30 21 O -2.582649 -2.495123 2.922496 0
M  V30 22 C -1.751962 -2.830809 0.871093 0
M  V30 23 F -0.905087 -3.827419 0.482281 0
M  V30 24 C -3.179982 -3.379673 0.750826 0
M  V30 25 C -3.743810 -3.024089 -0.594299 0
M  V30 26 N -2.714218 -3.100676 -1.579284 0
M  V30 27 C -3.170594 -3.450085 -2.888084 0
M  V30 28 C -4.176037 -2.511187 -3.513170 0
M  V30 29 C -3.297481 -2.491513 -4.738124 0
M  V30 30 C -2.172944 -3.171877 -3.972703 0
M  V30 31 C -1.729208 -2.069765 -1.512613 0
M  V30 32 C -1.692563 -1.606723 -0.050828 0
M  V30 33 H -1.959799 -2.048924 5.127277 0
M  V30 34 H -1.283472 -0.494248 5.695101 0
M  V30 35 H -2.128498 -0.521443 4.085368 0
M  V30 36 H 1.792108 -1.649593 4.986759 0
M  V30 37 H 0.830581 -3.161367 4.512126 0
M  V30 38 H 0.331790 -2.206526 5.933572 0
M  V30 39 H 1.606360 2.965087 3.657504 0
M  V30 40 H 2.925744 0.710383 0.765265 0
M  V30 41 H 4.589829 4.988925 0.489421 0
M  V30 42 H 6.107752 5.240530 -1.491122 0
M  V30 43 H 6.516415 3.290911 -2.980722 0
M  V30 44 H 5.381476 1.139095 -2.431131 0
M  V30 45 H 1.700896 -2.102271 3.001797 0
M  V30 46 H 1.264192 -1.553152 1.300628 0
M  V30 47 H -3.826543 -2.955176 1.534528 0
M  V30 48 H -3.183965 -4.472994 0.835863 0
M  V30 49 H -4.206469 -2.004414 -0.543839 0
M  V30 50 H -4.542925 -3.757109 -0.898762 0
M  V30 51 H -3.520243 -4.491509 -2.921114 0
M  V30 52 H -4.340677 -1.552043 -2.999178 0
M  V30 53 H -5.142154 -3.027079 -3.777481 0
M  V30 54 H -3.601614 -3.131758 -5.576060 0
M  V30 55 H -3.046136 -1.428910 -4.989840 0
M  V30 56 H -1.762220 -4.093294 -4.469945 0
M  V30 57 H -1.333803 -2.506817 -3.748132 0
M  V30 58 H -1.923149 -1.182889 -2.118936 0
M  V30 59 H -0.732702 -2.461740 -1.801462 0
M  V30 60 H -2.540107 -0.968316 0.191551 0
M  V30 61 H -0.770405 -1.056355 0.144718 0
M  V30 END ATOM
M  V30 BEGIN BOND
M  V30 1 1 1 2
M  V30 2 1 2 3
M  V30 3 1 2 4
M  V30 4 2 4 5
M  V30 5 1 5 6
M  V30 6 1 6 7
M  V30 7 1 7 8
M  V30 8 1 8 9
M  V30 9 2 9 10
M  V30 10 1 9 11
M  V30 11 2 11 12
M  V30 12 1 12 13
M  V30 13 2 13 14
M  V30 14 1 14 15
M  V30 15 2 15 16
M  V30 16 2 7 17
M  V30 17 1 17 18
M  V30 18 1 18 19
M  V30 19 1 19 20
M  V30 20 2 20 21
M  V30 21 1 20 22
M  V30 22 1 22 23
M  V30 23 1 22 24
M  V30 24 1 24 25
M  V30 25 1 25 26
M  V30 26 1 26 27
M  V30 27 1 27 28
M  V30 28 1 28 29
M  V30 29 1 29 30
M  V30 30 1 26 31
M  V30 31 1 31 32
M  V30 32 1 19 2
M  V30 33 1 32 22
M  V30 34 1 17 4
M  V30 35 1 30 27
M  V30 36 1 16 11
M  V30 37 1 1 33
M  V30 38 1 1 34
M  V30 39 1 1 35
M  V30 40 1 3 36
M  V30 41 1 3 37
M  V30 42 1 3 38
M  V30 43 1 6 39
M  V30 44 1 8 40
M  V30 45 1 12 41
M  V30 46 1 13 42
M  V30 47 1 14 43
M  V30 48 1 15 44
M  V30 49 1 18 45
M  V30 50 1 18 46
M  V30 51 1 24 47
M  V30 52 1 24 48
M  V30 53 1 25 49
M  V30 54 1 25 50
M  V30 55 1 27 51
M  V30 56 1 28 52
M  V30 57 1 28 53
M  V30 58 1 29 54
M  V30 59 1 29 55
M  V30 60 1 30 56
M  V30 61 1 30 57
M  V30 62 1 31 58
M  V30 63 1 31 59
M  V30 64 1 32 60
M  V30 65 1 32 61
M  V30 END BOND
M  V30 END CTAB
M  END
>  <Dataset>  (393) 
ChEMBL_Kinases

>  <Ligand_Instance>  (393) 
nan

>  <PDB_ID>  (393) 
nan

>  <Standardized_SMILES>  (393) 
CC1(C)c2n[nH]c(NC(=O)c3ccccn3)c2CN1C(=O)C1(F)CCN(C2CCC2)CC1

>  <Name>  (393) 
nan

>  <Pocket>  (393) 
nan

>  <ATP_Site>  (393) 
nan

>  <Peripheral>  (393) 
nan

>  <Num_H_Atoms_ProtBoundConf>  (393) 
nan

>  <Num_Resolved_Atoms>  (393) 
nan

>  <Num_Not_Resolved_Atoms>  (393) 
nan

$$$$
CHEMBL3662869
     RDKit          3D

  0  0  0  0  0  0  0  0  0  0999 V3000
M  V30 BEGIN CTAB
M  V30 COUNTS 66 69 0 0 0
M  V30 BEGIN ATOM
M  V30 1 C 2.399234 -0.971301 4.052632 0
M  V30 2 O 2.961923 -0.415246 2.901865 0
M  V30 3 C 2.221982 0.763927 2.614848 0
M  V30 4 C 2.738252 1.444140 1.396832 0
M  V30 5 N 2.163831 2.617476 0.954739 0
M  V30 6 C 2.689162 3.184819 -0.259885 0
M  V30 7 C 1.598533 2.908378 -1.308433 0 CFG=2
M  V30 8 C 0.825381 4.169529 -1.641330 0
M  V30 9 N 0.719607 1.843277 -0.874208 0
M  V30 10 C 0.693724 0.634282 -1.623874 0
M  V30 11 O 1.538834 0.960223 -2.481469 0
M  V30 12 N 0.033969 -0.631456 -1.609696 0
M  V30 13 C -0.972008 -1.237935 -0.734683 0
M  V30 14 C -0.547606 -2.662909 -0.764484 0
M  V30 15 C -0.661838 -3.843086 -0.051745 0
M  V30 16 N -1.383810 -4.036638 1.184735 0
M  V30 17 C -2.758182 -4.412914 1.049424 0
M  V30 18 O -3.203416 -4.537973 -0.123375 0
M  V30 19 C -3.555298 -4.627423 2.247438 0
M  V30 20 C -4.883138 -4.987813 2.067526 0
M  V30 21 C -5.793094 -5.232630 3.077104 0
M  V30 22 C -5.319212 -5.101632 4.382167 0
M  V30 23 F -6.128804 -5.319099 5.450090 0
M  V30 24 C -3.995057 -4.742330 4.554733 0
M  V30 25 N -3.149419 -4.514984 3.530740 0
M  V30 26 N 0.035518 -4.756197 -0.748482 0
M  V30 27 N 0.551305 -4.185626 -1.824708 0
M  V30 28 C 0.219557 -2.884051 -1.883575 0
M  V30 29 C 0.334230 -1.609653 -2.638835 0
M  V30 30 C 1.693624 -1.446150 -3.260632 0
M  V30 31 C -0.726773 -1.624038 -3.714724 0
M  V30 32 C -0.050651 2.198273 0.334513 0
M  V30 33 C 0.855898 3.015200 1.250719 0 CFG=1
M  V30 34 C 0.415714 3.105763 2.653488 0
M  V30 35 H 2.964046 -1.904134 4.302973 0
M  V30 36 H 1.350544 -1.310593 3.805709 0
M  V30 37 H 2.364427 -0.270754 4.911522 0
M  V30 38 H 2.272381 1.348108 3.544307 0
M  V30 39 H 1.183821 0.382391 2.503922 0
M  V30 40 H 3.865689 1.533694 1.502958 0
M  V30 41 H 2.651608 0.682861 0.559183 0
M  V30 42 H 3.625131 2.651075 -0.508542 0
M  V30 43 H 2.868611 4.256430 -0.249564 0
M  V30 44 H 2.168897 2.652618 -2.221425 0
M  V30 45 H 1.364777 5.044921 -1.268680 0
M  V30 46 H 0.773932 4.323500 -2.761236 0
M  V30 47 H -0.240248 4.103652 -1.341496 0
M  V30 48 H -0.991859 -0.829920 0.273434 0
M  V30 49 H -1.983681 -1.187659 -1.221882 0
M  V30 50 H -0.997414 -3.927950 2.166966 0
M  V30 51 H -5.281458 -5.097704 1.056810 0
M  V30 52 H -6.810435 -5.508729 2.877279 0
M  V30 53 H -3.559887 -4.622282 5.551911 0
M  V30 54 H 1.143764 -4.642886 -2.560105 0
M  V30 55 H 2.462693 -1.159988 -2.546837 0
M  V30 56 H 1.975305 -2.463848 -3.621564 0
M  V30 57 H 1.631835 -0.721094 -4.071176 0
M  V30 58 H -1.189872 -0.611766 -3.713707 0
M  V30 59 H -0.365692 -1.910594 -4.707574 0
M  V30 60 H -1.545183 -2.335806 -3.437282 0
M  V30 61 H -0.342791 1.323760 0.926189 0
M  V30 62 H -0.940316 2.804308 0.063958 0
M  V30 63 H 0.747529 4.073969 0.827923 0
M  V30 64 H 1.273984 3.481345 3.268130 0
M  V30 65 H -0.335520 3.955640 2.761494 0
M  V30 66 H -0.109807 2.248928 3.084186 0
M  V30 END ATOM
M  V30 BEGIN BOND
M  V30 1 1 1 2
M  V30 2 1 2 3
M  V30 3 1 3 4
M  V30 4 1 4 5
M  V30 5 1 5 6
M  V30 6 1 6 7
M  V30 7 1 7 8
M  V30 8 1 7 9
M  V30 9 1 9 10
M  V30 10 2 10 11
M  V30 11 1 10 12
M  V30 12 1 12 13
M  V30 13 1 13 14
M  V30 14 1 14 15
M  V30 15 1 15 16
M  V30 16 1 16 17
M  V30 17 2 17 18
M  V30 18 1 17 19
M  V30 19 2 19 20
M  V30 20 1 20 21
M  V30 21 2 21 22
M  V30 22 1 22 23
M  V30 23 1 22 24
M  V30 24 2 24 25
M  V30 25 2 15 26
M  V30 26 1 26 27
M  V30 27 1 27 28
M  V30 28 1 28 29
M  V30 29 1 29 30
M  V30 30 1 29 31
M  V30 31 1 9 32
M  V30 32 1 32 33
M  V30 33 1 33 34
M  V30 34 1 33 5
M  V30 35 1 29 12
M  V30 36 2 28 14
M  V30 37 1 25 19
M  V30 38 1 1 35
M  V30 39 1 1 36
M  V30 40 1 1 37
M  V30 41 1 3 38
M  V30 42 1 3 39
M  V30 43 1 4 40
M  V30 44 1 4 41
M  V30 45 1 6 42
M  V30 46 1 6 43
M  V30 47 1 7 44 CFG=3
M  V30 48 1 8 45
M  V30 49 1 8 46
M  V30 50 1 8 47
M  V30 51 1 13 48
M  V30 52 1 13 49
M  V30 53 1 16 50
M  V30 54 1 20 51
M  V30 55 1 21 52
M  V30 56 1 24 53
M  V30 57 1 27 54
M  V30 58 1 30 55
M  V30 59 1 30 56
M  V30 60 1 30 57
M  V30 61 1 31 58
M  V30 62 1 31 59
M  V30 63 1 31 60
M  V30 64 1 32 61
M  V30 65 1 32 62
M  V30 66 1 33 63 CFG=3
M  V30 67 1 34 64
M  V30 68 1 34 65
M  V30 69 1 34 66
M  V30 END BOND
M  V30 END CTAB
M  END
>  <Dataset>  (394) 
ChEMBL_Kinases

>  <Ligand_Instance>  (394) 
nan

>  <PDB_ID>  (394) 
nan

>  <Standardized_SMILES>  (394) 
COCCN1C[C@H](C)N(C(=O)N2Cc3c(NC(=O)c4ccc(F)cn4)n[nH]c3C2(C)C)C[C@H]1C

>  <Name>  (394) 
nan

>  <Pocket>  (394) 
nan

>  <ATP_Site>  (394) 
nan

>  <Peripheral>  (394) 
nan

>  <Num_H_Atoms_ProtBoundConf>  (394) 
nan

>  <Num_Resolved_Atoms>  (394) 
nan

>  <Num_Not_Resolved_Atoms>  (394) 
nan

$$$$
CHEMBL3662868
     RDKit          3D

  0  0  0  0  0  0  0  0  0  0999 V3000
M  V30 BEGIN CTAB
M  V30 COUNTS 69 72 0 0 0
M  V30 BEGIN ATOM
M  V30 1 C 2.386736 -3.129438 3.479124 0
M  V30 2 O 2.329868 -2.454238 2.237661 0
M  V30 3 C 3.544051 -2.637969 1.592996 0
M  V30 4 C 3.540455 -1.926717 0.241713 0
M  V30 5 C 3.309526 -0.454178 0.494929 0
M  V30 6 N 3.293995 0.309933 -0.706363 0
M  V30 7 C 2.137770 -0.005999 -1.496024 0
M  V30 8 C 1.183167 1.171474 -1.577518 0 CFG=2
M  V30 9 C 1.557782 2.097723 -2.702477 0
M  V30 10 N 1.053869 1.826239 -0.291154 0
M  V30 11 C 0.023497 1.980554 0.708353 0
M  V30 12 O 0.393637 2.677738 1.718286 0
M  V30 13 N -1.323005 1.564168 0.889755 0
M  V30 14 C -2.231303 0.755737 0.065529 0
M  V30 15 C -2.785850 -0.174229 1.083480 0
M  V30 16 C -3.278916 -1.468289 1.237588 0
M  V30 17 N -3.412823 -2.468120 0.225861 0
M  V30 18 C -3.932237 -3.777502 0.442701 0
M  V30 19 O -4.298506 -4.075007 1.604909 0
M  V30 20 C -4.005782 -4.693182 -0.705359 0
M  V30 21 C -4.510252 -5.975967 -0.530577 0
M  V30 22 C -4.567263 -6.814369 -1.630812 0
M  V30 23 C -4.143454 -6.427843 -2.893620 0
M  V30 24 F -4.166459 -7.176587 -4.000133 0
M  V30 25 C -3.655529 -5.140110 -2.986020 0
M  V30 26 N -3.590137 -4.307857 -1.933227 0
M  V30 27 N -3.592186 -1.543880 2.542595 0
M  V30 28 N -3.334447 -0.420985 3.183904 0
M  V30 29 C -2.829527 0.454931 2.299391 0
M  V30 30 C -2.275145 1.788482 1.921538 0
M  V30 31 C -1.661581 2.468182 3.124466 0
M  V30 32 C -3.394756 2.667865 1.366150 0
M  V30 33 C 2.315845 2.462823 -0.012923 0
M  V30 34 C 3.469885 1.710524 -0.541843 0 CFG=1
M  V30 35 C 4.647747 1.969222 0.392254 0
M  V30 36 H 3.220411 -2.709203 4.102399 0
M  V30 37 H 1.435627 -3.023324 4.037356 0
M  V30 38 H 2.550708 -4.196344 3.241126 0
M  V30 39 H 4.332252 -2.199265 2.255064 0
M  V30 40 H 3.778889 -3.700120 1.466451 0
M  V30 41 H 2.771822 -2.414626 -0.356171 0
M  V30 42 H 4.504405 -2.089113 -0.277024 0
M  V30 43 H 2.289853 -0.374828 0.961927 0
M  V30 44 H 4.072212 -0.126660 1.226502 0
M  V30 45 H 1.605319 -0.882097 -1.076256 0
M  V30 46 H 2.432335 -0.273551 -2.531312 0
M  V30 47 H 0.204402 0.741266 -1.846298 0
M  V30 48 H 1.814196 3.111503 -2.347432 0
M  V30 49 H 0.707664 2.256706 -3.415256 0
M  V30 50 H 2.355612 1.641229 -3.351083 0
M  V30 51 H -2.983481 1.465847 -0.342329 0
M  V30 52 H -1.731978 0.222620 -0.749392 0
M  V30 53 H -3.106957 -2.217809 -0.741033 0
M  V30 54 H -4.842599 -6.298485 0.427544 0
M  V30 55 H -4.953446 -7.819795 -1.535169 0
M  V30 56 H -3.277200 -4.663355 -3.899552 0
M  V30 57 H -3.464588 -0.168327 4.187345 0
M  V30 58 H -1.404629 3.488816 2.856932 0
M  V30 59 H -0.814319 1.901298 3.494453 0
M  V30 60 H -2.408018 2.546033 3.952518 0
M  V30 61 H -3.704214 3.398149 2.164739 0
M  V30 62 H -2.958984 3.275051 0.552754 0
M  V30 63 H -4.271726 2.091886 1.076253 0
M  V30 64 H 2.324500 3.495556 -0.437163 0
M  V30 65 H 2.423836 2.515156 1.102805 0
M  V30 66 H 3.824130 2.110364 -1.531109 0
M  V30 67 H 5.480328 1.293200 0.166409 0
M  V30 68 H 4.946262 3.035038 0.205715 0
M  V30 69 H 4.257544 1.928274 1.417482 0
M  V30 END ATOM
M  V30 BEGIN BOND
M  V30 1 1 1 2
M  V30 2 1 2 3
M  V30 3 1 3 4
M  V30 4 1 4 5
M  V30 5 1 5 6
M  V30 6 1 6 7
M  V30 7 1 7 8
M  V30 8 1 8 9
M  V30 9 1 8 10
M  V30 10 1 10 11
M  V30 11 2 11 12
M  V30 12 1 11 13
M  V30 13 1 13 14
M  V30 14 1 14 15
M  V30 15 1 15 16
M  V30 16 1 16 17
M  V30 17 1 17 18
M  V30 18 2 18 19
M  V30 19 1 18 20
M  V30 20 2 20 21
M  V30 21 1 21 22
M  V30 22 2 22 23
M  V30 23 1 23 24
M  V30 24 1 23 25
M  V30 25 2 25 26
M  V30 26 2 16 27
M  V30 27 1 27 28
M  V30 28 1 28 29
M  V30 29 1 29 30
M  V30 30 1 30 31
M  V30 31 1 30 32
M  V30 32 1 10 33
M  V30 33 1 33 34
M  V30 34 1 34 35
M  V30 35 1 34 6
M  V30 36 1 30 13
M  V30 37 2 29 15
M  V30 38 1 26 20
M  V30 39 1 1 36
M  V30 40 1 1 37
M  V30 41 1 1 38
M  V30 42 1 3 39
M  V30 43 1 3 40
M  V30 44 1 4 41
M  V30 45 1 4 42
M  V30 46 1 5 43
M  V30 47 1 5 44
M  V30 48 1 7 45
M  V30 49 1 7 46
M  V30 50 1 8 47 CFG=3
M  V30 51 1 9 48
M  V30 52 1 9 49
M  V30 53 1 9 50
M  V30 54 1 14 51
M  V30 55 1 14 52
M  V30 56 1 17 53
M  V30 57 1 21 54
M  V30 58 1 22 55
M  V30 59 1 25 56
M  V30 60 1 28 57
M  V30 61 1 31 58
M  V30 62 1 31 59
M  V30 63 1 31 60
M  V30 64 1 32 61
M  V30 65 1 32 62
M  V30 66 1 32 63
M  V30 67 1 33 64
M  V30 68 1 33 65
M  V30 69 1 34 66 CFG=3
M  V30 70 1 35 67
M  V30 71 1 35 68
M  V30 72 1 35 69
M  V30 END BOND
M  V30 END CTAB
M  END
>  <Dataset>  (395) 
ChEMBL_Kinases

>  <Ligand_Instance>  (395) 
nan

>  <PDB_ID>  (395) 
nan

>  <Standardized_SMILES>  (395) 
COCCCN1C[C@H](C)N(C(=O)N2Cc3c(NC(=O)c4ccc(F)cn4)n[nH]c3C2(C)C)C[C@H]1C

>  <Name>  (395) 
nan

>  <Pocket>  (395) 
nan

>  <ATP_Site>  (395) 
nan

>  <Peripheral>  (395) 
nan

>  <Num_H_Atoms_ProtBoundConf>  (395) 
nan

>  <Num_Resolved_Atoms>  (395) 
nan

>  <Num_Not_Resolved_Atoms>  (395) 
nan

$$$$
CHEMBL3662867
     RDKit          3D

  0  0  0  0  0  0  0  0  0  0999 V3000
M  V30 BEGIN CTAB
M  V30 COUNTS 66 69 0 0 0
M  V30 BEGIN ATOM
M  V30 1 C -2.288388 -2.797271 1.779173 0
M  V30 2 C -1.410453 -2.413913 0.629648 0 CFG=2
M  V30 3 C -2.334720 -2.276333 -0.588103 0
M  V30 4 N -1.629767 -2.587228 -1.826789 0
M  V30 5 C -1.217313 -1.673679 -2.844087 0
M  V30 6 O -0.678487 -2.314080 -3.812293 0
M  V30 7 N -1.228845 -0.272386 -3.096578 0
M  V30 8 C -1.679756 0.900432 -2.335108 0
M  V30 9 C -0.457963 1.774003 -2.481794 0
M  V30 10 C 0.326733 2.743041 -1.894116 0
M  V30 11 N 0.132137 3.345689 -0.621587 0
M  V30 12 C 1.018623 4.365223 -0.116325 0
M  V30 13 O 1.930782 4.620013 -0.927734 0
M  V30 14 C 0.697478 4.890590 1.198819 0
M  V30 15 C 1.561070 5.865900 1.660449 0
M  V30 16 C 1.329822 6.428606 2.918748 0
M  V30 17 C 0.239123 5.965458 3.625291 0
M  V30 18 F -0.022977 6.486367 4.855946 0
M  V30 19 C -0.614468 4.991075 3.151608 0
M  V30 20 N -0.361940 4.472917 1.938726 0
M  V30 21 N 1.318019 3.004863 -2.764548 0
M  V30 22 N 1.188513 2.260991 -3.840094 0
M  V30 23 C 0.098781 1.485773 -3.700016 0
M  V30 24 C -0.792393 0.444279 -4.269780 0
M  V30 25 C -2.035130 1.100397 -4.878907 0
M  V30 26 C -0.081970 -0.393190 -5.299871 0
M  V30 27 C -1.389793 -4.013074 -1.864716 0 CFG=1
M  V30 28 C -0.226958 -4.437933 -2.715975 0
M  V30 29 C -1.117091 -4.475164 -0.438103 0
M  V30 30 N -0.410661 -3.424611 0.294708 0
M  V30 31 C 0.207524 -3.963854 1.469799 0
M  V30 32 C 1.026082 -2.956610 2.213832 0
M  V30 33 C 2.164634 -2.422186 1.378477 0
M  V30 34 O 1.680264 -1.818440 0.249675 0
M  V30 35 H -2.950643 -1.920992 1.968470 0
M  V30 36 H -2.993659 -3.624380 1.525558 0
M  V30 37 H -1.733209 -2.970601 2.698943 0
M  V30 38 H -0.944533 -1.451684 0.827552 0
M  V30 39 H -3.144540 -3.032288 -0.462095 0
M  V30 40 H -2.744752 -1.272662 -0.529064 0
M  V30 41 H -1.872199 0.691740 -1.275951 0
M  V30 42 H -2.549135 1.377349 -2.807416 0
M  V30 43 H -0.694043 3.026398 -0.037305 0
M  V30 44 H 2.422011 6.237917 1.113658 0
M  V30 45 H 1.973710 7.199227 3.336577 0
M  V30 46 H -1.476250 4.594246 3.657726 0
M  V30 47 H 1.800052 2.227353 -4.704092 0
M  V30 48 H -1.958375 0.958156 -5.993989 0
M  V30 49 H -2.950922 0.542726 -4.601904 0
M  V30 50 H -2.102553 2.164240 -4.611714 0
M  V30 51 H -0.822864 -1.082270 -5.742949 0
M  V30 52 H 0.236839 0.254361 -6.173779 0
M  V30 53 H 0.768876 -0.964646 -4.942236 0
M  V30 54 H -2.303500 -4.566191 -2.196310 0
M  V30 55 H -0.476029 -4.583925 -3.771720 0
M  V30 56 H 0.074735 -5.452878 -2.302145 0
M  V30 57 H 0.624227 -3.735819 -2.597127 0
M  V30 58 H -0.485618 -5.369690 -0.417600 0
M  V30 59 H -2.087079 -4.685158 0.039587 0
M  V30 60 H 0.920544 -4.759749 1.137507 0
M  V30 61 H -0.512627 -4.489432 2.131229 0
M  V30 62 H 0.459175 -2.070323 2.573992 0
M  V30 63 H 1.450351 -3.462648 3.122608 0
M  V30 64 H 2.903912 -3.226329 1.155950 0
M  V30 65 H 2.647786 -1.627286 2.013689 0
M  V30 66 H 2.317054 -1.782684 -0.496114 0
M  V30 END ATOM
M  V30 BEGIN BOND
M  V30 1 1 1 2
M  V30 2 1 2 3
M  V30 3 1 3 4
M  V30 4 1 4 5
M  V30 5 2 5 6
M  V30 6 1 5 7
M  V30 7 1 7 8
M  V30 8 1 8 9
M  V30 9 1 9 10
M  V30 10 1 10 11
M  V30 11 1 11 12
M  V30 12 2 12 13
M  V30 13 1 12 14
M  V30 14 2 14 15
M  V30 15 1 15 16
M  V30 16 2 16 17
M  V30 17 1 17 18
M  V30 18 1 17 19
M  V30 19 2 19 20
M  V30 20 2 10 21
M  V30 21 1 21 22
M  V30 22 1 22 23
M  V30 23 1 23 24
M  V30 24 1 24 25
M  V30 25 1 24 26
M  V30 26 1 4 27
M  V30 27 1 27 28
M  V30 28 1 27 29
M  V30 29 1 29 30
M  V30 30 1 30 31
M  V30 31 1 31 32
M  V30 32 1 32 33
M  V30 33 1 33 34
M  V30 34 1 30 2
M  V30 35 1 24 7
M  V30 36 2 23 9
M  V30 37 1 20 14
M  V30 38 1 1 35
M  V30 39 1 1 36
M  V30 40 1 1 37
M  V30 41 1 2 38 CFG=1
M  V30 42 1 3 39
M  V30 43 1 3 40
M  V30 44 1 8 41
M  V30 45 1 8 42
M  V30 46 1 11 43
M  V30 47 1 15 44
M  V30 48 1 16 45
M  V30 49 1 19 46
M  V30 50 1 22 47
M  V30 51 1 25 48
M  V30 52 1 25 49
M  V30 53 1 25 50
M  V30 54 1 26 51
M  V30 55 1 26 52
M  V30 56 1 26 53
M  V30 57 1 27 54 CFG=3
M  V30 58 1 28 55
M  V30 59 1 28 56
M  V30 60 1 28 57
M  V30 61 1 29 58
M  V30 62 1 29 59
M  V30 63 1 31 60
M  V30 64 1 31 61
M  V30 65 1 32 62
M  V30 66 1 32 63
M  V30 67 1 33 64
M  V30 68 1 33 65
M  V30 69 1 34 66
M  V30 END BOND
M  V30 END CTAB
M  END
>  <Dataset>  (396) 
ChEMBL_Kinases

>  <Ligand_Instance>  (396) 
nan

>  <PDB_ID>  (396) 
nan

>  <Standardized_SMILES>  (396) 
C[C@@H]1CN(C(=O)N2Cc3c(NC(=O)c4ccc(F)cn4)n[nH]c3C2(C)C)[C@@H](C)CN1CCCO

>  <Name>  (396) 
nan

>  <Pocket>  (396) 
nan

>  <ATP_Site>  (396) 
nan

>  <Peripheral>  (396) 
nan

>  <Num_H_Atoms_ProtBoundConf>  (396) 
nan

>  <Num_Resolved_Atoms>  (396) 
nan

>  <Num_Not_Resolved_Atoms>  (396) 
nan

$$$$
CHEMBL3662866
     RDKit          3D

  0  0  0  0  0  0  0  0  0  0999 V3000
M  V30 BEGIN CTAB
M  V30 COUNTS 63 66 0 0 0
M  V30 BEGIN ATOM
M  V30 1 C -1.578026 -3.465246 3.632373 0
M  V30 2 C -0.371672 -4.150167 3.075284 0 CFG=2
M  V30 3 C 0.736965 -3.130123 2.779670 0
M  V30 4 N 0.564765 -2.582879 1.447867 0
M  V30 5 C 0.130065 -1.380858 0.862628 0
M  V30 6 O 0.094523 -1.236833 -0.382428 0
M  V30 7 N -0.353558 -0.072717 0.946757 0
M  V30 8 C -0.664054 0.767449 -0.189422 0
M  V30 9 C 0.082981 2.037148 0.130458 0
M  V30 10 C 0.773320 3.145994 -0.366518 0
M  V30 11 N 0.955887 3.341837 -1.768014 0
M  V30 12 C -0.003874 4.084122 -2.532620 0
M  V30 13 O -1.019016 4.571885 -1.975603 0
M  V30 14 C 0.232555 4.257810 -3.982005 0
M  V30 15 C -0.706147 4.983774 -4.701416 0
M  V30 16 C -0.440200 5.121260 -6.061708 0
M  V30 17 C 0.676393 4.581620 -6.681370 0
M  V30 18 F 0.922203 4.723435 -8.005207 0
M  V30 19 C 1.565679 3.870103 -5.890862 0
M  V30 20 N 1.322710 3.725488 -4.561937 0
M  V30 21 N 1.134309 3.837404 0.749242 0
M  V30 22 N 0.709406 3.217442 1.822836 0
M  V30 23 C 0.049311 2.093006 1.506506 0
M  V30 24 C -0.705237 0.875532 1.972174 0
M  V30 25 C -0.286177 0.510956 3.361862 0
M  V30 26 C -2.165805 1.247688 1.981086 0
M  V30 27 C 0.984305 -3.633143 0.505374 0 CFG=1
M  V30 28 C 2.458278 -3.506371 0.196428 0
M  V30 29 C 0.677942 -4.942803 1.139627 0
M  V30 30 N -0.592058 -4.926896 1.889533 0
M  V30 31 C -0.936482 -6.312889 2.142829 0
M  V30 32 C -2.254434 -6.477946 2.852525 0
M  V30 33 O -3.310039 -5.940840 2.098776 0
M  V30 34 H -1.900333 -3.836044 4.628089 0
M  V30 35 H -1.390570 -2.362765 3.800971 0
M  V30 36 H -2.416451 -3.512249 2.935513 0
M  V30 37 H -0.012491 -4.870976 3.867826 0
M  V30 38 H 0.712695 -2.315356 3.538306 0
M  V30 39 H 1.711670 -3.623257 2.920076 0
M  V30 40 H -1.755664 1.029458 -0.207907 0
M  V30 41 H -0.381415 0.370568 -1.158835 0
M  V30 42 H 1.787805 2.956253 -2.291303 0
M  V30 43 H -1.600770 5.435548 -4.292721 0
M  V30 44 H -1.115187 5.670166 -6.702035 0
M  V30 45 H 2.444532 3.438108 -6.348325 0
M  V30 46 H 0.849552 3.530177 2.806314 0
M  V30 47 H -0.173232 1.498134 3.904910 0
M  V30 48 H -1.109486 0.011501 3.871041 0
M  V30 49 H 0.699896 0.054143 3.427480 0
M  V30 50 H -2.355446 2.228529 1.500843 0
M  V30 51 H -2.568485 1.323637 3.023397 0
M  V30 52 H -2.820163 0.513934 1.474942 0
M  V30 53 H 0.439639 -3.545725 -0.451345 0
M  V30 54 H 3.100861 -4.071186 0.893502 0
M  V30 55 H 2.787090 -2.454320 0.218289 0
M  V30 56 H 2.634689 -3.915325 -0.802979 0
M  V30 57 H 1.441841 -5.313741 1.847830 0
M  V30 58 H 0.500949 -5.740915 0.357534 0
M  V30 59 H -0.108425 -6.817016 2.687380 0
M  V30 60 H -1.031508 -6.848125 1.178713 0
M  V30 61 H -2.483127 -7.574649 2.936529 0
M  V30 62 H -2.306684 -6.045253 3.850717 0
M  V30 63 H -3.922066 -5.380065 2.610815 0
M  V30 END ATOM
M  V30 BEGIN BOND
M  V30 1 1 1 2
M  V30 2 1 2 3
M  V30 3 1 3 4
M  V30 4 1 4 5
M  V30 5 2 5 6
M  V30 6 1 5 7
M  V30 7 1 7 8
M  V30 8 1 8 9
M  V30 9 1 9 10
M  V30 10 1 10 11
M  V30 11 1 11 12
M  V30 12 2 12 13
M  V30 13 1 12 14
M  V30 14 2 14 15
M  V30 15 1 15 16
M  V30 16 2 16 17
M  V30 17 1 17 18
M  V30 18 1 17 19
M  V30 19 2 19 20
M  V30 20 2 10 21
M  V30 21 1 21 22
M  V30 22 1 22 23
M  V30 23 1 23 24
M  V30 24 1 24 25
M  V30 25 1 24 26
M  V30 26 1 4 27
M  V30 27 1 27 28
M  V30 28 1 27 29
M  V30 29 1 29 30
M  V30 30 1 30 31
M  V30 31 1 31 32
M  V30 32 1 32 33
M  V30 33 1 30 2
M  V30 34 1 24 7
M  V30 35 2 23 9
M  V30 36 1 20 14
M  V30 37 1 1 34
M  V30 38 1 1 35
M  V30 39 1 1 36
M  V30 40 1 2 37 CFG=1
M  V30 41 1 3 38
M  V30 42 1 3 39
M  V30 43 1 8 40
M  V30 44 1 8 41
M  V30 45 1 11 42
M  V30 46 1 15 43
M  V30 47 1 16 44
M  V30 48 1 19 45
M  V30 49 1 22 46
M  V30 50 1 25 47
M  V30 51 1 25 48
M  V30 52 1 25 49
M  V30 53 1 26 50
M  V30 54 1 26 51
M  V30 55 1 26 52
M  V30 56 1 27 53 CFG=3
M  V30 57 1 28 54
M  V30 58 1 28 55
M  V30 59 1 28 56
M  V30 60 1 29 57
M  V30 61 1 29 58
M  V30 62 1 31 59
M  V30 63 1 31 60
M  V30 64 1 32 61
M  V30 65 1 32 62
M  V30 66 1 33 63
M  V30 END BOND
M  V30 END CTAB
M  END
>  <Dataset>  (397) 
ChEMBL_Kinases

>  <Ligand_Instance>  (397) 
nan

>  <PDB_ID>  (397) 
nan

>  <Standardized_SMILES>  (397) 
C[C@@H]1CN(C(=O)N2Cc3c(NC(=O)c4ccc(F)cn4)n[nH]c3C2(C)C)[C@@H](C)CN1CCO

>  <Name>  (397) 
nan

>  <Pocket>  (397) 
nan

>  <ATP_Site>  (397) 
nan

>  <Peripheral>  (397) 
nan

>  <Num_H_Atoms_ProtBoundConf>  (397) 
nan

>  <Num_Resolved_Atoms>  (397) 
nan

>  <Num_Not_Resolved_Atoms>  (397) 
nan

$$$$
CHEMBL3662865
     RDKit          3D

  0  0  0  0  0  0  0  0  0  0999 V3000
M  V30 BEGIN CTAB
M  V30 COUNTS 69 72 0 0 0
M  V30 BEGIN ATOM
M  V30 1 C 4.871628 -4.203425 3.941299 0
M  V30 2 C 4.604448 -2.749535 3.730501 0
M  V30 3 N 4.884062 -1.839383 4.660802 0
M  V30 4 C 4.521873 -0.668339 4.141309 0
M  V30 5 C 4.599311 0.677551 4.721910 0
M  V30 6 C 4.013653 -0.855788 2.878228 0
M  V30 7 C 3.469494 -0.059617 1.816130 0
M  V30 8 O 3.041417 -0.511878 0.697429 0
M  V30 9 N 3.296600 1.338747 1.778803 0
M  V30 10 C 2.720554 1.912509 0.586724 0
M  V30 11 N 3.231761 2.380546 -0.562397 0
M  V30 12 N 2.270398 2.804623 -1.347036 0
M  V30 13 C 1.059163 2.651876 -0.783951 0
M  V30 14 C 1.338207 2.084332 0.447559 0
M  V30 15 C 0.041748 1.880239 1.143591 0
M  V30 16 N -0.873736 1.745067 0.026426 0
M  V30 17 C -1.966147 0.931357 -0.371237 0
M  V30 18 O -1.478200 0.635067 0.748300 0
M  V30 19 N -2.748342 -0.146271 0.048723 0
M  V30 20 C -2.749132 -0.981081 1.260012 0
M  V30 21 C -2.346787 -2.354119 0.824591 0 CFG=1
M  V30 22 C -3.134693 -3.359330 1.637742 0
M  V30 23 N -2.528422 -2.621972 -0.556069 0
M  V30 24 C -2.310670 -3.984513 -0.846242 0
M  V30 25 C -2.394446 -4.448312 -2.238389 0
M  V30 26 C -1.411689 -3.830094 -3.202455 0
M  V30 27 O -0.092193 -4.083875 -2.812936 0
M  V30 28 C -3.612671 -1.992635 -1.206047 0
M  V30 29 C -3.780360 -0.555136 -0.883793 0 CFG=2
M  V30 30 C -3.859472 0.331466 -2.107327 0
M  V30 31 C -0.432340 2.803044 -0.858015 0
M  V30 32 C -0.735392 4.157449 -0.275590 0
M  V30 33 C -0.853774 2.652545 -2.276433 0
M  V30 34 O 4.098376 -2.173029 2.695622 0
M  V30 35 H 5.959060 -4.383718 3.721548 0
M  V30 36 H 4.254649 -4.789222 3.232329 0
M  V30 37 H 4.650977 -4.501677 4.978760 0
M  V30 38 H 5.072950 0.606403 5.750619 0
M  V30 39 H 5.268922 1.322041 4.153168 0
M  V30 40 H 3.611083 1.168387 4.844346 0
M  V30 41 H 3.587365 1.905787 2.603097 0
M  V30 42 H 2.397251 3.216297 -2.299188 0
M  V30 43 H 0.050076 1.038218 1.832118 0
M  V30 44 H -0.259129 2.830650 1.655063 0
M  V30 45 H -2.108133 -0.602036 2.051993 0
M  V30 46 H -3.808803 -1.011059 1.616222 0
M  V30 47 H -1.279422 -2.501820 1.084502 0
M  V30 48 H -2.541101 -4.276333 1.812802 0
M  V30 49 H -4.106398 -3.607781 1.174644 0
M  V30 50 H -3.281428 -2.888836 2.654333 0
M  V30 51 H -2.966335 -4.598939 -0.196171 0
M  V30 52 H -1.270071 -4.235022 -0.481999 0
M  V30 53 H -3.396710 -4.403166 -2.701152 0
M  V30 54 H -2.145848 -5.546931 -2.237016 0
M  V30 55 H -1.577721 -2.786364 -3.448139 0
M  V30 56 H -1.540031 -4.391536 -4.174292 0
M  V30 57 H -0.001369 -5.065567 -2.718285 0
M  V30 58 H -4.545413 -2.520023 -0.915612 0
M  V30 59 H -3.533882 -2.109080 -2.302442 0
M  V30 60 H -4.740970 -0.380160 -0.338698 0
M  V30 61 H -2.951679 0.147668 -2.707166 0
M  V30 62 H -3.813383 1.395204 -1.754914 0
M  V30 63 H -4.806793 0.227721 -2.643720 0
M  V30 64 H -1.608900 4.044942 0.399084 0
M  V30 65 H -1.077656 4.837014 -1.095110 0
M  V30 66 H 0.092402 4.603959 0.295429 0
M  V30 67 H -0.818890 1.574410 -2.539730 0
M  V30 68 H -1.815775 3.132229 -2.542009 0
M  V30 69 H -0.094281 3.174476 -2.917872 0
M  V30 END ATOM
M  V30 BEGIN BOND
M  V30 1 1 1 2
M  V30 2 2 2 3
M  V30 3 1 3 4
M  V30 4 1 4 5
M  V30 5 2 4 6
M  V30 6 1 6 7
M  V30 7 2 7 8
M  V30 8 1 7 9
M  V30 9 1 9 10
M  V30 10 2 10 11
M  V30 11 1 11 12
M  V30 12 1 12 13
M  V30 13 2 13 14
M  V30 14 1 14 15
M  V30 15 1 15 16
M  V30 16 1 16 17
M  V30 17 2 17 18
M  V30 18 1 17 19
M  V30 19 1 19 20
M  V30 20 1 20 21
M  V30 21 1 21 22
M  V30 22 1 21 23
M  V30 23 1 23 24
M  V30 24 1 24 25
M  V30 25 1 25 26
M  V30 26 1 26 27
M  V30 27 1 23 28
M  V30 28 1 28 29
M  V30 29 1 29 30
M  V30 30 1 16 31
M  V30 31 1 31 32
M  V30 32 1 31 33
M  V30 33 1 6 34
M  V30 34 1 34 2
M  V30 35 1 14 10
M  V30 36 1 29 19
M  V30 37 1 31 13
M  V30 38 1 1 35
M  V30 39 1 1 36
M  V30 40 1 1 37
M  V30 41 1 5 38
M  V30 42 1 5 39
M  V30 43 1 5 40
M  V30 44 1 9 41
M  V30 45 1 12 42
M  V30 46 1 15 43
M  V30 47 1 15 44
M  V30 48 1 20 45
M  V30 49 1 20 46
M  V30 50 1 21 47 CFG=1
M  V30 51 1 22 48
M  V30 52 1 22 49
M  V30 53 1 22 50
M  V30 54 1 24 51
M  V30 55 1 24 52
M  V30 56 1 25 53
M  V30 57 1 25 54
M  V30 58 1 26 55
M  V30 59 1 26 56
M  V30 60 1 27 57
M  V30 61 1 28 58
M  V30 62 1 28 59
M  V30 63 1 29 60 CFG=1
M  V30 64 1 30 61
M  V30 65 1 30 62
M  V30 66 1 30 63
M  V30 67 1 32 64
M  V30 68 1 32 65
M  V30 69 1 32 66
M  V30 70 1 33 67
M  V30 71 1 33 68
M  V30 72 1 33 69
M  V30 END BOND
M  V30 END CTAB
M  END
>  <Dataset>  (398) 
ChEMBL_Kinases

>  <Ligand_Instance>  (398) 
nan

>  <PDB_ID>  (398) 
nan

>  <Standardized_SMILES>  (398) 
Cc1nc(C)c(C(=O)Nc2n[nH]c3c2CN(C(=O)N2C[C@@H](C)N(CCCO)C[C@@H]2C)C3(C)C)o1

>  <Name>  (398) 
nan

>  <Pocket>  (398) 
nan

>  <ATP_Site>  (398) 
nan

>  <Peripheral>  (398) 
nan

>  <Num_H_Atoms_ProtBoundConf>  (398) 
nan

>  <Num_Resolved_Atoms>  (398) 
nan

>  <Num_Not_Resolved_Atoms>  (398) 
nan

$$$$
CHEMBL3662861
     RDKit          3D

  0  0  0  0  0  0  0  0  0  0999 V3000
M  V30 BEGIN CTAB
M  V30 COUNTS 70 73 0 0 0
M  V30 BEGIN ATOM
M  V30 1 C 3.045061 -3.744556 3.926777 0
M  V30 2 C 1.821359 -3.100177 3.354753 0 CFG=2
M  V30 3 C 1.870503 -2.961138 1.856873 0
M  V30 4 N 0.685729 -2.240566 1.436313 0
M  V30 5 C 0.793303 -1.835662 0.077789 0
M  V30 6 O 1.942441 -2.340285 -0.084965 0
M  V30 7 N -0.016354 -1.129226 -0.849209 0
M  V30 8 C -1.346090 -0.503749 -0.801358 0
M  V30 9 C -1.776106 -0.666727 -2.216809 0
M  V30 10 C -2.824541 -0.678899 -3.130145 0
M  V30 11 N -4.192379 -0.453825 -2.741432 0
M  V30 12 C -4.466108 0.929650 -2.815880 0
M  V30 13 O -3.453538 1.596470 -3.197719 0
M  V30 14 C -5.755275 1.549686 -2.496618 0
M  V30 15 C -5.827146 2.920742 -2.629794 0
M  V30 16 C -7.012202 3.578085 -2.347287 0
M  V30 17 C -8.055204 2.768844 -1.941933 0
M  V30 18 C -8.004463 1.399354 -1.802506 0
M  V30 19 N -6.815913 0.820670 -2.095048 0
M  V30 20 N -2.358043 -0.924178 -4.366666 0
M  V30 21 N -1.047477 -1.074260 -4.307693 0
M  V30 22 C -0.684771 -0.921686 -3.020726 0
M  V30 23 C 0.535902 -0.938485 -2.174098 0
M  V30 24 C 1.159994 0.437375 -2.299479 0
M  V30 25 C 1.442724 -2.025827 -2.636286 0
M  V30 26 C -0.399192 -2.019482 2.355300 0 CFG=1
M  V30 27 C -1.327762 -3.218052 2.207210 0
M  V30 28 C -0.009286 -1.765196 3.765810 0
M  V30 29 N 1.418771 -1.912654 4.036287 0
M  V30 30 C 2.102182 -0.700765 3.624413 0
M  V30 31 C 3.560719 -0.708002 3.893931 0
M  V30 32 O 4.152044 0.470689 3.504357 0
M  V30 33 C 4.060367 0.795372 2.185039 0
M  V30 34 C 4.796928 2.096771 1.860236 0
M  V30 35 O 6.143379 1.947491 2.183832 0
M  V30 36 H 3.864515 -3.884464 3.187444 0
M  V30 37 H 3.383274 -3.206358 4.852372 0
M  V30 38 H 2.854275 -4.791480 4.307557 0
M  V30 39 H 0.984968 -3.844005 3.541005 0
M  V30 40 H 2.817005 -2.490449 1.598236 0
M  V30 41 H 1.843824 -4.018763 1.460470 0
M  V30 42 H -1.175843 0.559221 -0.595108 0
M  V30 43 H -2.032992 -1.017830 -0.101593 0
M  V30 44 H -4.980873 -1.096760 -2.429804 0
M  V30 45 H -4.992939 3.540230 -2.951185 0
M  V30 46 H -7.137472 4.651206 -2.430830 0
M  V30 47 H -8.993862 3.283228 -1.717532 0
M  V30 48 H -8.836271 0.802693 -1.484739 0
M  V30 49 H -0.409034 -1.274202 -5.108476 0
M  V30 50 H 0.372209 1.200552 -2.441917 0
M  V30 51 H 1.736603 0.593361 -1.347605 0
M  V30 52 H 1.910622 0.402245 -3.108489 0
M  V30 53 H 1.120191 -3.012096 -2.244493 0
M  V30 54 H 2.514518 -1.817377 -2.444480 0
M  V30 55 H 1.350214 -2.081135 -3.745283 0
M  V30 56 H -0.920726 -1.079314 2.008105 0
M  V30 57 H -2.345865 -2.824496 2.009479 0
M  V30 58 H -1.397272 -3.808242 3.141367 0
M  V30 59 H -1.075897 -3.844544 1.326210 0
M  V30 60 H -0.298484 -0.748758 4.148872 0
M  V30 61 H -0.551511 -2.484744 4.434861 0
M  V30 62 H 1.640069 0.138719 4.179217 0
M  V30 63 H 1.932077 -0.498010 2.543520 0
M  V30 64 H 4.107383 -1.510110 3.331244 0
M  V30 65 H 3.786315 -0.840589 4.987059 0
M  V30 66 H 2.991789 1.009356 1.932990 0
M  V30 67 H 4.505003 -0.002587 1.559598 0
M  V30 68 H 4.717133 2.295773 0.772027 0
M  V30 69 H 4.358419 2.954895 2.388911 0
M  V30 70 H 6.480849 2.662706 2.746223 0
M  V30 END ATOM
M  V30 BEGIN BOND
M  V30 1 1 1 2
M  V30 2 1 2 3
M  V30 3 1 3 4
M  V30 4 1 4 5
M  V30 5 2 5 6
M  V30 6 1 5 7
M  V30 7 1 7 8
M  V30 8 1 8 9
M  V30 9 1 9 10
M  V30 10 1 10 11
M  V30 11 1 11 12
M  V30 12 2 12 13
M  V30 13 1 12 14
M  V30 14 2 14 15
M  V30 15 1 15 16
M  V30 16 2 16 17
M  V30 17 1 17 18
M  V30 18 2 18 19
M  V30 19 2 10 20
M  V30 20 1 20 21
M  V30 21 1 21 22
M  V30 22 1 22 23
M  V30 23 1 23 24
M  V30 24 1 23 25
M  V30 25 1 4 26
M  V30 26 1 26 27
M  V30 27 1 26 28
M  V30 28 1 28 29
M  V30 29 1 29 30
M  V30 30 1 30 31
M  V30 31 1 31 32
M  V30 32 1 32 33
M  V30 33 1 33 34
M  V30 34 1 34 35
M  V30 35 1 29 2
M  V30 36 1 23 7
M  V30 37 2 22 9
M  V30 38 1 19 14
M  V30 39 1 1 36
M  V30 40 1 1 37
M  V30 41 1 1 38
M  V30 42 1 2 39 CFG=3
M  V30 43 1 3 40
M  V30 44 1 3 41
M  V30 45 1 8 42
M  V30 46 1 8 43
M  V30 47 1 11 44
M  V30 48 1 15 45
M  V30 49 1 16 46
M  V30 50 1 17 47
M  V30 51 1 18 48
M  V30 52 1 21 49
M  V30 53 1 24 50
M  V30 54 1 24 51
M  V30 55 1 24 52
M  V30 56 1 25 53
M  V30 57 1 25 54
M  V30 58 1 25 55
M  V30 59 1 26 56 CFG=3
M  V30 60 1 27 57
M  V30 61 1 27 58
M  V30 62 1 27 59
M  V30 63 1 28 60
M  V30 64 1 28 61
M  V30 65 1 30 62
M  V30 66 1 30 63
M  V30 67 1 31 64
M  V30 68 1 31 65
M  V30 69 1 33 66
M  V30 70 1 33 67
M  V30 71 1 34 68
M  V30 72 1 34 69
M  V30 73 1 35 70
M  V30 END BOND
M  V30 END CTAB
M  END
>  <Dataset>  (399) 
ChEMBL_Kinases

>  <Ligand_Instance>  (399) 
nan

>  <PDB_ID>  (399) 
nan

>  <Standardized_SMILES>  (399) 
C[C@@H]1CN(C(=O)N2Cc3c(NC(=O)c4ccccn4)n[nH]c3C2(C)C)[C@@H](C)CN1CCOCCO

>  <Name>  (399) 
nan

>  <Pocket>  (399) 
nan

>  <ATP_Site>  (399) 
nan

>  <Peripheral>  (399) 
nan

>  <Num_H_Atoms_ProtBoundConf>  (399) 
nan

>  <Num_Resolved_Atoms>  (399) 
nan

>  <Num_Not_Resolved_Atoms>  (399) 
nan

$$$$
CHEMBL3662860
     RDKit          3D

  0  0  0  0  0  0  0  0  0  0999 V3000
M  V30 BEGIN CTAB
M  V30 COUNTS 69 72 0 0 0
M  V30 BEGIN ATOM
M  V30 1 C -0.144346 -0.697069 3.168219 0
M  V30 2 C -0.148363 -2.055985 2.621284 0 CFG=2
M  V30 3 C 1.188557 -2.258245 1.890299 0
M  V30 4 N 0.984076 -2.956131 0.610830 0
M  V30 5 C 1.169082 -2.803621 -0.804486 0
M  V30 6 O 0.793702 -3.775201 -1.555106 0
M  V30 7 N 1.738979 -1.663158 -1.488657 0
M  V30 8 C 2.309350 -0.352358 -1.222243 0
M  V30 9 C 1.594348 0.532551 -2.141369 0
M  V30 10 C 1.042212 1.777773 -2.452354 0
M  V30 11 N 1.095515 2.893186 -1.544200 0
M  V30 12 C -0.057037 2.877267 -0.709616 0
M  V30 13 O -0.831156 1.909850 -0.963090 0
M  V30 14 C -0.289153 3.890694 0.324022 0
M  V30 15 C -1.470339 3.714466 1.044988 0
M  V30 16 C -1.768004 4.615486 2.032157 0
M  V30 17 C -0.852669 5.630149 2.221922 0
M  V30 18 C 0.325457 5.806226 1.503128 0
M  V30 19 N 0.568771 4.901776 0.552921 0
M  V30 20 N 0.498791 1.706301 -3.679878 0
M  V30 21 N 0.667031 0.501052 -4.172281 0
M  V30 22 C 1.329412 -0.223559 -3.252419 0
M  V30 23 C 1.918842 -1.548800 -2.918154 0
M  V30 24 C 3.376650 -1.539191 -3.322201 0
M  V30 25 C 1.135817 -2.575114 -3.711241 0
M  V30 26 C 0.385327 -4.230942 1.039528 0 CFG=1
M  V30 27 C 1.366816 -4.930016 1.962662 0
M  V30 28 C -0.935239 -3.988721 1.688634 0
M  V30 29 N -1.128009 -2.519266 1.758039 0
M  V30 30 C -2.491383 -2.180612 1.853566 0 CFG=1
M  V30 31 C -3.196261 -2.565684 3.102425 0
M  V30 32 C -2.771804 -0.809033 1.322197 0
M  V30 33 C -4.257260 -0.425560 1.412587 0
M  V30 34 O -4.665425 -0.441693 2.739373 0
M  V30 35 H -1.010364 -0.381591 3.776257 0
M  V30 36 H 0.032739 0.108038 2.421980 0
M  V30 37 H 0.729593 -0.559908 3.886048 0
M  V30 38 H -0.092177 -2.770947 3.498934 0
M  V30 39 H 1.903699 -2.863741 2.468315 0
M  V30 40 H 1.684775 -1.293635 1.713098 0
M  V30 41 H 3.395459 -0.462816 -1.520750 0
M  V30 42 H 2.245888 -0.038238 -0.176952 0
M  V30 43 H 1.814417 3.637974 -1.441206 0
M  V30 44 H -2.154217 2.888678 0.846658 0
M  V30 45 H -2.643585 4.581541 2.650781 0
M  V30 46 H -1.060479 6.369102 3.004346 0
M  V30 47 H 0.997485 6.619425 1.700143 0
M  V30 48 H 0.367993 0.101897 -5.104284 0
M  V30 49 H 3.436703 -2.102466 -4.276518 0
M  V30 50 H 3.705146 -0.513385 -3.526367 0
M  V30 51 H 3.996533 -2.091646 -2.602170 0
M  V30 52 H 0.077748 -2.608280 -3.411147 0
M  V30 53 H 1.109750 -2.277389 -4.798647 0
M  V30 54 H 1.647448 -3.541593 -3.695265 0
M  V30 55 H 0.255695 -4.930253 0.166359 0
M  V30 56 H 1.170809 -4.744251 3.021802 0
M  V30 57 H 1.315603 -6.043252 1.818059 0
M  V30 58 H 2.412324 -4.661012 1.665772 0
M  V30 59 H -0.847853 -4.321706 2.743660 0
M  V30 60 H -1.790912 -4.453283 1.177121 0
M  V30 61 H -2.970296 -2.859651 1.053544 0
M  V30 62 H -4.288635 -2.715631 2.976453 0
M  V30 63 H -3.094019 -1.732568 3.839197 0
M  V30 64 H -2.837391 -3.528372 3.531363 0
M  V30 65 H -2.258650 0.017844 1.815018 0
M  V30 66 H -2.528802 -0.806955 0.218220 0
M  V30 67 H -4.869277 -1.079562 0.759658 0
M  V30 68 H -4.338437 0.616203 1.051528 0
M  V30 69 H -4.388160 0.418831 3.141835 0
M  V30 END ATOM
M  V30 BEGIN BOND
M  V30 1 1 1 2
M  V30 2 1 2 3
M  V30 3 1 3 4
M  V30 4 1 4 5
M  V30 5 2 5 6
M  V30 6 1 5 7
M  V30 7 1 7 8
M  V30 8 1 8 9
M  V30 9 1 9 10
M  V30 10 1 10 11
M  V30 11 1 11 12
M  V30 12 2 12 13
M  V30 13 1 12 14
M  V30 14 2 14 15
M  V30 15 1 15 16
M  V30 16 2 16 17
M  V30 17 1 17 18
M  V30 18 2 18 19
M  V30 19 2 10 20
M  V30 20 1 20 21
M  V30 21 1 21 22
M  V30 22 1 22 23
M  V30 23 1 23 24
M  V30 24 1 23 25
M  V30 25 1 4 26
M  V30 26 1 26 27
M  V30 27 1 26 28
M  V30 28 1 28 29
M  V30 29 1 29 30
M  V30 30 1 30 31
M  V30 31 1 30 32
M  V30 32 1 32 33
M  V30 33 1 33 34
M  V30 34 1 29 2
M  V30 35 1 23 7
M  V30 36 2 22 9
M  V30 37 1 19 14
M  V30 38 1 1 35
M  V30 39 1 1 36
M  V30 40 1 1 37
M  V30 41 1 2 38 CFG=1
M  V30 42 1 3 39
M  V30 43 1 3 40
M  V30 44 1 8 41
M  V30 45 1 8 42
M  V30 46 1 11 43
M  V30 47 1 15 44
M  V30 48 1 16 45
M  V30 49 1 17 46
M  V30 50 1 18 47
M  V30 51 1 21 48
M  V30 52 1 24 49
M  V30 53 1 24 50
M  V30 54 1 24 51
M  V30 55 1 25 52
M  V30 56 1 25 53
M  V30 57 1 25 54
M  V30 58 1 26 55 CFG=3
M  V30 59 1 27 56
M  V30 60 1 27 57
M  V30 61 1 27 58
M  V30 62 1 28 59
M  V30 63 1 28 60
M  V30 64 1 30 61 CFG=3
M  V30 65 1 31 62
M  V30 66 1 31 63
M  V30 67 1 31 64
M  V30 68 1 32 65
M  V30 69 1 32 66
M  V30 70 1 33 67
M  V30 71 1 33 68
M  V30 72 1 34 69
M  V30 END BOND
M  V30 END CTAB
M  END
>  <Dataset>  (400) 
ChEMBL_Kinases

>  <Ligand_Instance>  (400) 
nan

>  <PDB_ID>  (400) 
nan

>  <Standardized_SMILES>  (400) 
C[C@@H]1CN(C(=O)N2Cc3c(NC(=O)c4ccccn4)n[nH]c3C2(C)C)[C@@H](C)CN1[C@@H](C)CCO

>  <Name>  (400) 
nan

>  <Pocket>  (400) 
nan

>  <ATP_Site>  (400) 
nan

>  <Peripheral>  (400) 
nan

>  <Num_H_Atoms_ProtBoundConf>  (400) 
nan

>  <Num_Resolved_Atoms>  (400) 
nan

>  <Num_Not_Resolved_Atoms>  (400) 
nan

$$$$
CHEMBL3662859
     RDKit          3D

  0  0  0  0  0  0  0  0  0  0999 V3000
M  V30 BEGIN CTAB
M  V30 COUNTS 69 72 0 0 0
M  V30 BEGIN ATOM
M  V30 1 C 4.463553 1.533492 0.935170 0
M  V30 2 C 3.948911 0.307742 1.628798 0 CFG=2
M  V30 3 C 4.717740 0.196353 2.923591 0
M  V30 4 C 6.206534 0.050219 2.740955 0
M  V30 5 O 6.773708 1.132096 2.073067 0
M  V30 6 N 4.051295 -0.900788 0.918368 0
M  V30 7 C 3.485876 -2.006215 1.626253 0
M  V30 8 C 2.003816 -1.907533 1.819160 0 CFG=2
M  V30 9 C 1.341712 -3.246710 1.985840 0
M  V30 10 N 1.381401 -1.102320 0.751234 0
M  V30 11 C 0.028592 -0.963349 1.108149 0
M  V30 12 O -0.537419 -0.269687 0.195974 0
M  V30 13 N -1.339224 -0.675942 1.223909 0
M  V30 14 C -2.377192 0.026350 0.492741 0
M  V30 15 C -3.413951 -1.073645 0.476774 0
M  V30 16 C -4.465390 -1.711852 -0.176966 0
M  V30 17 N -4.905699 -1.221764 -1.460339 0
M  V30 18 C -5.870962 -0.271599 -1.839107 0
M  V30 19 O -6.520193 0.306927 -0.932662 0
M  V30 20 C -6.039997 -0.034071 -3.267060 0
M  V30 21 C -6.991498 0.903099 -3.612933 0
M  V30 22 C -7.194139 1.169647 -4.951286 0
M  V30 23 C -6.468561 0.520789 -5.931974 0
M  V30 24 C -5.517479 -0.418794 -5.535195 0
M  V30 25 N -5.325606 -0.672805 -4.236197 0
M  V30 26 N -4.888084 -2.736091 0.583357 0
M  V30 27 N -4.153665 -2.770883 1.680502 0
M  V30 28 C -3.250887 -1.780002 1.651596 0
M  V30 29 C -2.148785 -1.133754 2.365954 0
M  V30 30 C -1.457085 -1.945233 3.361533 0
M  V30 31 C -2.721428 0.098037 3.066506 0
M  V30 32 C 2.042483 -0.552471 -0.449508 0
M  V30 33 C 3.480182 -0.930916 -0.402036 0 CFG=1
M  V30 34 C 4.298231 -0.251338 -1.460579 0
M  V30 35 H 5.321342 1.399879 0.284516 0
M  V30 36 H 4.754171 2.258463 1.721091 0
M  V30 37 H 3.641232 2.081862 0.386925 0
M  V30 38 H 2.891536 0.498748 1.897015 0
M  V30 39 H 4.566440 1.117546 3.552665 0
M  V30 40 H 4.371691 -0.625467 3.572010 0
M  V30 41 H 6.655669 0.049631 3.755721 0
M  V30 42 H 6.488327 -0.919329 2.281347 0
M  V30 43 H 7.540489 0.887078 1.517068 0
M  V30 44 H 4.056153 -2.231735 2.521810 0
M  V30 45 H 3.632961 -2.912502 0.955292 0
M  V30 46 H 1.849468 -1.343852 2.757491 0
M  V30 47 H 1.038751 -3.425031 3.050561 0
M  V30 48 H 0.430177 -3.363275 1.372090 0
M  V30 49 H 2.097781 -4.039609 1.761979 0
M  V30 50 H -2.129424 0.356558 -0.506897 0
M  V30 51 H -2.760498 0.896474 1.071587 0
M  V30 52 H -4.331723 -1.738442 -2.190905 0
M  V30 53 H -7.569957 1.421496 -2.859198 0
M  V30 54 H -7.930180 1.895559 -5.239206 0
M  V30 55 H -6.610688 0.713166 -6.974307 0
M  V30 56 H -4.936734 -0.940956 -6.275374 0
M  V30 57 H -4.241848 -3.459457 2.472344 0
M  V30 58 H -0.480612 -1.463231 3.618982 0
M  V30 59 H -1.335937 -3.017615 3.163094 0
M  V30 60 H -2.045974 -1.886101 4.303768 0
M  V30 61 H -2.774959 -0.090442 4.179229 0
M  V30 62 H -2.017127 0.941838 2.969456 0
M  V30 63 H -3.753586 0.322836 2.755182 0
M  V30 64 H 1.597409 -0.964001 -1.380188 0
M  V30 65 H 1.860878 0.538852 -0.496244 0
M  V30 66 H 3.524304 -2.017117 -0.693903 0
M  V30 67 H 5.373461 -0.448313 -1.241602 0
M  V30 68 H 4.045690 0.795219 -1.652314 0
M  V30 69 H 4.153359 -0.761495 -2.460340 0
M  V30 END ATOM
M  V30 BEGIN BOND
M  V30 1 1 1 2
M  V30 2 1 2 3
M  V30 3 1 3 4
M  V30 4 1 4 5
M  V30 5 1 2 6
M  V30 6 1 6 7
M  V30 7 1 7 8
M  V30 8 1 8 9
M  V30 9 1 8 10
M  V30 10 1 10 11
M  V30 11 2 11 12
M  V30 12 1 11 13
M  V30 13 1 13 14
M  V30 14 1 14 15
M  V30 15 1 15 16
M  V30 16 1 16 17
M  V30 17 1 17 18
M  V30 18 2 18 19
M  V30 19 1 18 20
M  V30 20 2 20 21
M  V30 21 1 21 22
M  V30 22 2 22 23
M  V30 23 1 23 24
M  V30 24 2 24 25
M  V30 25 2 16 26
M  V30 26 1 26 27
M  V30 27 1 27 28
M  V30 28 1 28 29
M  V30 29 1 29 30
M  V30 30 1 29 31
M  V30 31 1 10 32
M  V30 32 1 32 33
M  V30 33 1 33 34
M  V30 34 1 33 6
M  V30 35 1 29 13
M  V30 36 2 28 15
M  V30 37 1 25 20
M  V30 38 1 1 35
M  V30 39 1 1 36
M  V30 40 1 1 37
M  V30 41 1 2 38 CFG=1
M  V30 42 1 3 39
M  V30 43 1 3 40
M  V30 44 1 4 41
M  V30 45 1 4 42
M  V30 46 1 5 43
M  V30 47 1 7 44
M  V30 48 1 7 45
M  V30 49 1 8 46 CFG=1
M  V30 50 1 9 47
M  V30 51 1 9 48
M  V30 52 1 9 49
M  V30 53 1 14 50
M  V30 54 1 14 51
M  V30 55 1 17 52
M  V30 56 1 21 53
M  V30 57 1 22 54
M  V30 58 1 23 55
M  V30 59 1 24 56
M  V30 60 1 27 57
M  V30 61 1 30 58
M  V30 62 1 30 59
M  V30 63 1 30 60
M  V30 64 1 31 61
M  V30 65 1 31 62
M  V30 66 1 31 63
M  V30 67 1 32 64
M  V30 68 1 32 65
M  V30 69 1 33 66 CFG=3
M  V30 70 1 34 67
M  V30 71 1 34 68
M  V30 72 1 34 69
M  V30 END BOND
M  V30 END CTAB
M  END
>  <Dataset>  (401) 
ChEMBL_Kinases

>  <Ligand_Instance>  (401) 
nan

>  <PDB_ID>  (401) 
nan

>  <Standardized_SMILES>  (401) 
C[C@H](CCO)N1C[C@H](C)N(C(=O)N2Cc3c(NC(=O)c4ccccn4)n[nH]c3C2(C)C)C[C@H]1C

>  <Name>  (401) 
nan

>  <Pocket>  (401) 
nan

>  <ATP_Site>  (401) 
nan

>  <Peripheral>  (401) 
nan

>  <Num_H_Atoms_ProtBoundConf>  (401) 
nan

>  <Num_Resolved_Atoms>  (401) 
nan

>  <Num_Not_Resolved_Atoms>  (401) 
nan

$$$$
CHEMBL3662858
     RDKit          3D

  0  0  0  0  0  0  0  0  0  0999 V3000
M  V30 BEGIN CTAB
M  V30 COUNTS 70 74 0 0 0
M  V30 BEGIN ATOM
M  V30 1 C 1.622762 -2.688717 4.445129 0
M  V30 2 C 1.707471 -3.238570 3.055966 0 CFG=2
M  V30 3 C 2.272634 -2.225005 2.066121 0
M  V30 4 N 1.785745 -2.538681 0.736387 0
M  V30 5 C 1.462042 -1.438043 -0.047844 0
M  V30 6 O 1.686393 -0.387106 0.632123 0
M  V30 7 N 1.000622 -0.819808 -1.237249 0
M  V30 8 C 0.933274 0.625913 -1.307392 0
M  V30 9 C -0.395132 0.818016 -1.921049 0
M  V30 10 C -1.458767 1.683089 -2.006255 0
M  V30 11 N -1.671749 2.949767 -1.398344 0
M  V30 12 C -1.346716 4.275540 -1.846626 0
M  V30 13 O -0.775391 4.392150 -2.959066 0
M  V30 14 C -1.705214 5.391979 -0.974310 0
M  V30 15 C -1.376546 6.652697 -1.436903 0
M  V30 16 C -1.715958 7.703715 -0.611663 0
M  V30 17 C -2.339792 7.553866 0.597683 0
M  V30 18 C -2.642907 6.256158 1.004193 0
M  V30 19 N -2.325768 5.194909 0.221505 0
M  V30 20 N -2.358692 1.116698 -2.820805 0
M  V30 21 N -1.899347 -0.067705 -3.247737 0
M  V30 22 C -0.682173 -0.285077 -2.708508 0
M  V30 23 C 0.516252 -1.167244 -2.561347 0
M  V30 24 C 1.502404 -0.739026 -3.618732 0
M  V30 25 C 0.089534 -2.595338 -2.701908 0
M  V30 26 C 1.734006 -3.972830 0.490325 0 CFG=1
M  V30 27 C 3.086773 -4.634037 0.635790 0
M  V30 28 C 0.687477 -4.605224 1.421691 0
M  V30 29 N 0.506488 -3.754213 2.513103 0
M  V30 30 C -0.703425 -3.488092 3.095746 0
M  V30 31 C -1.740692 -2.703715 2.368969 0
M  V30 32 C -1.346003 -1.313726 1.963005 0
M  V30 33 C -2.726327 -3.399268 1.510059 0
M  V30 34 O -3.378761 -3.839467 2.685524 0
M  V30 35 C -3.022574 -2.618571 3.226204 0
M  V30 36 H 1.130751 -1.701273 4.531213 0
M  V30 37 H 2.679232 -2.499956 4.781107 0
M  V30 38 H 1.243473 -3.472508 5.096520 0
M  V30 39 H 2.439739 -4.078937 3.085855 0
M  V30 40 H 2.056843 -1.190802 2.392433 0
M  V30 41 H 3.402631 -2.275433 2.061593 0
M  V30 42 H 1.746444 0.944968 -2.018010 0
M  V30 43 H 1.071026 1.152433 -0.370855 0
M  V30 44 H -2.143334 2.837051 -0.482209 0
M  V30 45 H -0.881450 6.815435 -2.390024 0
M  V30 46 H -1.476133 8.724137 -0.933500 0
M  V30 47 H -2.623721 8.341725 1.276261 0
M  V30 48 H -3.130037 5.960256 1.921758 0
M  V30 49 H -2.382811 -0.733553 -3.891448 0
M  V30 50 H 1.255811 0.262109 -4.057001 0
M  V30 51 H 2.539768 -0.657257 -3.236621 0
M  V30 52 H 1.498483 -1.504057 -4.410279 0
M  V30 53 H -0.505053 -2.859358 -1.800829 0
M  V30 54 H 1.009003 -3.224587 -2.745563 0
M  V30 55 H -0.507706 -2.661368 -3.635012 0
M  V30 56 H 1.385508 -4.201073 -0.537342 0
M  V30 57 H 3.478077 -5.010371 -0.344290 0
M  V30 58 H 3.856271 -4.004379 1.085923 0
M  V30 59 H 2.954020 -5.550594 1.261552 0
M  V30 60 H -0.189337 -4.942465 0.890239 0
M  V30 61 H 1.184386 -5.545554 1.811161 0
M  V30 62 H -0.559690 -2.973784 4.080703 0
M  V30 63 H -1.197201 -4.462359 3.389631 0
M  V30 64 H -1.289430 -1.313184 0.839991 0
M  V30 65 H -2.065731 -0.589863 2.338944 0
M  V30 66 H -0.359648 -1.072946 2.400196 0
M  V30 67 H -3.382840 -2.654078 1.005997 0
M  V30 68 H -2.434378 -4.196673 0.841440 0
M  V30 69 H -2.823769 -2.574664 4.308926 0
M  V30 70 H -3.679371 -1.816393 2.806261 0
M  V30 END ATOM
M  V30 BEGIN BOND
M  V30 1 1 1 2
M  V30 2 1 2 3
M  V30 3 1 3 4
M  V30 4 1 4 5
M  V30 5 2 5 6
M  V30 6 1 5 7
M  V30 7 1 7 8
M  V30 8 1 8 9
M  V30 9 1 9 10
M  V30 10 1 10 11
M  V30 11 1 11 12
M  V30 12 2 12 13
M  V30 13 1 12 14
M  V30 14 2 14 15
M  V30 15 1 15 16
M  V30 16 2 16 17
M  V30 17 1 17 18
M  V30 18 2 18 19
M  V30 19 2 10 20
M  V30 20 1 20 21
M  V30 21 1 21 22
M  V30 22 1 22 23
M  V30 23 1 23 24
M  V30 24 1 23 25
M  V30 25 1 4 26
M  V30 26 1 26 27
M  V30 27 1 26 28
M  V30 28 1 28 29
M  V30 29 1 29 30
M  V30 30 1 30 31
M  V30 31 1 31 32
M  V30 32 1 31 33
M  V30 33 1 33 34
M  V30 34 1 34 35
M  V30 35 1 29 2
M  V30 36 1 35 31
M  V30 37 1 23 7
M  V30 38 2 22 9
M  V30 39 1 19 14
M  V30 40 1 1 36
M  V30 41 1 1 37
M  V30 42 1 1 38
M  V30 43 1 2 39 CFG=1
M  V30 44 1 3 40
M  V30 45 1 3 41
M  V30 46 1 8 42
M  V30 47 1 8 43
M  V30 48 1 11 44
M  V30 49 1 15 45
M  V30 50 1 16 46
M  V30 51 1 17 47
M  V30 52 1 18 48
M  V30 53 1 21 49
M  V30 54 1 24 50
M  V30 55 1 24 51
M  V30 56 1 24 52
M  V30 57 1 25 53
M  V30 58 1 25 54
M  V30 59 1 25 55
M  V30 60 1 26 56 CFG=3
M  V30 61 1 27 57
M  V30 62 1 27 58
M  V30 63 1 27 59
M  V30 64 1 28 60
M  V30 65 1 28 61
M  V30 66 1 30 62
M  V30 67 1 30 63
M  V30 68 1 32 64
M  V30 69 1 32 65
M  V30 70 1 32 66
M  V30 71 1 33 67
M  V30 72 1 33 68
M  V30 73 1 35 69
M  V30 74 1 35 70
M  V30 END BOND
M  V30 END CTAB
M  END
>  <Dataset>  (402) 
ChEMBL_Kinases

>  <Ligand_Instance>  (402) 
nan

>  <PDB_ID>  (402) 
nan

>  <Standardized_SMILES>  (402) 
C[C@@H]1CN(C(=O)N2Cc3c(NC(=O)c4ccccn4)n[nH]c3C2(C)C)[C@@H](C)CN1CC1(C)COC1

>  <Name>  (402) 
nan

>  <Pocket>  (402) 
nan

>  <ATP_Site>  (402) 
nan

>  <Peripheral>  (402) 
nan

>  <Num_H_Atoms_ProtBoundConf>  (402) 
nan

>  <Num_Resolved_Atoms>  (402) 
nan

>  <Num_Not_Resolved_Atoms>  (402) 
nan

$$$$
CHEMBL3662857
     RDKit          3D

  0  0  0  0  0  0  0  0  0  0999 V3000
M  V30 BEGIN CTAB
M  V30 COUNTS 71 76 0 0 0
M  V30 BEGIN ATOM
M  V30 1 C 3.635980 -2.662469 3.444997 0
M  V30 2 C 2.500959 -2.899566 2.500093 0 CFG=2
M  V30 3 C 2.794200 -2.453136 1.083068 0
M  V30 4 N 1.516035 -2.426417 0.385523 0
M  V30 5 C 1.741255 -1.876214 -0.902489 0
M  V30 6 O 2.964338 -1.733469 -0.694386 0
M  V30 7 N 0.974212 -1.568017 -2.040756 0
M  V30 8 C -0.377357 -1.580893 -2.619112 0
M  V30 9 C -0.514560 -0.191947 -3.121384 0
M  V30 10 C -1.276869 0.925472 -3.406687 0
M  V30 11 N -2.679546 0.984520 -3.173755 0
M  V30 12 C -2.937833 1.475575 -1.864550 0
M  V30 13 O -1.893102 1.743699 -1.214947 0
M  V30 14 C -4.282221 1.656402 -1.314279 0
M  V30 15 C -4.377180 2.142611 -0.035339 0
M  V30 16 C -5.585699 2.354189 0.585540 0
M  V30 17 C -6.760497 2.065514 -0.105712 0
M  V30 18 C -6.633906 1.575492 -1.396141 0
M  V30 19 N -5.424532 1.387662 -1.955011 0
M  V30 20 N -0.450665 1.859755 -3.910675 0
M  V30 21 N 0.789093 1.454461 -3.981811 0
M  V30 22 C 0.766619 0.180197 -3.494753 0
M  V30 23 C 1.603216 -1.015236 -3.194967 0
M  V30 24 C 3.030281 -1.023312 -3.479277 0
M  V30 25 C 2.048803 -1.899146 -4.302928 0
M  V30 26 C 0.194016 -2.859799 0.825825 0 CFG=1
M  V30 27 C -0.110067 -4.122387 0.075968 0
M  V30 28 C 0.204510 -3.106959 2.341405 0
M  V30 29 N 1.259640 -2.350288 2.862074 0
M  V30 30 C 1.117294 -1.461410 3.908006 0
M  V30 31 C 0.346282 -0.202999 3.669295 0
M  V30 32 C 0.959523 0.642210 2.577550 0
M  V30 33 C 0.059547 1.788440 2.180385 0
M  V30 34 O -1.271658 1.478449 2.088059 0
M  V30 35 C -1.718780 1.052059 3.337842 0
M  V30 36 C -1.125463 -0.366419 3.505913 0
M  V30 37 H 4.525805 -3.176833 3.011415 0
M  V30 38 H 3.391600 -3.199297 4.377659 0
M  V30 39 H 3.938096 -1.625649 3.587689 0
M  V30 40 H 2.394735 -4.020300 2.424988 0
M  V30 41 H 3.126510 -1.383191 1.183721 0
M  V30 42 H 3.552986 -3.089169 0.589557 0
M  V30 43 H -1.070475 -1.771383 -1.766375 0
M  V30 44 H -0.485485 -2.269666 -3.456450 0
M  V30 45 H -3.505804 0.732283 -3.793005 0
M  V30 46 H -3.495317 2.377980 0.532249 0
M  V30 47 H -5.666614 2.736879 1.591780 0
M  V30 48 H -7.727410 2.219066 0.350122 0
M  V30 49 H -7.530559 1.344213 -1.952311 0
M  V30 50 H 1.635140 1.932113 -4.316263 0
M  V30 51 H 3.759938 -1.604207 -2.881059 0
M  V30 52 H 3.476925 -0.189145 -4.072061 0
M  V30 53 H 2.074772 -2.995242 -4.114919 0
M  V30 54 H 1.791347 -1.548256 -5.325855 0
M  V30 55 H -0.514610 -2.037008 0.625059 0
M  V30 56 H -0.769015 -3.936323 -0.795217 0
M  V30 57 H 0.817552 -4.594768 -0.357232 0
M  V30 58 H -0.608158 -4.889780 0.714049 0
M  V30 59 H 0.513858 -4.203023 2.415711 0
M  V30 60 H -0.773420 -3.076515 2.800950 0
M  V30 61 H 0.628861 -2.008028 4.777220 0
M  V30 62 H 2.094926 -1.126790 4.371445 0
M  V30 63 H 0.490136 0.414827 4.615201 0
M  V30 64 H 1.131910 0.022496 1.700981 0
M  V30 65 H 1.921659 1.074510 2.916360 0
M  V30 66 H 0.151546 2.677269 2.836596 0
M  V30 67 H 0.369333 2.133743 1.153872 0
M  V30 68 H -2.823937 0.933996 3.369606 0
M  V30 69 H -1.350396 1.730910 4.123488 0
M  V30 70 H -1.593692 -0.853153 4.356211 0
M  V30 71 H -1.321335 -0.828613 2.511837 0
M  V30 END ATOM
M  V30 BEGIN BOND
M  V30 1 1 1 2
M  V30 2 1 2 3
M  V30 3 1 3 4
M  V30 4 1 4 5
M  V30 5 2 5 6
M  V30 6 1 5 7
M  V30 7 1 7 8
M  V30 8 1 8 9
M  V30 9 1 9 10
M  V30 10 1 10 11
M  V30 11 1 11 12
M  V30 12 2 12 13
M  V30 13 1 12 14
M  V30 14 2 14 15
M  V30 15 1 15 16
M  V30 16 2 16 17
M  V30 17 1 17 18
M  V30 18 2 18 19
M  V30 19 2 10 20
M  V30 20 1 20 21
M  V30 21 1 21 22
M  V30 22 1 22 23
M  V30 23 1 23 24
M  V30 24 1 24 25
M  V30 25 1 4 26
M  V30 26 1 26 27
M  V30 27 1 26 28
M  V30 28 1 28 29
M  V30 29 1 29 30
M  V30 30 1 30 31
M  V30 31 1 31 32
M  V30 32 1 32 33
M  V30 33 1 33 34
M  V30 34 1 34 35
M  V30 35 1 35 36
M  V30 36 1 29 2
M  V30 37 1 36 31
M  V30 38 1 23 7
M  V30 39 2 22 9
M  V30 40 1 25 23
M  V30 41 1 19 14
M  V30 42 1 1 37
M  V30 43 1 1 38
M  V30 44 1 1 39
M  V30 45 1 2 40 CFG=3
M  V30 46 1 3 41
M  V30 47 1 3 42
M  V30 48 1 8 43
M  V30 49 1 8 44
M  V30 50 1 11 45
M  V30 51 1 15 46
M  V30 52 1 16 47
M  V30 53 1 17 48
M  V30 54 1 18 49
M  V30 55 1 21 50
M  V30 56 1 24 51
M  V30 57 1 24 52
M  V30 58 1 25 53
M  V30 59 1 25 54
M  V30 60 1 26 55 CFG=1
M  V30 61 1 27 56
M  V30 62 1 27 57
M  V30 63 1 27 58
M  V30 64 1 28 59
M  V30 65 1 28 60
M  V30 66 1 30 61
M  V30 67 1 30 62
M  V30 68 1 31 63
M  V30 69 1 32 64
M  V30 70 1 32 65
M  V30 71 1 33 66
M  V30 72 1 33 67
M  V30 73 1 35 68
M  V30 74 1 35 69
M  V30 75 1 36 70
M  V30 76 1 36 71
M  V30 END BOND
M  V30 END CTAB
M  END
>  <Dataset>  (403) 
ChEMBL_Kinases

>  <Ligand_Instance>  (403) 
nan

>  <PDB_ID>  (403) 
nan

>  <Standardized_SMILES>  (403) 
C[C@@H]1CN(C(=O)N2Cc3c(NC(=O)c4ccccn4)n[nH]c3C23CC3)[C@@H](C)CN1CC1CCOCC1

>  <Name>  (403) 
nan

>  <Pocket>  (403) 
nan

>  <ATP_Site>  (403) 
nan

>  <Peripheral>  (403) 
nan

>  <Num_H_Atoms_ProtBoundConf>  (403) 
nan

>  <Num_Resolved_Atoms>  (403) 
nan

>  <Num_Not_Resolved_Atoms>  (403) 
nan

$$$$
CHEMBL3662856
     RDKit          3D

  0  0  0  0  0  0  0  0  0  0999 V3000
M  V30 BEGIN CTAB
M  V30 COUNTS 63 66 0 0 0
M  V30 BEGIN ATOM
M  V30 1 C 4.366396 0.909447 1.324480 0
M  V30 2 C 3.265523 0.042572 1.864451 0 CFG=1
M  V30 3 C 3.015866 0.289324 3.337914 0
M  V30 4 N 2.367165 -0.889133 3.837331 0
M  V30 5 C 3.256175 -1.757160 4.572380 0
M  V30 6 C 1.552585 -1.572397 2.889514 0 CFG=1
M  V30 7 C 0.426161 -2.215210 3.665406 0
M  V30 8 C -0.417378 -1.215820 4.415868 0
M  V30 9 O 0.340576 -0.498069 5.334955 0
M  V30 10 C 1.066091 -0.759663 1.741852 0
M  V30 11 N 2.002065 0.196616 1.201142 0
M  V30 12 C 1.490783 1.039967 0.178144 0
M  V30 13 O 2.454469 1.776376 -0.121638 0
M  V30 14 N 0.234805 1.123314 -0.429973 0
M  V30 15 C -1.136649 0.560804 -0.477764 0
M  V30 16 C -1.306325 0.284515 -1.901069 0
M  V30 17 C -1.830102 -0.489014 -2.906365 0
M  V30 18 N -2.664025 -1.625335 -2.894799 0
M  V30 19 C -3.293626 -2.306173 -1.837283 0
M  V30 20 O -3.131776 -1.885719 -0.684246 0
M  V30 21 C -4.131281 -3.485653 -2.020103 0
M  V30 22 C -4.721888 -4.100349 -0.942254 0
M  V30 23 C -5.522204 -5.227956 -1.143748 0
M  V30 24 C -5.713804 -5.718785 -2.438356 0
M  V30 25 C -5.101973 -5.070840 -3.492472 0
M  V30 26 N -4.335927 -3.986235 -3.269218 0
M  V30 27 N -1.420265 0.047492 -4.066104 0
M  V30 28 N -0.673809 1.108578 -3.851350 0
M  V30 29 C -0.592930 1.269806 -2.541410 0
M  V30 30 C -0.030338 2.114813 -1.459209 0
M  V30 31 C -1.040047 3.149856 -1.009316 0
M  V30 32 C 1.213870 2.799979 -1.973599 0
M  V30 33 H 4.461440 0.726876 0.237741 0
M  V30 34 H 5.342403 0.702222 1.820392 0
M  V30 35 H 4.100062 1.972289 1.465849 0
M  V30 36 H 3.558526 -1.048320 1.783033 0
M  V30 37 H 2.439216 1.190927 3.549769 0
M  V30 38 H 3.992168 0.384517 3.856819 0
M  V30 39 H 4.165533 -1.173400 4.832949 0
M  V30 40 H 3.477014 -2.704200 4.032875 0
M  V30 41 H 2.751534 -2.016301 5.525084 0
M  V30 42 H 2.145765 -2.420143 2.484944 0
M  V30 43 H 0.938050 -2.824731 4.467318 0
M  V30 44 H -0.162688 -2.933421 3.092781 0
M  V30 45 H -1.177668 -1.804889 4.995364 0
M  V30 46 H -0.931058 -0.510382 3.756490 0
M  V30 47 H 0.077167 0.451629 5.415727 0
M  V30 48 H 0.748015 -1.388646 0.890789 0
M  V30 49 H 0.181101 -0.192842 2.088418 0
M  V30 50 H -1.230223 -0.278567 0.205520 0
M  V30 51 H -1.836479 1.403626 -0.221768 0
M  V30 52 H -2.897720 -2.103672 -3.816249 0
M  V30 53 H -4.539113 -3.676366 0.038706 0
M  V30 54 H -5.988062 -5.713322 -0.297138 0
M  V30 55 H -6.328774 -6.590837 -2.626512 0
M  V30 56 H -5.205144 -5.396129 -4.533164 0
M  V30 57 H -0.251352 1.677446 -4.615181 0
M  V30 58 H -1.087586 3.263121 0.080223 0
M  V30 59 H -0.701974 4.149808 -1.398092 0
M  V30 60 H -2.038551 2.990245 -1.463827 0
M  V30 61 H 1.935310 2.083562 -2.360710 0
M  V30 62 H 0.848931 3.371814 -2.880773 0
M  V30 63 H 1.570509 3.565573 -1.290245 0
M  V30 END ATOM
M  V30 BEGIN BOND
M  V30 1 1 1 2
M  V30 2 1 2 3
M  V30 3 1 3 4
M  V30 4 1 4 5
M  V30 5 1 4 6
M  V30 6 1 6 7
M  V30 7 1 7 8
M  V30 8 1 8 9
M  V30 9 1 6 10
M  V30 10 1 10 11
M  V30 11 1 11 12
M  V30 12 2 12 13
M  V30 13 1 12 14
M  V30 14 1 14 15
M  V30 15 1 15 16
M  V30 16 1 16 17
M  V30 17 1 17 18
M  V30 18 1 18 19
M  V30 19 2 19 20
M  V30 20 1 19 21
M  V30 21 2 21 22
M  V30 22 1 22 23
M  V30 23 2 23 24
M  V30 24 1 24 25
M  V30 25 2 25 26
M  V30 26 2 17 27
M  V30 27 1 27 28
M  V30 28 1 28 29
M  V30 29 1 29 30
M  V30 30 1 30 31
M  V30 31 1 30 32
M  V30 32 1 11 2
M  V30 33 1 30 14
M  V30 34 2 29 16
M  V30 35 1 26 21
M  V30 36 1 1 33
M  V30 37 1 1 34
M  V30 38 1 1 35
M  V30 39 1 2 36 CFG=1
M  V30 40 1 3 37
M  V30 41 1 3 38
M  V30 42 1 5 39
M  V30 43 1 5 40
M  V30 44 1 5 41
M  V30 45 1 6 42 CFG=3
M  V30 46 1 7 43
M  V30 47 1 7 44
M  V30 48 1 8 45
M  V30 49 1 8 46
M  V30 50 1 9 47
M  V30 51 1 10 48
M  V30 52 1 10 49
M  V30 53 1 15 50
M  V30 54 1 15 51
M  V30 55 1 18 52
M  V30 56 1 22 53
M  V30 57 1 23 54
M  V30 58 1 24 55
M  V30 59 1 25 56
M  V30 60 1 28 57
M  V30 61 1 31 58
M  V30 62 1 31 59
M  V30 63 1 31 60
M  V30 64 1 32 61
M  V30 65 1 32 62
M  V30 66 1 32 63
M  V30 END BOND
M  V30 END CTAB
M  END
>  <Dataset>  (404) 
ChEMBL_Kinases

>  <Ligand_Instance>  (404) 
nan

>  <PDB_ID>  (404) 
nan

>  <Standardized_SMILES>  (404) 
C[C@H]1CN(C)[C@@H](CCO)CN1C(=O)N1Cc2c(NC(=O)c3ccccn3)n[nH]c2C1(C)C

>  <Name>  (404) 
nan

>  <Pocket>  (404) 
nan

>  <ATP_Site>  (404) 
nan

>  <Peripheral>  (404) 
nan

>  <Num_H_Atoms_ProtBoundConf>  (404) 
nan

>  <Num_Resolved_Atoms>  (404) 
nan

>  <Num_Not_Resolved_Atoms>  (404) 
nan

$$$$
CHEMBL3662855
     RDKit          3D

  0  0  0  0  0  0  0  0  0  0999 V3000
M  V30 BEGIN CTAB
M  V30 COUNTS 63 66 0 0 0
M  V30 BEGIN ATOM
M  V30 1 C 3.529553 2.659355 1.787801 0
M  V30 2 C 3.470383 1.159435 1.597066 0 CFG=1
M  V30 3 C 3.515694 0.484120 2.936406 0
M  V30 4 N 3.598979 -0.975065 2.695941 0
M  V30 5 C 3.894360 -1.550106 3.953484 0
M  V30 6 C 2.423540 -1.328931 1.999767 0 CFG=2
M  V30 7 C 2.066976 -2.753669 1.827072 0
M  V30 8 C 1.827698 -3.549572 3.056236 0
M  V30 9 O 0.793835 -3.014664 3.847225 0
M  V30 10 C 2.477746 -0.640360 0.613616 0
M  V30 11 N 2.318501 0.780358 0.825610 0
M  V30 12 C 1.178682 1.440302 0.289068 0
M  V30 13 O 1.381687 2.622918 0.667955 0
M  V30 14 N 0.021348 1.189640 -0.456396 0
M  V30 15 C -0.743334 0.143441 -1.140682 0
M  V30 16 C -2.062774 0.247495 -0.484220 0
M  V30 17 C -3.187738 -0.365160 -0.001910 0
M  V30 18 N -3.371674 -1.793940 -0.067541 0
M  V30 19 C -4.023014 -2.120240 -1.302338 0
M  V30 20 O -4.254221 -1.081710 -1.985124 0
M  V30 21 C -4.362546 -3.482818 -1.693473 0
M  V30 22 C -4.990483 -3.589672 -2.927745 0
M  V30 23 C -5.387539 -4.795779 -3.467115 0
M  V30 24 C -5.123014 -5.918066 -2.699992 0
M  V30 25 C -4.506298 -5.809749 -1.488488 0
M  V30 26 N -4.135696 -4.615021 -0.999661 0
M  V30 27 N -3.988770 0.600842 0.493999 0
M  V30 28 N -3.408157 1.775813 0.338488 0
M  V30 29 C -2.211140 1.594803 -0.265223 0
M  V30 30 C -0.943317 2.195337 -0.817100 0
M  V30 31 C -1.149413 2.376770 -2.290038 0
M  V30 32 C -0.701304 3.552153 -0.202319 0
M  V30 33 H 4.502775 2.839633 2.330081 0
M  V30 34 H 2.727693 2.987772 2.460419 0
M  V30 35 H 3.556438 3.234172 0.862323 0
M  V30 36 H 4.385775 0.827847 1.009055 0
M  V30 37 H 4.393682 0.849048 3.466381 0
M  V30 38 H 2.569519 0.725660 3.477580 0
M  V30 39 H 3.031932 -1.666385 4.631158 0
M  V30 40 H 4.573829 -0.804681 4.513150 0
M  V30 41 H 4.563132 -2.459051 3.919763 0
M  V30 42 H 1.542507 -0.805992 2.506012 0
M  V30 43 H 2.868413 -3.284825 1.227011 0
M  V30 44 H 1.170219 -2.844390 1.140907 0
M  V30 45 H 1.418236 -4.576316 2.762043 0
M  V30 46 H 2.685564 -3.752199 3.687709 0
M  V30 47 H -0.084139 -3.398400 3.635172 0
M  V30 48 H 3.497699 -0.873859 0.187292 0
M  V30 49 H 1.702656 -1.122960 0.024236 0
M  V30 50 H -0.855083 0.340164 -2.228565 0
M  V30 51 H -0.301576 -0.858840 -1.046100 0
M  V30 52 H -3.122513 -2.581902 0.598138 0
M  V30 53 H -5.210154 -2.713060 -3.553056 0
M  V30 54 H -5.878216 -4.845548 -4.438729 0
M  V30 55 H -5.429784 -6.866924 -3.113105 0
M  V30 56 H -4.306794 -6.685135 -0.903806 0
M  V30 57 H -3.776678 2.718132 0.620768 0
M  V30 58 H -1.381379 3.472150 -2.463174 0
M  V30 59 H -2.067328 1.862715 -2.685146 0
M  V30 60 H -0.256681 2.139179 -2.897537 0
M  V30 61 H -1.586607 4.177188 -0.544390 0
M  V30 62 H -0.693881 3.579322 0.882389 0
M  V30 63 H 0.156731 4.016652 -0.688057 0
M  V30 END ATOM
M  V30 BEGIN BOND
M  V30 1 1 1 2
M  V30 2 1 2 3
M  V30 3 1 3 4
M  V30 4 1 4 5
M  V30 5 1 4 6
M  V30 6 1 6 7
M  V30 7 1 7 8
M  V30 8 1 8 9
M  V30 9 1 6 10
M  V30 10 1 10 11
M  V30 11 1 11 12
M  V30 12 2 12 13
M  V30 13 1 12 14
M  V30 14 1 14 15
M  V30 15 1 15 16
M  V30 16 1 16 17
M  V30 17 1 17 18
M  V30 18 1 18 19
M  V30 19 2 19 20
M  V30 20 1 19 21
M  V30 21 2 21 22
M  V30 22 1 22 23
M  V30 23 2 23 24
M  V30 24 1 24 25
M  V30 25 2 25 26
M  V30 26 2 17 27
M  V30 27 1 27 28
M  V30 28 1 28 29
M  V30 29 1 29 30
M  V30 30 1 30 31
M  V30 31 1 30 32
M  V30 32 1 11 2
M  V30 33 1 30 14
M  V30 34 2 29 16
M  V30 35 1 26 21
M  V30 36 1 1 33
M  V30 37 1 1 34
M  V30 38 1 1 35
M  V30 39 1 2 36 CFG=3
M  V30 40 1 3 37
M  V30 41 1 3 38
M  V30 42 1 5 39
M  V30 43 1 5 40
M  V30 44 1 5 41
M  V30 45 1 6 42 CFG=1
M  V30 46 1 7 43
M  V30 47 1 7 44
M  V30 48 1 8 45
M  V30 49 1 8 46
M  V30 50 1 9 47
M  V30 51 1 10 48
M  V30 52 1 10 49
M  V30 53 1 15 50
M  V30 54 1 15 51
M  V30 55 1 18 52
M  V30 56 1 22 53
M  V30 57 1 23 54
M  V30 58 1 24 55
M  V30 59 1 25 56
M  V30 60 1 28 57
M  V30 61 1 31 58
M  V30 62 1 31 59
M  V30 63 1 31 60
M  V30 64 1 32 61
M  V30 65 1 32 62
M  V30 66 1 32 63
M  V30 END BOND
M  V30 END CTAB
M  END
>  <Dataset>  (405) 
ChEMBL_Kinases

>  <Ligand_Instance>  (405) 
nan

>  <PDB_ID>  (405) 
nan

>  <Standardized_SMILES>  (405) 
C[C@H]1CN(C)[C@H](CCO)CN1C(=O)N1Cc2c(NC(=O)c3ccccn3)n[nH]c2C1(C)C

>  <Name>  (405) 
nan

>  <Pocket>  (405) 
nan

>  <ATP_Site>  (405) 
nan

>  <Peripheral>  (405) 
nan

>  <Num_H_Atoms_ProtBoundConf>  (405) 
nan

>  <Num_Resolved_Atoms>  (405) 
nan

>  <Num_Not_Resolved_Atoms>  (405) 
nan

$$$$
CHEMBL3662853
     RDKit          3D

  0  0  0  0  0  0  0  0  0  0999 V3000
M  V30 BEGIN CTAB
M  V30 COUNTS 65 69 0 0 0
M  V30 BEGIN ATOM
M  V30 1 C 3.472228 -0.740377 2.843459 0
M  V30 2 C 2.259292 -1.577211 3.089890 0 CFG=2
M  V30 3 C 2.207281 -2.749785 2.121486 0
M  V30 4 N 1.112254 -2.545716 1.208511 0
M  V30 5 C 1.382838 -2.200101 -0.129377 0
M  V30 6 O 2.641511 -2.185908 -0.083529 0
M  V30 7 N 0.626581 -1.918359 -1.300896 0
M  V30 8 C -0.773095 -1.845185 -1.693324 0
M  V30 9 C -0.808186 -0.730717 -2.643383 0
M  V30 10 C -1.595280 0.256008 -3.251944 0
M  V30 11 N -2.979969 0.375406 -2.929651 0
M  V30 12 C -3.236339 1.246384 -1.844832 0
M  V30 13 O -2.173717 1.763901 -1.356660 0
M  V30 14 C -4.553047 1.558693 -1.298248 0
M  V30 15 C -4.634212 2.419291 -0.251152 0
M  V30 16 C -5.864480 2.738587 0.292309 0
M  V30 17 C -7.065428 2.216284 -0.181680 0
M  V30 18 C -6.910401 1.350569 -1.244368 0
M  V30 19 N -5.725569 1.040867 -1.770473 0
M  V30 20 N -0.817735 0.958650 -4.096262 0
M  V30 21 N 0.431998 0.473732 -4.062337 0
M  V30 22 C 0.449232 -0.562666 -3.174541 0
M  V30 23 C 1.302765 -1.600796 -2.542390 0
M  V30 24 C 2.659054 -0.967129 -2.342237 0
M  V30 25 C 1.370138 -2.796595 -3.468020 0
M  V30 26 C -0.128892 -2.771662 1.965270 0 CFG=1
M  V30 27 C -0.256756 -4.259416 2.279039 0
M  V30 28 C -0.006350 -1.948010 3.207510 0
M  V30 29 N 1.011170 -0.886896 3.038336 0
M  V30 30 C 0.751700 0.042736 4.090174 0
M  V30 31 C 1.611174 1.218759 4.159268 0
M  V30 32 C 1.346599 2.407677 3.473776 0
M  V30 33 O 2.320000 3.265816 3.767308 0
M  V30 34 C 3.167189 2.693552 4.584559 0
M  V30 35 N 2.766819 1.438311 4.848120 0
M  V30 36 H 3.250664 0.242789 2.379789 0
M  V30 37 H 4.083327 -1.269307 2.052221 0
M  V30 38 H 4.117871 -0.706415 3.718861 0
M  V30 39 H 2.338402 -1.965781 4.153397 0
M  V30 40 H 3.195554 -2.782325 1.605177 0
M  V30 41 H 2.055796 -3.699470 2.709403 0
M  V30 42 H -1.361776 -1.660366 -0.776877 0
M  V30 43 H -1.106245 -2.774110 -2.197047 0
M  V30 44 H -3.813323 -0.087293 -3.381179 0
M  V30 45 H -3.755848 2.877480 0.187115 0
M  V30 46 H -5.896836 3.428635 1.127124 0
M  V30 47 H -8.029639 2.447513 0.221283 0
M  V30 48 H -7.784542 0.870360 -1.709927 0
M  V30 49 H 1.218882 0.850711 -4.629730 0
M  V30 50 H 2.938959 -0.393720 -3.265952 0
M  V30 51 H 2.625809 -0.306734 -1.453866 0
M  V30 52 H 3.399761 -1.785667 -2.248051 0
M  V30 53 H 0.527600 -3.467208 -3.201156 0
M  V30 54 H 2.308592 -3.344581 -3.393275 0
M  V30 55 H 1.147000 -2.447889 -4.498392 0
M  V30 56 H -1.029364 -2.514133 1.397233 0
M  V30 57 H -1.291432 -4.638802 2.132590 0
M  V30 58 H 0.386588 -4.884781 1.625665 0
M  V30 59 H -0.003815 -4.469734 3.338030 0
M  V30 60 H -0.968443 -1.520686 3.549625 0
M  V30 61 H 0.385897 -2.595677 4.017798 0
M  V30 62 H 0.724616 -0.462076 5.097722 0
M  V30 63 H -0.312120 0.398940 3.951220 0
M  V30 64 H 0.547892 2.707584 2.805421 0
M  V30 65 H 4.058742 3.166242 4.986857 0
M  V30 END ATOM
M  V30 BEGIN BOND
M  V30 1 1 1 2
M  V30 2 1 2 3
M  V30 3 1 3 4
M  V30 4 1 4 5
M  V30 5 2 5 6
M  V30 6 1 5 7
M  V30 7 1 7 8
M  V30 8 1 8 9
M  V30 9 1 9 10
M  V30 10 1 10 11
M  V30 11 1 11 12
M  V30 12 2 12 13
M  V30 13 1 12 14
M  V30 14 2 14 15
M  V30 15 1 15 16
M  V30 16 2 16 17
M  V30 17 1 17 18
M  V30 18 2 18 19
M  V30 19 2 10 20
M  V30 20 1 20 21
M  V30 21 1 21 22
M  V30 22 1 22 23
M  V30 23 1 23 24
M  V30 24 1 23 25
M  V30 25 1 4 26
M  V30 26 1 26 27
M  V30 27 1 26 28
M  V30 28 1 28 29
M  V30 29 1 29 30
M  V30 30 1 30 31
M  V30 31 2 31 32
M  V30 32 1 32 33
M  V30 33 1 33 34
M  V30 34 2 34 35
M  V30 35 1 29 2
M  V30 36 1 35 31
M  V30 37 1 23 7
M  V30 38 2 22 9
M  V30 39 1 19 14
M  V30 40 1 1 36
M  V30 41 1 1 37
M  V30 42 1 1 38
M  V30 43 1 2 39 CFG=1
M  V30 44 1 3 40
M  V30 45 1 3 41
M  V30 46 1 8 42
M  V30 47 1 8 43
M  V30 48 1 11 44
M  V30 49 1 15 45
M  V30 50 1 16 46
M  V30 51 1 17 47
M  V30 52 1 18 48
M  V30 53 1 21 49
M  V30 54 1 24 50
M  V30 55 1 24 51
M  V30 56 1 24 52
M  V30 57 1 25 53
M  V30 58 1 25 54
M  V30 59 1 25 55
M  V30 60 1 26 56 CFG=3
M  V30 61 1 27 57
M  V30 62 1 27 58
M  V30 63 1 27 59
M  V30 64 1 28 60
M  V30 65 1 28 61
M  V30 66 1 30 62
M  V30 67 1 30 63
M  V30 68 1 32 64
M  V30 69 1 34 65
M  V30 END BOND
M  V30 END CTAB
M  END
>  <Dataset>  (406) 
ChEMBL_Kinases

>  <Ligand_Instance>  (406) 
nan

>  <PDB_ID>  (406) 
nan

>  <Standardized_SMILES>  (406) 
C[C@@H]1CN(C(=O)N2Cc3c(NC(=O)c4ccccn4)n[nH]c3C2(C)C)[C@@H](C)CN1Cc1cocn1

>  <Name>  (406) 
nan

>  <Pocket>  (406) 
nan

>  <ATP_Site>  (406) 
nan

>  <Peripheral>  (406) 
nan

>  <Num_H_Atoms_ProtBoundConf>  (406) 
nan

>  <Num_Resolved_Atoms>  (406) 
nan

>  <Num_Not_Resolved_Atoms>  (406) 
nan

$$$$
CHEMBL3662905
     RDKit          3D

  0  0  0  0  0  0  0  0  0  0999 V3000
M  V30 BEGIN CTAB
M  V30 COUNTS 80 84 0 0 0
M  V30 BEGIN ATOM
M  V30 1 C 6.213133 0.945062 2.956890 0
M  V30 2 C 5.552915 -0.199207 2.216893 0
M  V30 3 N 4.483799 -0.700770 3.035291 0
M  V30 4 N 4.499828 -1.687206 3.905059 0
M  V30 5 C 3.271899 -1.841850 4.430040 0
M  V30 6 C 2.942568 -2.870555 5.444546 0
M  V30 7 C 2.489054 -0.884657 3.829101 0
M  V30 8 C 3.269277 -0.147136 2.929123 0
M  V30 9 C 2.570306 0.921463 2.244503 0
M  V30 10 O 1.310626 1.159241 2.271032 0
M  V30 11 N 3.093198 1.924738 1.413983 0
M  V30 12 C 2.038365 2.773291 0.946604 0
M  V30 13 N 1.512606 3.914727 1.452918 0
M  V30 14 N 0.537857 4.341121 0.660434 0
M  V30 15 C 0.364507 3.523617 -0.395546 0
M  V30 16 C 1.310091 2.546913 -0.203674 0
M  V30 17 C 1.167921 1.606279 -1.343217 0
M  V30 18 N -0.210310 1.821911 -1.810301 0
M  V30 19 C -1.166523 0.919596 -2.314885 0
M  V30 20 O -2.280507 1.394733 -2.630523 0
M  V30 21 N -1.627920 -0.339952 -2.704647 0
M  V30 22 C -2.988595 -0.522678 -3.176258 0
M  V30 23 C -3.504595 -1.860601 -2.670028 0 CFG=1
M  V30 24 C -3.486332 -2.953882 -3.677414 0
M  V30 25 N -2.895366 -2.224271 -1.380513 0
M  V30 26 C -3.633564 -3.298548 -0.865724 0
M  V30 27 C -3.387909 -3.878903 0.457300 0
M  V30 28 C -3.525422 -2.961320 1.624214 0
M  V30 29 C -2.252373 -2.338237 2.112622 0
M  V30 30 O -1.396556 -3.368152 2.449573 0
M  V30 31 C -1.067299 -4.217422 1.428205 0
M  V30 32 C -2.219558 -4.777885 0.656737 0
M  V30 33 C -1.495859 -2.412212 -1.554898 0
M  V30 34 C -0.948428 -1.645655 -2.752018 0 CFG=2
M  V30 35 C 0.544649 -1.529618 -2.704078 0
M  V30 36 C -0.383671 3.226148 -1.642978 0
M  V30 37 C -1.844798 3.547878 -1.419035 0
M  V30 38 C 0.209093 4.042626 -2.762575 0
M  V30 39 H 6.583273 0.509273 3.925426 0
M  V30 40 H 5.470824 1.707583 3.201334 0
M  V30 41 H 7.112134 1.326993 2.433364 0
M  V30 42 H 6.350025 -1.023851 2.186740 0
M  V30 43 H 5.303060 0.000719 1.177907 0
M  V30 44 H 2.047085 -2.636464 6.039031 0
M  V30 45 H 3.820449 -2.934498 6.137035 0
M  V30 46 H 2.785985 -3.834583 4.913616 0
M  V30 47 H 1.433059 -0.847517 4.129573 0
M  V30 48 H 4.118829 1.957103 1.238116 0
M  V30 49 H -0.030126 5.210116 0.834199 0
M  V30 50 H 1.869286 1.807031 -2.177958 0
M  V30 51 H 1.315627 0.571880 -0.963267 0
M  V30 52 H -3.035468 -0.521016 -4.287877 0
M  V30 53 H -3.644514 0.275001 -2.819526 0
M  V30 54 H -4.597106 -1.684292 -2.439314 0
M  V30 55 H -3.327823 -2.484638 -4.680210 0
M  V30 56 H -4.494372 -3.458214 -3.804492 0
M  V30 57 H -2.807426 -3.797542 -3.463235 0
M  V30 58 H -3.539127 -4.152862 -1.610733 0
M  V30 59 H -4.749354 -3.072181 -0.936388 0
M  V30 60 H -4.296446 -4.598590 0.596189 0
M  V30 61 H -3.870057 -3.594272 2.497055 0
M  V30 62 H -4.353006 -2.225027 1.514315 0
M  V30 63 H -1.826044 -1.559585 1.470769 0
M  V30 64 H -2.516038 -1.847692 3.097325 0
M  V30 65 H -0.534050 -5.086475 1.917218 0
M  V30 66 H -0.355439 -3.742966 0.724273 0
M  V30 67 H -2.579107 -5.649447 1.306355 0
M  V30 68 H -1.820837 -5.253667 -0.265468 0
M  V30 69 H -0.940021 -1.951902 -0.690958 0
M  V30 70 H -1.176884 -3.451166 -1.624831 0
M  V30 71 H -1.177388 -2.095201 -3.718469 0
M  V30 72 H 1.032262 -2.321049 -3.348663 0
M  V30 73 H 0.820392 -0.581031 -3.206474 0
M  V30 74 H 0.971289 -1.676811 -1.706574 0
M  V30 75 H -2.260597 2.756829 -0.764842 0
M  V30 76 H -2.377837 3.683283 -2.354876 0
M  V30 77 H -1.963860 4.506790 -0.855487 0
M  V30 78 H 0.768436 4.905105 -2.356213 0
M  V30 79 H 0.821444 3.393853 -3.412022 0
M  V30 80 H -0.645222 4.493804 -3.344909 0
M  V30 END ATOM
M  V30 BEGIN BOND
M  V30 1 1 1 2
M  V30 2 1 2 3
M  V30 3 1 3 4
M  V30 4 2 4 5
M  V30 5 1 5 6
M  V30 6 1 5 7
M  V30 7 2 7 8
M  V30 8 1 8 9
M  V30 9 2 9 10
M  V30 10 1 9 11
M  V30 11 1 11 12
M  V30 12 2 12 13
M  V30 13 1 13 14
M  V30 14 1 14 15
M  V30 15 2 15 16
M  V30 16 1 16 17
M  V30 17 1 17 18
M  V30 18 1 18 19
M  V30 19 2 19 20
M  V30 20 1 19 21
M  V30 21 1 21 22
M  V30 22 1 22 23
M  V30 23 1 23 24
M  V30 24 1 23 25
M  V30 25 1 25 26
M  V30 26 1 26 27
M  V30 27 1 27 28
M  V30 28 1 28 29
M  V30 29 1 29 30
M  V30 30 1 30 31
M  V30 31 1 31 32
M  V30 32 1 25 33
M  V30 33 1 33 34
M  V30 34 1 34 35
M  V30 35 1 18 36
M  V30 36 1 36 37
M  V30 37 1 36 38
M  V30 38 1 8 3
M  V30 39 1 16 12
M  V30 40 1 34 21
M  V30 41 1 36 15
M  V30 42 1 32 27
M  V30 43 1 1 39
M  V30 44 1 1 40
M  V30 45 1 1 41
M  V30 46 1 2 42
M  V30 47 1 2 43
M  V30 48 1 6 44
M  V30 49 1 6 45
M  V30 50 1 6 46
M  V30 51 1 7 47
M  V30 52 1 11 48
M  V30 53 1 14 49
M  V30 54 1 17 50
M  V30 55 1 17 51
M  V30 56 1 22 52
M  V30 57 1 22 53
M  V30 58 1 23 54 CFG=1
M  V30 59 1 24 55
M  V30 60 1 24 56
M  V30 61 1 24 57
M  V30 62 1 26 58
M  V30 63 1 26 59
M  V30 64 1 27 60
M  V30 65 1 28 61
M  V30 66 1 28 62
M  V30 67 1 29 63
M  V30 68 1 29 64
M  V30 69 1 31 65
M  V30 70 1 31 66
M  V30 71 1 32 67
M  V30 72 1 32 68
M  V30 73 1 33 69
M  V30 74 1 33 70
M  V30 75 1 34 71 CFG=3
M  V30 76 1 35 72
M  V30 77 1 35 73
M  V30 78 1 35 74
M  V30 79 1 37 75
M  V30 80 1 37 76
M  V30 81 1 37 77
M  V30 82 1 38 78
M  V30 83 1 38 79
M  V30 84 1 38 80
M  V30 END BOND
M  V30 END CTAB
M  END
>  <Dataset>  (407) 
ChEMBL_Kinases

>  <Ligand_Instance>  (407) 
nan

>  <PDB_ID>  (407) 
nan

>  <Standardized_SMILES>  (407) 
CCn1nc(C)cc1C(=O)Nc1n[nH]c2c1CN(C(=O)N1C[C@@H](C)N(CC3CCOCC3)C[C@@H]1C)C2(C)C

>  <Name>  (407) 
nan

>  <Pocket>  (407) 
nan

>  <ATP_Site>  (407) 
nan

>  <Peripheral>  (407) 
nan

>  <Num_H_Atoms_ProtBoundConf>  (407) 
nan

>  <Num_Resolved_Atoms>  (407) 
nan

>  <Num_Not_Resolved_Atoms>  (407) 
nan

$$$$
CHEMBL3662833
     RDKit          3D

  0  0  0  0  0  0  0  0  0  0999 V3000
M  V30 BEGIN CTAB
M  V30 COUNTS 63 67 0 0 0
M  V30 BEGIN ATOM
M  V30 1 C 0.641299 -3.631430 4.290610 0
M  V30 2 C -0.098921 -2.639319 3.388373 0
M  V30 3 C 0.579095 -2.644973 2.064015 0
M  V30 4 N -0.112183 -3.391888 1.048080 0
M  V30 5 C -0.161689 -3.302610 -0.372323 0
M  V30 6 O -0.915716 -4.136092 -0.984873 0
M  V30 7 N 0.579592 -2.339154 -1.160225 0
M  V30 8 C 1.527460 -1.228076 -1.172733 0
M  V30 9 C 0.914205 -0.149507 -1.950362 0
M  V30 10 C 0.693567 1.182945 -2.197629 0
M  V30 11 N 1.243611 2.242650 -1.427759 0
M  V30 12 C 0.992654 3.610430 -1.732036 0
M  V30 13 O 0.251743 3.876056 -2.726773 0
M  V30 14 C 1.573517 4.683123 -0.919576 0
M  V30 15 C 1.304291 5.982150 -1.254916 0
M  V30 16 C 1.825223 7.039869 -0.524274 0
M  V30 17 C 2.641262 6.753143 0.575679 0
M  V30 18 C 2.897653 5.419211 0.892764 0
M  V30 19 N 2.366496 4.429029 0.149831 0
M  V30 20 N -0.112523 1.317546 -3.265900 0
M  V30 21 N -0.402169 0.094149 -3.694211 0
M  V30 22 C 0.210164 -0.835920 -2.911692 0
M  V30 23 C 0.480203 -2.269018 -2.603908 0
M  V30 24 C -0.691241 -3.044677 -3.166037 0
M  V30 25 C 1.715853 -2.683237 -3.325976 0
M  V30 26 C -0.883711 -4.433754 1.698164 0
M  V30 27 C -2.010420 -3.717154 2.404081 0
M  V30 28 N -1.481455 -2.900996 3.444833 0
M  V30 29 C -2.201947 -1.653025 3.507370 0
M  V30 30 C -3.609156 -1.720226 3.971791 0
M  V30 31 C -4.706464 -2.449159 3.353817 0
M  V30 32 C -4.650360 -0.943746 3.137117 0
M  V30 33 H -0.010806 -4.433127 4.670659 0
M  V30 34 H 1.503477 -4.103903 3.778499 0
M  V30 35 H 1.103260 -3.104792 5.171372 0
M  V30 36 H 0.066084 -1.628361 3.885875 0
M  V30 37 H 1.639179 -3.011192 2.120668 0
M  V30 38 H 0.641483 -1.589524 1.729904 0
M  V30 39 H 2.458532 -1.631513 -1.660945 0
M  V30 40 H 1.798266 -0.854005 -0.187778 0
M  V30 41 H 1.850175 2.076453 -0.611674 0
M  V30 42 H 0.685415 6.301596 -2.087868 0
M  V30 43 H 1.673873 8.103911 -0.705392 0
M  V30 44 H 3.108253 7.498204 1.226226 0
M  V30 45 H 3.521922 5.093210 1.732163 0
M  V30 46 H -1.018374 -0.155132 -4.523295 0
M  V30 47 H -0.769806 -2.683981 -4.236531 0
M  V30 48 H -0.493534 -4.130365 -3.277086 0
M  V30 49 H -1.660430 -2.792739 -2.731288 0
M  V30 50 H 2.301439 -3.401158 -2.689726 0
M  V30 51 H 1.440108 -3.266495 -4.221528 0
M  V30 52 H 2.356222 -1.846501 -3.677116 0
M  V30 53 H -1.313099 -5.139416 0.941169 0
M  V30 54 H -0.208671 -4.990762 2.369462 0
M  V30 55 H -2.788229 -4.430993 2.751382 0
M  V30 56 H -2.470099 -3.012912 1.648292 0
M  V30 57 H -2.158442 -1.113915 2.505823 0
M  V30 58 H -1.656970 -0.910803 4.170778 0
M  V30 59 H -3.716689 -1.550132 5.099875 0
M  V30 60 H -4.690689 -3.093697 2.478971 0
M  V30 61 H -5.584305 -2.713523 4.020203 0
M  V30 62 H -4.350162 -0.659422 2.111738 0
M  V30 63 H -5.312782 -0.273923 3.682138 0
M  V30 END ATOM
M  V30 BEGIN BOND
M  V30 1 1 1 2
M  V30 2 1 2 3
M  V30 3 1 3 4
M  V30 4 1 4 5
M  V30 5 2 5 6
M  V30 6 1 5 7
M  V30 7 1 7 8
M  V30 8 1 8 9
M  V30 9 1 9 10
M  V30 10 1 10 11
M  V30 11 1 11 12
M  V30 12 2 12 13
M  V30 13 1 12 14
M  V30 14 2 14 15
M  V30 15 1 15 16
M  V30 16 2 16 17
M  V30 17 1 17 18
M  V30 18 2 18 19
M  V30 19 2 10 20
M  V30 20 1 20 21
M  V30 21 1 21 22
M  V30 22 1 22 23
M  V30 23 1 23 24
M  V30 24 1 23 25
M  V30 25 1 4 26
M  V30 26 1 26 27
M  V30 27 1 27 28
M  V30 28 1 28 29
M  V30 29 1 29 30
M  V30 30 1 30 31
M  V30 31 1 31 32
M  V30 32 1 28 2
M  V30 33 1 32 30
M  V30 34 1 23 7
M  V30 35 2 22 9
M  V30 36 1 19 14
M  V30 37 1 1 33
M  V30 38 1 1 34
M  V30 39 1 1 35
M  V30 40 1 2 36
M  V30 41 1 3 37
M  V30 42 1 3 38
M  V30 43 1 8 39
M  V30 44 1 8 40
M  V30 45 1 11 41
M  V30 46 1 15 42
M  V30 47 1 16 43
M  V30 48 1 17 44
M  V30 49 1 18 45
M  V30 50 1 21 46
M  V30 51 1 24 47
M  V30 52 1 24 48
M  V30 53 1 24 49
M  V30 54 1 25 50
M  V30 55 1 25 51
M  V30 56 1 25 52
M  V30 57 1 26 53
M  V30 58 1 26 54
M  V30 59 1 27 55
M  V30 60 1 27 56
M  V30 61 1 29 57
M  V30 62 1 29 58
M  V30 63 1 30 59
M  V30 64 1 31 60
M  V30 65 1 31 61
M  V30 66 1 32 62
M  V30 67 1 32 63
M  V30 END BOND
M  V30 END CTAB
M  END
>  <Dataset>  (408) 
ChEMBL_Kinases

>  <Ligand_Instance>  (408) 
nan

>  <PDB_ID>  (408) 
nan

>  <Standardized_SMILES>  (408) 
CC1CN(C(=O)N2Cc3c(NC(=O)c4ccccn4)n[nH]c3C2(C)C)CCN1CC1CC1

>  <Name>  (408) 
nan

>  <Pocket>  (408) 
nan

>  <ATP_Site>  (408) 
nan

>  <Peripheral>  (408) 
nan

>  <Num_H_Atoms_ProtBoundConf>  (408) 
nan

>  <Num_Resolved_Atoms>  (408) 
nan

>  <Num_Not_Resolved_Atoms>  (408) 
nan

$$$$
CHEMBL3662834
     RDKit          3D

  0  0  0  0  0  0  0  0  0  0999 V3000
M  V30 BEGIN CTAB
M  V30 COUNTS 59 62 0 0 0
M  V30 BEGIN ATOM
M  V30 1 C 0.774227 -3.613285 4.267751 0
M  V30 2 C 1.800376 -2.574023 3.956140 0
M  V30 3 N 2.850293 -2.963880 3.085708 0
M  V30 4 C 3.793531 -1.932007 2.828441 0
M  V30 5 C 3.551203 -1.131473 1.571780 0
M  V30 6 N 2.724954 -1.902680 0.663818 0
M  V30 7 C 1.775075 -1.153736 -0.032916 0
M  V30 8 O 1.821972 0.049534 0.264273 0
M  V30 9 N 0.711666 -1.037710 -0.965939 0
M  V30 10 C 0.145494 0.278451 -1.196441 0
M  V30 11 C -1.298832 -0.101549 -1.399445 0
M  V30 12 C -2.598310 0.376225 -1.367011 0
M  V30 13 N -3.040625 1.692191 -1.053338 0
M  V30 14 C -3.419912 2.353897 0.148142 0
M  V30 15 O -3.392421 1.727880 1.215899 0
M  V30 16 C -3.815099 3.749447 -0.010620 0
M  V30 17 C -4.183484 4.394370 1.152229 0
M  V30 18 C -4.568592 5.717467 1.071424 0
M  V30 19 C -4.590250 6.393153 -0.134462 0
M  V30 20 C -4.212938 5.705814 -1.271972 0
M  V30 21 N -3.837669 4.417959 -1.196094 0
M  V30 22 N -3.406125 -0.666058 -1.698273 0
M  V30 23 N -2.673569 -1.750892 -1.930539 0
M  V30 24 C -1.387138 -1.432708 -1.755053 0
M  V30 25 C 0.007520 -2.001061 -1.804464 0
M  V30 26 C 0.451609 -1.915380 -3.239146 0
M  V30 27 C 0.021155 -3.393623 -1.264070 0
M  V30 28 C 3.079688 -3.322408 0.682075 0
M  V30 29 C 2.529313 -3.834397 2.013928 0
M  V30 30 C 3.189029 -5.178734 2.250127 0
M  V30 31 H 1.205349 -4.601396 4.491333 0
M  V30 32 H -0.040353 -3.704575 3.548813 0
M  V30 33 H 0.286818 -3.291136 5.231450 0
M  V30 34 H 2.280260 -2.279634 4.934218 0
M  V30 35 H 1.273552 -1.649653 3.631854 0
M  V30 36 H 4.828426 -2.324268 2.888281 0
M  V30 37 H 3.708137 -1.200096 3.682698 0
M  V30 38 H 4.546844 -1.051516 1.051393 0
M  V30 39 H 3.215432 -0.115168 1.758725 0
M  V30 40 H 0.570769 0.696748 -2.128509 0
M  V30 41 H 0.260634 0.982429 -0.375364 0
M  V30 42 H -3.048628 2.189588 -1.993752 0
M  V30 43 H -4.190544 3.933576 2.119905 0
M  V30 44 H -4.871501 6.285639 1.951862 0
M  V30 45 H -4.886164 7.430295 -0.237497 0
M  V30 46 H -4.195135 6.138428 -2.254643 0
M  V30 47 H -3.070134 -2.673976 -2.201129 0
M  V30 48 H 1.546264 -1.744758 -3.334156 0
M  V30 49 H 0.093025 -2.825653 -3.766497 0
M  V30 50 H -0.064737 -1.052684 -3.738029 0
M  V30 51 H 0.182171 -3.355528 -0.172766 0
M  V30 52 H 0.855334 -3.940383 -1.773782 0
M  V30 53 H -0.926387 -3.877645 -1.515543 0
M  V30 54 H 2.648583 -3.894543 -0.143536 0
M  V30 55 H 4.179979 -3.449486 0.702817 0
M  V30 56 H 1.442787 -3.962739 1.835251 0
M  V30 57 H 3.415924 -5.693161 1.284427 0
M  V30 58 H 4.110161 -5.068135 2.860542 0
M  V30 59 H 2.509863 -5.866291 2.819229 0
M  V30 END ATOM
M  V30 BEGIN BOND
M  V30 1 1 1 2
M  V30 2 1 2 3
M  V30 3 1 3 4
M  V30 4 1 4 5
M  V30 5 1 5 6
M  V30 6 1 6 7
M  V30 7 2 7 8
M  V30 8 1 7 9
M  V30 9 1 9 10
M  V30 10 1 10 11
M  V30 11 1 11 12
M  V30 12 1 12 13
M  V30 13 1 13 14
M  V30 14 2 14 15
M  V30 15 1 14 16
M  V30 16 2 16 17
M  V30 17 1 17 18
M  V30 18 2 18 19
M  V30 19 1 19 20
M  V30 20 2 20 21
M  V30 21 2 12 22
M  V30 22 1 22 23
M  V30 23 1 23 24
M  V30 24 1 24 25
M  V30 25 1 25 26
M  V30 26 1 25 27
M  V30 27 1 6 28
M  V30 28 1 28 29
M  V30 29 1 29 30
M  V30 30 1 29 3
M  V30 31 1 25 9
M  V30 32 2 24 11
M  V30 33 1 21 16
M  V30 34 1 1 31
M  V30 35 1 1 32
M  V30 36 1 1 33
M  V30 37 1 2 34
M  V30 38 1 2 35
M  V30 39 1 4 36
M  V30 40 1 4 37
M  V30 41 1 5 38
M  V30 42 1 5 39
M  V30 43 1 10 40
M  V30 44 1 10 41
M  V30 45 1 13 42
M  V30 46 1 17 43
M  V30 47 1 18 44
M  V30 48 1 19 45
M  V30 49 1 20 46
M  V30 50 1 23 47
M  V30 51 1 26 48
M  V30 52 1 26 49
M  V30 53 1 26 50
M  V30 54 1 27 51
M  V30 55 1 27 52
M  V30 56 1 27 53
M  V30 57 1 28 54
M  V30 58 1 28 55
M  V30 59 1 29 56
M  V30 60 1 30 57
M  V30 61 1 30 58
M  V30 62 1 30 59
M  V30 END BOND
M  V30 END CTAB
M  END
>  <Dataset>  (409) 
ChEMBL_Kinases

>  <Ligand_Instance>  (409) 
nan

>  <PDB_ID>  (409) 
nan

>  <Standardized_SMILES>  (409) 
CCN1CCN(C(=O)N2Cc3c(NC(=O)c4ccccn4)n[nH]c3C2(C)C)CC1C

>  <Name>  (409) 
nan

>  <Pocket>  (409) 
nan

>  <ATP_Site>  (409) 
nan

>  <Peripheral>  (409) 
nan

>  <Num_H_Atoms_ProtBoundConf>  (409) 
nan

>  <Num_Resolved_Atoms>  (409) 
nan

>  <Num_Not_Resolved_Atoms>  (409) 
nan

$$$$
CHEMBL3662835
     RDKit          3D

  0  0  0  0  0  0  0  0  0  0999 V3000
M  V30 BEGIN CTAB
M  V30 COUNTS 62 65 0 0 0
M  V30 BEGIN ATOM
M  V30 1 C 0.936407 3.442481 2.370456 0
M  V30 2 C 1.884418 2.494648 1.684075 0 CFG=1
M  V30 3 C 2.955032 2.041623 2.623959 0
M  V30 4 N 2.288626 1.380889 3.730362 0
M  V30 5 C 3.211767 1.041076 4.763364 0
M  V30 6 C 1.459069 0.300523 3.296427 0
M  V30 7 C 2.254978 -0.895634 2.834742 0
M  V30 8 C 0.663638 -0.160081 4.503228 0
M  V30 9 C 0.479584 0.771654 2.258090 0
M  V30 10 N 1.116630 1.381817 1.107386 0
M  V30 11 C 1.189041 1.190749 -0.328158 0
M  V30 12 O 1.919596 2.048076 -0.952960 0
M  V30 13 N 0.504441 0.131990 -1.013020 0
M  V30 14 C -0.356465 -0.949885 -0.554572 0
M  V30 15 C -0.573344 -1.767854 -1.768897 0
M  V30 16 C -1.136007 -2.915767 -2.278329 0
M  V30 17 N -1.882893 -3.917810 -1.554086 0
M  V30 18 C -3.259227 -3.588084 -1.560765 0
M  V30 19 O -3.540595 -2.516967 -2.180772 0
M  V30 20 C -4.281832 -4.403739 -0.912076 0
M  V30 21 C -5.590046 -3.969622 -0.993337 0
M  V30 22 C -6.577649 -4.725894 -0.386338 0
M  V30 23 C -6.160205 -5.868894 0.258923 0
M  V30 24 C -4.858469 -6.315961 0.349082 0
M  V30 25 N -3.932831 -5.530583 -0.267041 0
M  V30 26 N -0.889008 -2.994648 -3.619963 0
M  V30 27 N -0.177446 -1.916609 -3.979464 0
M  V30 28 C 0.007053 -1.189747 -2.871652 0
M  V30 29 C 0.660443 0.073938 -2.476525 0
M  V30 30 C -0.047189 1.283897 -3.060160 0
M  V30 31 C 2.097572 0.003988 -2.872707 0
M  V30 32 H -0.088396 3.438925 1.972475 0
M  V30 33 H 1.289841 4.511195 2.274181 0
M  V30 34 H 0.870813 3.166658 3.451206 0
M  V30 35 H 2.416393 3.010382 0.839500 0
M  V30 36 H 3.426063 2.943277 3.043061 0
M  V30 37 H 3.740369 1.453322 2.149515 0
M  V30 38 H 2.900098 1.510657 5.736308 0
M  V30 39 H 3.442493 -0.017965 4.887647 0
M  V30 40 H 4.196980 1.546659 4.543076 0
M  V30 41 H 2.637613 -1.460906 3.692414 0
M  V30 42 H 3.086294 -0.641464 2.178662 0
M  V30 43 H 1.574790 -1.568460 2.275505 0
M  V30 44 H -0.189385 0.482466 4.747764 0
M  V30 45 H 1.334771 -0.195897 5.396678 0
M  V30 46 H 0.320268 -1.215515 4.377295 0
M  V30 47 H -0.159864 1.563026 2.747852 0
M  V30 48 H -0.224764 -0.034672 1.966051 0
M  V30 49 H 0.256507 -1.519161 0.206117 0
M  V30 50 H -1.275004 -0.630529 -0.073339 0
M  V30 51 H -1.575692 -4.800140 -1.054117 0
M  V30 52 H -5.880368 -3.052328 -1.517594 0
M  V30 53 H -7.636093 -4.463214 -0.397606 0
M  V30 54 H -6.901015 -6.497915 0.752418 0
M  V30 55 H -4.594627 -7.224862 0.871882 0
M  V30 56 H 0.137171 -1.746321 -4.961154 0
M  V30 57 H 0.677100 2.091866 -3.236336 0
M  V30 58 H -0.861070 1.556903 -2.361885 0
M  V30 59 H -0.567151 0.974347 -4.003132 0
M  V30 60 H 2.288295 -0.729564 -3.690168 0
M  V30 61 H 2.420159 0.989251 -3.269811 0
M  V30 62 H 2.771143 -0.221828 -2.010030 0
M  V30 END ATOM
M  V30 BEGIN BOND
M  V30 1 1 1 2
M  V30 2 1 2 3
M  V30 3 1 3 4
M  V30 4 1 4 5
M  V30 5 1 4 6
M  V30 6 1 6 7
M  V30 7 1 6 8
M  V30 8 1 6 9
M  V30 9 1 9 10
M  V30 10 1 10 11
M  V30 11 2 11 12
M  V30 12 1 11 13
M  V30 13 1 13 14
M  V30 14 1 14 15
M  V30 15 1 15 16
M  V30 16 1 16 17
M  V30 17 1 17 18
M  V30 18 2 18 19
M  V30 19 1 18 20
M  V30 20 2 20 21
M  V30 21 1 21 22
M  V30 22 2 22 23
M  V30 23 1 23 24
M  V30 24 2 24 25
M  V30 25 2 16 26
M  V30 26 1 26 27
M  V30 27 1 27 28
M  V30 28 1 28 29
M  V30 29 1 29 30
M  V30 30 1 29 31
M  V30 31 1 10 2
M  V30 32 1 29 13
M  V30 33 2 28 15
M  V30 34 1 25 20
M  V30 35 1 1 32
M  V30 36 1 1 33
M  V30 37 1 1 34
M  V30 38 1 2 35 CFG=3
M  V30 39 1 3 36
M  V30 40 1 3 37
M  V30 41 1 5 38
M  V30 42 1 5 39
M  V30 43 1 5 40
M  V30 44 1 7 41
M  V30 45 1 7 42
M  V30 46 1 7 43
M  V30 47 1 8 44
M  V30 48 1 8 45
M  V30 49 1 8 46
M  V30 50 1 9 47
M  V30 51 1 9 48
M  V30 52 1 14 49
M  V30 53 1 14 50
M  V30 54 1 17 51
M  V30 55 1 21 52
M  V30 56 1 22 53
M  V30 57 1 23 54
M  V30 58 1 24 55
M  V30 59 1 27 56
M  V30 60 1 30 57
M  V30 61 1 30 58
M  V30 62 1 30 59
M  V30 63 1 31 60
M  V30 64 1 31 61
M  V30 65 1 31 62
M  V30 END BOND
M  V30 END CTAB
M  END
>  <Dataset>  (410) 
ChEMBL_Kinases

>  <Ligand_Instance>  (410) 
nan

>  <PDB_ID>  (410) 
nan

>  <Standardized_SMILES>  (410) 
C[C@H]1CN(C)C(C)(C)CN1C(=O)N1Cc2c(NC(=O)c3ccccn3)n[nH]c2C1(C)C

>  <Name>  (410) 
nan

>  <Pocket>  (410) 
nan

>  <ATP_Site>  (410) 
nan

>  <Peripheral>  (410) 
nan

>  <Num_H_Atoms_ProtBoundConf>  (410) 
nan

>  <Num_Resolved_Atoms>  (410) 
nan

>  <Num_Not_Resolved_Atoms>  (410) 
nan

$$$$
CHEMBL3662836
     RDKit          3D

  0  0  0  0  0  0  0  0  0  0999 V3000
M  V30 BEGIN CTAB
M  V30 COUNTS 63 67 0 0 0
M  V30 BEGIN ATOM
M  V30 1 C 3.674755 1.382807 3.477493 0
M  V30 2 C 3.512530 0.972155 2.009872 0 CFG=1
M  V30 3 C 4.504098 -0.017137 1.586142 0
M  V30 4 N 4.080211 -1.213534 0.954985 0
M  V30 5 C 4.661027 -2.408026 1.464299 0
M  V30 6 C 3.498817 -3.348291 1.702390 0
M  V30 7 C 2.438534 -2.835681 0.749335 0
M  V30 8 C 2.695412 -1.356193 0.740308 0 CFG=1
M  V30 9 C 1.978679 -0.768891 1.954225 0
M  V30 10 N 2.120186 0.653206 1.827137 0
M  V30 11 C 1.213705 1.743451 1.566397 0
M  V30 12 O 1.750988 2.902859 1.541748 0
M  V30 13 N -0.208524 1.672329 1.333717 0
M  V30 14 C -1.363664 0.772938 1.225668 0
M  V30 15 C -1.866122 1.115844 -0.132879 0
M  V30 16 C -2.435686 0.704254 -1.317654 0
M  V30 17 N -2.805169 -0.638263 -1.612801 0
M  V30 18 C -4.030083 -1.311439 -1.389118 0
M  V30 19 O -4.949778 -0.657314 -0.852264 0
M  V30 20 C -4.128369 -2.708389 -1.798548 0
M  V30 21 C -5.303314 -3.378406 -1.592217 0
M  V30 22 C -5.437799 -4.702708 -1.965606 0
M  V30 23 C -4.390830 -5.383207 -2.555972 0
M  V30 24 C -4.435501 -6.806168 -2.992897 0
M  V30 25 F -5.277635 -7.481279 -2.121571 0
M  V30 26 F -4.914111 -6.876963 -4.279463 0
M  V30 27 F -3.151465 -7.296704 -2.917492 0
M  V30 28 C -3.215641 -4.666300 -2.747463 0
M  V30 29 N -3.105334 -3.380628 -2.377755 0
M  V30 30 N -2.564024 1.775896 -2.096219 0
M  V30 31 N -2.102337 2.834005 -1.454156 0
M  V30 32 C -1.660955 2.471117 -0.236646 0
M  V30 33 C -1.040945 2.830147 1.088835 0
M  V30 34 C -2.065874 3.094013 2.149081 0
M  V30 35 C -0.254174 4.106850 0.874962 0
M  V30 36 H 3.196718 2.354862 3.649471 0
M  V30 37 H 4.779825 1.519294 3.654801 0
M  V30 38 H 3.353560 0.560186 4.117521 0
M  V30 39 H 3.704447 1.930044 1.443114 0
M  V30 40 H 5.314445 0.431901 0.940188 0
M  V30 41 H 5.081352 -0.335333 2.504576 0
M  V30 42 H 5.259563 -2.259303 2.379777 0
M  V30 43 H 5.321440 -2.893037 0.716017 0
M  V30 44 H 3.166207 -3.293338 2.758875 0
M  V30 45 H 3.726458 -4.396597 1.492038 0
M  V30 46 H 2.511780 -3.303267 -0.247364 0
M  V30 47 H 1.457612 -3.020666 1.237619 0
M  V30 48 H 2.361911 -0.867663 -0.194916 0
M  V30 49 H 0.942610 -1.123930 1.974720 0
M  V30 50 H 2.557074 -1.146660 2.847372 0
M  V30 51 H -1.119335 -0.281365 1.328857 0
M  V30 52 H -2.138736 0.992159 1.989927 0
M  V30 53 H -2.014339 -1.151074 -2.059089 0
M  V30 54 H -6.171239 -2.941921 -1.143538 0
M  V30 55 H -6.347782 -5.268142 -1.820361 0
M  V30 56 H -2.346652 -5.096186 -3.194128 0
M  V30 57 H -2.061867 3.826692 -1.793062 0
M  V30 58 H -2.174198 4.198483 2.322712 0
M  V30 59 H -1.879649 2.642107 3.121906 0
M  V30 60 H -3.078509 2.767519 1.806833 0
M  V30 61 H 0.120809 4.515830 1.811796 0
M  V30 62 H -1.044197 4.849185 0.536863 0
M  V30 63 H 0.443621 4.061302 0.031895 0
M  V30 END ATOM
M  V30 BEGIN BOND
M  V30 1 1 1 2
M  V30 2 1 2 3
M  V30 3 1 3 4
M  V30 4 1 4 5
M  V30 5 1 5 6
M  V30 6 1 6 7
M  V30 7 1 7 8
M  V30 8 1 8 9
M  V30 9 1 9 10
M  V30 10 1 10 11
M  V30 11 2 11 12
M  V30 12 1 11 13
M  V30 13 1 13 14
M  V30 14 1 14 15
M  V30 15 1 15 16
M  V30 16 1 16 17
M  V30 17 1 17 18
M  V30 18 2 18 19
M  V30 19 1 18 20
M  V30 20 2 20 21
M  V30 21 1 21 22
M  V30 22 2 22 23
M  V30 23 1 23 24
M  V30 24 1 24 25
M  V30 25 1 24 26
M  V30 26 1 24 27
M  V30 27 1 23 28
M  V30 28 2 28 29
M  V30 29 2 16 30
M  V30 30 1 30 31
M  V30 31 1 31 32
M  V30 32 1 32 33
M  V30 33 1 33 34
M  V30 34 1 33 35
M  V30 35 1 10 2
M  V30 36 1 33 13
M  V30 37 1 8 4
M  V30 38 2 32 15
M  V30 39 1 29 20
M  V30 40 1 1 36
M  V30 41 1 1 37
M  V30 42 1 1 38
M  V30 43 1 2 39 CFG=3
M  V30 44 1 3 40
M  V30 45 1 3 41
M  V30 46 1 5 42
M  V30 47 1 5 43
M  V30 48 1 6 44
M  V30 49 1 6 45
M  V30 50 1 7 46
M  V30 51 1 7 47
M  V30 52 1 8 48 CFG=3
M  V30 53 1 9 49
M  V30 54 1 9 50
M  V30 55 1 14 51
M  V30 56 1 14 52
M  V30 57 1 17 53
M  V30 58 1 21 54
M  V30 59 1 22 55
M  V30 60 1 28 56
M  V30 61 1 31 57
M  V30 62 1 34 58
M  V30 63 1 34 59
M  V30 64 1 34 60
M  V30 65 1 35 61
M  V30 66 1 35 62
M  V30 67 1 35 63
M  V30 END BOND
M  V30 END CTAB
M  END
>  <Dataset>  (411) 
ChEMBL_Kinases

>  <Ligand_Instance>  (411) 
nan

>  <PDB_ID>  (411) 
nan

>  <Standardized_SMILES>  (411) 
C[C@H]1CN2CCC[C@H]2CN1C(=O)N1Cc2c(NC(=O)c3ccc(C(F)(F)F)cn3)n[nH]c2C1(C)C

>  <Name>  (411) 
nan

>  <Pocket>  (411) 
nan

>  <ATP_Site>  (411) 
nan

>  <Peripheral>  (411) 
nan

>  <Num_H_Atoms_ProtBoundConf>  (411) 
nan

>  <Num_Resolved_Atoms>  (411) 
nan

>  <Num_Not_Resolved_Atoms>  (411) 
nan

$$$$
CHEMBL3662837
     RDKit          3D

  0  0  0  0  0  0  0  0  0  0999 V3000
M  V30 BEGIN CTAB
M  V30 COUNTS 62 65 0 0 0
M  V30 BEGIN ATOM
M  V30 1 C -1.058353 -2.644753 3.410640 0
M  V30 2 C 0.321181 -3.283896 3.482770 0
M  V30 3 C 1.383603 -2.259889 3.261060 0 CFG=2
M  V30 4 C 1.301115 -1.563152 1.916643 0
M  V30 5 N 1.570442 -2.460438 0.806135 0
M  V30 6 C 0.986441 -2.630832 -0.500137 0
M  V30 7 O 1.467320 -3.571853 -1.234344 0
M  V30 8 N -0.088227 -1.822905 -1.028371 0
M  V30 9 C -0.820329 -0.706576 -0.493702 0
M  V30 10 C -1.572056 -0.140902 -1.640420 0
M  V30 11 C -2.351932 0.950024 -1.960061 0
M  V30 12 N -2.763487 2.072809 -1.172179 0
M  V30 13 C -2.169180 3.346124 -0.954220 0
M  V30 14 O -1.093016 3.613001 -1.514375 0
M  V30 15 C -2.889070 4.257009 -0.069225 0
M  V30 16 C -2.311920 5.488196 0.140404 0
M  V30 17 C -2.936958 6.403666 0.967270 0
M  V30 18 C -4.136635 6.059456 1.569523 0
M  V30 19 C -4.709385 4.804656 1.346044 0
M  V30 20 N -4.053334 3.958596 0.532000 0
M  V30 21 N -2.687674 0.749363 -3.269870 0
M  V30 22 N -2.144185 -0.380103 -3.692445 0
M  V30 23 C -1.438334 -0.977710 -2.721256 0
M  V30 24 C -0.615073 -2.123098 -2.367280 0
M  V30 25 C 0.506749 -2.272992 -3.366036 0
M  V30 26 C -1.386011 -3.417176 -2.273030 0
M  V30 27 C 2.690819 -3.343544 1.141058 0 CFG=1
M  V30 28 C 3.599016 -3.576241 -0.027451 0
M  V30 29 C 3.501268 -2.748647 2.263322 0
M  V30 30 N 2.677125 -2.830562 3.460665 0
M  V30 31 C 3.301010 -2.288192 4.630621 0
M  V30 32 H -1.014925 -1.584979 3.703162 0
M  V30 33 H -1.729455 -3.211404 4.075960 0
M  V30 34 H -1.465580 -2.694662 2.375751 0
M  V30 35 H 0.311939 -4.123592 2.770973 0
M  V30 36 H 0.429286 -3.689976 4.503458 0
M  V30 37 H 1.204107 -1.451920 4.021433 0
M  V30 38 H 2.024945 -0.726572 1.936622 0
M  V30 39 H 0.235273 -1.225252 1.843613 0
M  V30 40 H -0.081134 0.037161 -0.098007 0
M  V30 41 H -1.533132 -0.929161 0.292501 0
M  V30 42 H -3.676905 1.752459 -0.740740 0
M  V30 43 H -1.369566 5.775236 -0.324957 0
M  V30 44 H -2.523253 7.372252 1.157922 0
M  V30 45 H -4.702352 6.709256 2.233955 0
M  V30 46 H -5.639464 4.467646 1.780121 0
M  V30 47 H -2.281183 -0.716237 -4.671479 0
M  V30 48 H 1.384157 -1.672364 -3.052715 0
M  V30 49 H 0.790104 -3.343057 -3.507888 0
M  V30 50 H 0.129364 -1.908841 -4.348597 0
M  V30 51 H -1.387516 -3.825696 -1.241670 0
M  V30 52 H -0.873256 -4.201076 -2.883246 0
M  V30 53 H -2.416298 -3.332676 -2.630492 0
M  V30 54 H 2.266755 -4.333436 1.415806 0
M  V30 55 H 3.595155 -2.754843 -0.765886 0
M  V30 56 H 4.653626 -3.612375 0.363450 0
M  V30 57 H 3.421335 -4.580802 -0.498770 0
M  V30 58 H 3.800730 -1.731151 1.993327 0
M  V30 59 H 4.347259 -3.452072 2.436918 0
M  V30 60 H 3.900900 -1.388931 4.454303 0
M  V30 61 H 3.853854 -3.116550 5.119669 0
M  V30 62 H 2.463121 -1.988065 5.325459 0
M  V30 END ATOM
M  V30 BEGIN BOND
M  V30 1 1 1 2
M  V30 2 1 2 3
M  V30 3 1 3 4
M  V30 4 1 4 5
M  V30 5 1 5 6
M  V30 6 2 6 7
M  V30 7 1 6 8
M  V30 8 1 8 9
M  V30 9 1 9 10
M  V30 10 1 10 11
M  V30 11 1 11 12
M  V30 12 1 12 13
M  V30 13 2 13 14
M  V30 14 1 13 15
M  V30 15 2 15 16
M  V30 16 1 16 17
M  V30 17 2 17 18
M  V30 18 1 18 19
M  V30 19 2 19 20
M  V30 20 2 11 21
M  V30 21 1 21 22
M  V30 22 1 22 23
M  V30 23 1 23 24
M  V30 24 1 24 25
M  V30 25 1 24 26
M  V30 26 1 5 27
M  V30 27 1 27 28
M  V30 28 1 27 29
M  V30 29 1 29 30
M  V30 30 1 30 31
M  V30 31 1 30 3
M  V30 32 1 24 8
M  V30 33 2 23 10
M  V30 34 1 20 15
M  V30 35 1 1 32
M  V30 36 1 1 33
M  V30 37 1 1 34
M  V30 38 1 2 35
M  V30 39 1 2 36
M  V30 40 1 3 37 CFG=1
M  V30 41 1 4 38
M  V30 42 1 4 39
M  V30 43 1 9 40
M  V30 44 1 9 41
M  V30 45 1 12 42
M  V30 46 1 16 43
M  V30 47 1 17 44
M  V30 48 1 18 45
M  V30 49 1 19 46
M  V30 50 1 22 47
M  V30 51 1 25 48
M  V30 52 1 25 49
M  V30 53 1 25 50
M  V30 54 1 26 51
M  V30 55 1 26 52
M  V30 56 1 26 53
M  V30 57 1 27 54 CFG=1
M  V30 58 1 28 55
M  V30 59 1 28 56
M  V30 60 1 28 57
M  V30 61 1 29 58
M  V30 62 1 29 59
M  V30 63 1 31 60
M  V30 64 1 31 61
M  V30 65 1 31 62
M  V30 END BOND
M  V30 END CTAB
M  END
>  <Dataset>  (412) 
ChEMBL_Kinases

>  <Ligand_Instance>  (412) 
nan

>  <PDB_ID>  (412) 
nan

>  <Standardized_SMILES>  (412) 
CC[C@@H]1CN(C(=O)N2Cc3c(NC(=O)c4ccccn4)n[nH]c3C2(C)C)[C@@H](C)CN1C

>  <Name>  (412) 
nan

>  <Pocket>  (412) 
nan

>  <ATP_Site>  (412) 
nan

>  <Peripheral>  (412) 
nan

>  <Num_H_Atoms_ProtBoundConf>  (412) 
nan

>  <Num_Resolved_Atoms>  (412) 
nan

>  <Num_Not_Resolved_Atoms>  (412) 
nan

$$$$
CHEMBL3662838
     RDKit          3D

  0  0  0  0  0  0  0  0  0  0999 V3000
M  V30 BEGIN CTAB
M  V30 COUNTS 66 70 0 0 0
M  V30 BEGIN ATOM
M  V30 1 C 3.285197 -2.699799 1.477255 0
M  V30 2 C 3.165634 -1.234845 1.344977 0
M  V30 3 C 1.956939 -0.560449 1.843930 0
M  V30 4 C 1.656959 -0.714735 3.293736 0
M  V30 5 C 2.766522 -0.175171 4.181726 0
M  V30 6 C 2.171629 0.919154 1.608715 0
M  V30 7 N 2.924500 1.966614 1.948531 0
M  V30 8 N 2.538753 3.055649 1.307154 0
M  V30 9 C 1.497692 2.775989 0.501611 0
M  V30 10 N 0.728843 3.608771 -0.392472 0
M  V30 11 C -0.453580 4.372984 -0.151351 0
M  V30 12 O -0.979373 4.377718 1.008713 0
M  V30 13 C -0.979739 5.112958 -1.299609 0
M  V30 14 C -2.121854 5.850856 -1.069666 0
M  V30 15 C -2.685802 6.577523 -2.094964 0
M  V30 16 C -2.068256 6.532546 -3.332788 0
M  V30 17 C -0.936344 5.795924 -3.542450 0
M  V30 18 N -0.399342 5.094200 -2.534484 0
M  V30 19 C 1.276579 1.427265 0.701270 0
M  V30 20 C 0.376063 0.334624 0.254514 0
M  V30 21 N 0.746086 -0.769071 1.085191 0
M  V30 22 C -0.007069 -1.950369 1.150211 0
M  V30 23 O 0.343816 -2.888815 1.900303 0
M  V30 24 N -1.138490 -2.626317 0.671302 0
M  V30 25 C -1.091667 -3.911954 1.371199 0
M  V30 26 C -2.294884 -4.757084 0.945926 0 CFG=2
M  V30 27 C -2.057728 -6.185061 1.457640 0
M  V30 28 C -1.161196 -6.759007 0.386072 0
M  V30 29 C -1.153333 -5.754425 -0.739395 0
M  V30 30 N -2.289143 -4.934394 -0.466561 0
M  V30 31 C -2.246507 -3.670204 -1.184109 0
M  V30 32 C -2.272426 -2.518676 -0.212264 0 CFG=2
M  V30 33 C -2.395343 -1.210571 -0.932022 0
M  V30 34 H 2.757790 -3.279161 0.690369 0
M  V30 35 H 4.369474 -2.994949 1.345428 0
M  V30 36 H 2.996098 -3.143480 2.447197 0
M  V30 37 H 3.222324 -1.012793 0.235414 0
M  V30 38 H 4.098777 -0.764794 1.738397 0
M  V30 39 H 1.313611 -1.705461 3.618929 0
M  V30 40 H 0.773474 -0.042030 3.510294 0
M  V30 41 H 2.782202 -0.677184 5.172103 0
M  V30 42 H 2.595745 0.909423 4.430312 0
M  V30 43 H 3.746723 -0.216421 3.669494 0
M  V30 44 H 3.710311 1.982300 2.612412 0
M  V30 45 H 1.236423 3.540640 -1.313250 0
M  V30 46 H -2.639494 5.918150 -0.126661 0
M  V30 47 H -3.567616 7.181828 -2.027936 0
M  V30 48 H -2.409259 7.056557 -4.221346 0
M  V30 49 H -0.364888 5.680500 -4.457191 0
M  V30 50 H -0.690405 0.625419 0.367582 0
M  V30 51 H 0.528616 0.044961 -0.802255 0
M  V30 52 H -1.254573 -3.705693 2.442896 0
M  V30 53 H -0.152813 -4.477187 1.176026 0
M  V30 54 H -3.236303 -4.376490 1.386159 0
M  V30 55 H -3.034636 -6.724985 1.490303 0
M  V30 56 H -1.561967 -6.161074 2.453214 0
M  V30 57 H -0.141694 -6.974238 0.768801 0
M  V30 58 H -1.555200 -7.713987 -0.029454 0
M  V30 59 H -1.204152 -6.253017 -1.737365 0
M  V30 60 H -0.182351 -5.191210 -0.715893 0
M  V30 61 H -3.174352 -3.613934 -1.788920 0
M  V30 62 H -1.385442 -3.677276 -1.846900 0
M  V30 63 H -3.199339 -2.635767 0.420585 0
M  V30 64 H -1.535769 -0.912264 -1.527531 0
M  V30 65 H -3.235133 -1.348372 -1.677015 0
M  V30 66 H -2.752539 -0.394142 -0.274804 0
M  V30 END ATOM
M  V30 BEGIN BOND
M  V30 1 1 1 2
M  V30 2 1 2 3
M  V30 3 1 3 4
M  V30 4 1 4 5
M  V30 5 1 3 6
M  V30 6 1 6 7
M  V30 7 1 7 8
M  V30 8 2 8 9
M  V30 9 1 9 10
M  V30 10 1 10 11
M  V30 11 2 11 12
M  V30 12 1 11 13
M  V30 13 2 13 14
M  V30 14 1 14 15
M  V30 15 2 15 16
M  V30 16 1 16 17
M  V30 17 2 17 18
M  V30 18 1 9 19
M  V30 19 1 19 20
M  V30 20 1 20 21
M  V30 21 1 21 22
M  V30 22 2 22 23
M  V30 23 1 22 24
M  V30 24 1 24 25
M  V30 25 1 25 26
M  V30 26 1 26 27
M  V30 27 1 27 28
M  V30 28 1 28 29
M  V30 29 1 29 30
M  V30 30 1 30 31
M  V30 31 1 31 32
M  V30 32 1 32 33
M  V30 33 1 21 3
M  V30 34 1 32 24
M  V30 35 2 19 6
M  V30 36 1 30 26
M  V30 37 1 18 13
M  V30 38 1 1 34
M  V30 39 1 1 35
M  V30 40 1 1 36
M  V30 41 1 2 37
M  V30 42 1 2 38
M  V30 43 1 4 39
M  V30 44 1 4 40
M  V30 45 1 5 41
M  V30 46 1 5 42
M  V30 47 1 5 43
M  V30 48 1 7 44
M  V30 49 1 10 45
M  V30 50 1 14 46
M  V30 51 1 15 47
M  V30 52 1 16 48
M  V30 53 1 17 49
M  V30 54 1 20 50
M  V30 55 1 20 51
M  V30 56 1 25 52
M  V30 57 1 25 53
M  V30 58 1 26 54 CFG=1
M  V30 59 1 27 55
M  V30 60 1 27 56
M  V30 61 1 28 57
M  V30 62 1 28 58
M  V30 63 1 29 59
M  V30 64 1 29 60
M  V30 65 1 31 61
M  V30 66 1 31 62
M  V30 67 1 32 63 CFG=1
M  V30 68 1 33 64
M  V30 69 1 33 65
M  V30 70 1 33 66
M  V30 END BOND
M  V30 END CTAB
M  END
>  <Dataset>  (413) 
ChEMBL_Kinases

>  <Ligand_Instance>  (413) 
nan

>  <PDB_ID>  (413) 
nan

>  <Standardized_SMILES>  (413) 
CCC1(CC)c2[nH]nc(NC(=O)c3ccccn3)c2CN1C(=O)N1C[C@@H]2CCCN2C[C@@H]1C

>  <Name>  (413) 
nan

>  <Pocket>  (413) 
nan

>  <ATP_Site>  (413) 
nan

>  <Peripheral>  (413) 
nan

>  <Num_H_Atoms_ProtBoundConf>  (413) 
nan

>  <Num_Resolved_Atoms>  (413) 
nan

>  <Num_Not_Resolved_Atoms>  (413) 
nan

$$$$
CHEMBL3662839
     RDKit          3D

  0  0  0  0  0  0  0  0  0  0999 V3000
M  V30 BEGIN CTAB
M  V30 COUNTS 63 67 0 0 0
M  V30 BEGIN ATOM
M  V30 1 C 1.070684 2.267406 0.590199 0
M  V30 2 C 0.748538 1.512196 1.833388 0 CFG=1
M  V30 3 C -0.602197 1.836732 2.401094 0
M  V30 4 N -1.380917 0.660237 2.718928 0
M  V30 5 C -2.556861 1.070774 3.417945 0
M  V30 6 C -0.643381 -0.301887 3.493925 0
M  V30 7 C -0.614664 -0.057845 4.984540 0
M  V30 8 C -1.266375 -1.393605 5.208750 0
M  V30 9 C -1.407418 -1.568609 3.713347 0
M  V30 10 C 0.713523 -0.600094 2.887070 0
M  V30 11 N 0.780658 0.060018 1.606280 0
M  V30 12 C 0.860273 -0.295231 0.240675 0
M  V30 13 O 0.811079 -1.166279 1.137072 0
M  V30 14 N 0.930010 -1.084094 -0.930893 0
M  V30 15 C 1.006410 -0.433418 -2.222731 0
M  V30 16 C 0.000714 -1.136526 -3.034426 0
M  V30 17 C -0.906198 -1.078434 -4.071920 0
M  V30 18 N -1.156012 0.076994 -4.864132 0
M  V30 19 C -0.608243 0.595503 -6.064214 0
M  V30 20 O 0.319012 -0.009174 -6.669021 0
M  V30 21 C -1.193893 1.851536 -6.523412 0
M  V30 22 C -0.674432 2.371097 -7.691142 0
M  V30 23 C -1.175400 3.571867 -8.206971 0
M  V30 24 C -2.195466 4.230774 -7.534062 0
M  V30 25 C -2.693357 3.672457 -6.356559 0
M  V30 26 N -2.190029 2.516665 -5.887160 0
M  V30 27 N -1.466202 -2.313323 -4.149148 0
M  V30 28 N -0.946275 -3.097020 -3.221781 0
M  V30 29 C -0.027664 -2.408852 -2.502156 0
M  V30 30 C 0.956995 -2.442858 -1.390301 0
M  V30 31 C 2.275639 -2.884849 -1.911822 0
M  V30 32 C 0.531533 -3.418060 -0.308350 0
M  V30 33 H 1.511324 3.266997 0.827419 0
M  V30 34 H 0.171355 2.493978 -0.029802 0
M  V30 35 H 1.819740 1.758454 -0.044431 0
M  V30 36 H 1.562948 1.749411 2.580936 0
M  V30 37 H -1.168202 2.413119 1.641234 0
M  V30 38 H -0.537890 2.509671 3.305581 0
M  V30 39 H -2.992331 0.305070 4.088510 0
M  V30 40 H -2.309891 1.945630 4.053958 0
M  V30 41 H -3.362685 1.420297 2.708866 0
M  V30 42 H 0.447228 -0.092014 5.346884 0
M  V30 43 H -1.194081 0.799105 5.355398 0
M  V30 44 H -0.623814 -2.162585 5.675746 0
M  V30 45 H -2.264913 -1.358861 5.689560 0
M  V30 46 H -0.876315 -2.503581 3.370658 0
M  V30 47 H -2.440724 -1.611274 3.340679 0
M  V30 48 H 1.467866 -0.137085 3.588242 0
M  V30 49 H 0.924030 -1.680854 2.864706 0
M  V30 50 H 0.910294 0.645304 -2.206991 0
M  V30 51 H 2.056726 -0.635159 -2.582223 0
M  V30 52 H -1.938289 0.573620 -4.340516 0
M  V30 53 H 0.118472 1.897369 -8.251518 0
M  V30 54 H -0.833638 4.041385 -9.098519 0
M  V30 55 H -2.682856 5.149583 -7.795260 0
M  V30 56 H -3.492807 4.099629 -5.743136 0
M  V30 57 H -1.193030 -4.099894 -3.053157 0
M  V30 58 H 2.207627 -3.035381 -3.003828 0
M  V30 59 H 3.109534 -2.172837 -1.744469 0
M  V30 60 H 2.605400 -3.867957 -1.496522 0
M  V30 61 H 1.333134 -3.660680 0.384024 0
M  V30 62 H -0.410830 -3.065933 0.105522 0
M  V30 63 H 0.278744 -4.373081 -0.853528 0
M  V30 END ATOM
M  V30 BEGIN BOND
M  V30 1 1 1 2
M  V30 2 1 2 3
M  V30 3 1 3 4
M  V30 4 1 4 5
M  V30 5 1 4 6
M  V30 6 1 6 7
M  V30 7 1 7 8
M  V30 8 1 8 9
M  V30 9 1 6 10
M  V30 10 1 10 11
M  V30 11 1 11 12
M  V30 12 2 12 13
M  V30 13 1 12 14
M  V30 14 1 14 15
M  V30 15 1 15 16
M  V30 16 1 16 17
M  V30 17 1 17 18
M  V30 18 1 18 19
M  V30 19 2 19 20
M  V30 20 1 19 21
M  V30 21 2 21 22
M  V30 22 1 22 23
M  V30 23 2 23 24
M  V30 24 1 24 25
M  V30 25 2 25 26
M  V30 26 2 17 27
M  V30 27 1 27 28
M  V30 28 1 28 29
M  V30 29 1 29 30
M  V30 30 1 30 31
M  V30 31 1 30 32
M  V30 32 1 11 2
M  V30 33 1 30 14
M  V30 34 1 9 6
M  V30 35 2 29 16
M  V30 36 1 26 21
M  V30 37 1 1 33
M  V30 38 1 1 34
M  V30 39 1 1 35
M  V30 40 1 2 36 CFG=1
M  V30 41 1 3 37
M  V30 42 1 3 38
M  V30 43 1 5 39
M  V30 44 1 5 40
M  V30 45 1 5 41
M  V30 46 1 7 42
M  V30 47 1 7 43
M  V30 48 1 8 44
M  V30 49 1 8 45
M  V30 50 1 9 46
M  V30 51 1 9 47
M  V30 52 1 10 48
M  V30 53 1 10 49
M  V30 54 1 15 50
M  V30 55 1 15 51
M  V30 56 1 18 52
M  V30 57 1 22 53
M  V30 58 1 23 54
M  V30 59 1 24 55
M  V30 60 1 25 56
M  V30 61 1 28 57
M  V30 62 1 31 58
M  V30 63 1 31 59
M  V30 64 1 31 60
M  V30 65 1 32 61
M  V30 66 1 32 62
M  V30 67 1 32 63
M  V30 END BOND
M  V30 END CTAB
M  END
>  <Dataset>  (414) 
ChEMBL_Kinases

>  <Ligand_Instance>  (414) 
nan

>  <PDB_ID>  (414) 
nan

>  <Standardized_SMILES>  (414) 
C[C@H]1CN(C)C2(CCC2)CN1C(=O)N1Cc2c(NC(=O)c3ccccn3)n[nH]c2C1(C)C

>  <Name>  (414) 
nan

>  <Pocket>  (414) 
nan

>  <ATP_Site>  (414) 
nan

>  <Peripheral>  (414) 
nan

>  <Num_H_Atoms_ProtBoundConf>  (414) 
nan

>  <Num_Resolved_Atoms>  (414) 
nan

>  <Num_Not_Resolved_Atoms>  (414) 
nan

$$$$
CHEMBL3662851
     RDKit          3D

  0  0  0  0  0  0  0  0  0  0999 V3000
M  V30 BEGIN CTAB
M  V30 COUNTS 70 74 0 0 0
M  V30 BEGIN ATOM
M  V30 1 C 1.148270 -2.856587 4.511312 0
M  V30 2 C 1.081032 -3.185662 3.073454 0 CFG=2
M  V30 3 C 1.615880 -2.040371 2.190914 0
M  V30 4 N 1.348725 -2.519329 0.824348 0
M  V30 5 C 1.192480 -1.434002 -0.069855 0
M  V30 6 O 1.342102 -0.395340 0.632935 0
M  V30 7 N 0.959476 -0.825488 -1.328017 0
M  V30 8 C 0.962969 0.619451 -1.417043 0
M  V30 9 C -0.253479 0.915189 -2.231981 0
M  V30 10 C -1.242448 1.843151 -2.485043 0
M  V30 11 N -1.336318 3.093840 -1.815808 0
M  V30 12 C -0.786369 4.378295 -2.119203 0
M  V30 13 O -0.081159 4.510925 -3.144152 0
M  V30 14 C -1.095229 5.461452 -1.191274 0
M  V30 15 C -0.565520 6.695356 -1.485327 0
M  V30 16 C -0.850851 7.739201 -0.610565 0
M  V30 17 C -1.632905 7.595320 0.527065 0
M  V30 18 C -2.126151 6.316189 0.746267 0
M  V30 19 N -1.866497 5.287484 -0.082783 0
M  V30 20 N -1.987701 1.261595 -3.439160 0
M  V30 21 N -1.509631 0.070025 -3.759686 0
M  V30 22 C -0.416300 -0.212280 -3.036736 0
M  V30 23 C 0.688766 -1.174326 -2.708942 0
M  V30 24 C 1.850397 -0.909681 -3.615525 0
M  V30 25 C 0.119198 -2.550953 -2.888610 0
M  V30 26 C 1.285239 -3.961022 0.597394 0 CFG=1
M  V30 27 C 2.630365 -4.608559 0.654855 0
M  V30 28 C 0.258041 -4.631451 1.521323 0
M  V30 29 N -0.109338 -3.609850 2.477385 0
M  V30 30 C -1.305544 -3.773327 3.149192 0
M  V30 31 C -1.784576 -2.649248 4.038186 0
M  V30 32 C -1.746262 -1.366267 3.234347 0
M  V30 33 O -1.579653 -1.615916 1.873433 0
M  V30 34 C -2.537377 -2.531401 1.437611 0
M  V30 35 C -2.447265 -3.846282 2.116282 0
M  V30 36 H 0.845252 -1.820196 4.790070 0
M  V30 37 H 2.249327 -2.848244 4.819495 0
M  V30 38 H 0.734600 -3.654197 5.125514 0
M  V30 39 H 1.894550 -3.973778 2.918098 0
M  V30 40 H 1.091654 -1.114461 2.431941 0
M  V30 41 H 2.702580 -1.939487 2.378941 0
M  V30 42 H 0.976228 1.151820 -0.471624 0
M  V30 43 H 1.878428 0.920378 -1.981267 0
M  V30 44 H -1.920675 2.934785 -0.986716 0
M  V30 45 H 0.057007 6.886626 -2.358758 0
M  V30 46 H -0.463318 8.751371 -0.779669 0
M  V30 47 H -1.824670 8.436353 1.173487 0
M  V30 48 H -2.747081 6.133231 1.620748 0
M  V30 49 H -1.930231 -0.562587 -4.479658 0
M  V30 50 H 1.740364 0.071589 -4.122803 0
M  V30 51 H 2.820625 -0.950371 -3.078988 0
M  V30 52 H 1.907766 -1.685866 -4.403976 0
M  V30 53 H -0.772240 -2.674881 -2.266150 0
M  V30 54 H 0.887634 -3.310802 -2.704373 0
M  V30 55 H -0.205484 -2.599923 -3.959144 0
M  V30 56 H 0.908567 -4.116774 -0.443822 0
M  V30 57 H 3.031769 -4.878354 -0.363392 0
M  V30 58 H 3.411551 -3.907620 1.059754 0
M  V30 59 H 2.671420 -5.526809 1.260872 0
M  V30 60 H -0.534192 -5.105664 0.973135 0
M  V30 61 H 0.821932 -5.409578 2.083941 0
M  V30 62 H -1.429824 -4.736300 3.709701 0
M  V30 63 H -2.899881 -2.815130 4.222747 0
M  V30 64 H -1.365779 -2.596307 5.029806 0
M  V30 65 H -2.687512 -0.759655 3.390259 0
M  V30 66 H -0.945738 -0.745126 3.633535 0
M  V30 67 H -2.509413 -2.600008 0.319486 0
M  V30 68 H -3.516235 -2.000382 1.621194 0
M  V30 69 H -3.373255 -3.934714 2.763078 0
M  V30 70 H -2.446324 -4.743394 1.516447 0
M  V30 END ATOM
M  V30 BEGIN BOND
M  V30 1 1 1 2
M  V30 2 1 2 3
M  V30 3 1 3 4
M  V30 4 1 4 5
M  V30 5 2 5 6
M  V30 6 1 5 7
M  V30 7 1 7 8
M  V30 8 1 8 9
M  V30 9 1 9 10
M  V30 10 1 10 11
M  V30 11 1 11 12
M  V30 12 2 12 13
M  V30 13 1 12 14
M  V30 14 2 14 15
M  V30 15 1 15 16
M  V30 16 2 16 17
M  V30 17 1 17 18
M  V30 18 2 18 19
M  V30 19 2 10 20
M  V30 20 1 20 21
M  V30 21 1 21 22
M  V30 22 1 22 23
M  V30 23 1 23 24
M  V30 24 1 23 25
M  V30 25 1 4 26
M  V30 26 1 26 27
M  V30 27 1 26 28
M  V30 28 1 28 29
M  V30 29 1 29 30
M  V30 30 1 30 31
M  V30 31 1 31 32
M  V30 32 1 32 33
M  V30 33 1 33 34
M  V30 34 1 34 35
M  V30 35 1 29 2
M  V30 36 1 35 30
M  V30 37 1 23 7
M  V30 38 2 22 9
M  V30 39 1 19 14
M  V30 40 1 1 36
M  V30 41 1 1 37
M  V30 42 1 1 38
M  V30 43 1 2 39 CFG=1
M  V30 44 1 3 40
M  V30 45 1 3 41
M  V30 46 1 8 42
M  V30 47 1 8 43
M  V30 48 1 11 44
M  V30 49 1 15 45
M  V30 50 1 16 46
M  V30 51 1 17 47
M  V30 52 1 18 48
M  V30 53 1 21 49
M  V30 54 1 24 50
M  V30 55 1 24 51
M  V30 56 1 24 52
M  V30 57 1 25 53
M  V30 58 1 25 54
M  V30 59 1 25 55
M  V30 60 1 26 56 CFG=3
M  V30 61 1 27 57
M  V30 62 1 27 58
M  V30 63 1 27 59
M  V30 64 1 28 60
M  V30 65 1 28 61
M  V30 66 1 30 62
M  V30 67 1 31 63
M  V30 68 1 31 64
M  V30 69 1 32 65
M  V30 70 1 32 66
M  V30 71 1 34 67
M  V30 72 1 34 68
M  V30 73 1 35 69
M  V30 74 1 35 70
M  V30 END BOND
M  V30 END CTAB
M  END
>  <Dataset>  (415) 
ChEMBL_Kinases

>  <Ligand_Instance>  (415) 
nan

>  <PDB_ID>  (415) 
nan

>  <Standardized_SMILES>  (415) 
C[C@@H]1CN(C(=O)N2Cc3c(NC(=O)c4ccccn4)n[nH]c3C2(C)C)[C@@H](C)CN1C1CCOCC1

>  <Name>  (415) 
nan

>  <Pocket>  (415) 
nan

>  <ATP_Site>  (415) 
nan

>  <Peripheral>  (415) 
nan

>  <Num_H_Atoms_ProtBoundConf>  (415) 
nan

>  <Num_Resolved_Atoms>  (415) 
nan

>  <Num_Not_Resolved_Atoms>  (415) 
nan

$$$$
CHEMBL3662843
     RDKit          3D

  0  0  0  0  0  0  0  0  0  0999 V3000
M  V30 BEGIN CTAB
M  V30 COUNTS 63 67 0 0 0
M  V30 BEGIN ATOM
M  V30 1 C 2.721387 1.887744 3.728842 0
M  V30 2 C 2.702039 1.512708 2.268848 0 CFG=1
M  V30 3 C 3.834625 0.517958 1.959998 0
M  V30 4 N 4.067418 0.653438 0.538381 0
M  V30 5 C 4.974491 -0.287279 -0.021058 0
M  V30 6 C 4.577074 -0.345886 -1.488812 0
M  V30 7 C 3.070252 -0.284078 -1.382240 0
M  V30 8 C 2.855574 0.662179 -0.222243 0 CFG=2
M  V30 9 C 2.649971 2.048154 -0.789492 0
M  V30 10 C 1.653541 0.207417 0.572682 0
M  V30 11 N 1.491003 0.902510 1.812311 0
M  V30 12 C 0.195615 0.883103 2.395828 0
M  V30 13 O 0.225585 1.579873 3.471383 0
M  V30 14 N -0.959557 0.207270 1.886194 0
M  V30 15 C -1.354522 -0.653671 0.763945 0
M  V30 16 C -2.544361 -1.392604 1.253424 0
M  V30 17 C -3.309732 -2.494990 0.940629 0
M  V30 18 N -3.182181 -3.437803 -0.141366 0
M  V30 19 C -3.910441 -3.044348 -1.297741 0
M  V30 20 O -4.556782 -1.961932 -1.246284 0
M  V30 21 C -3.834856 -3.956162 -2.457957 0
M  V30 22 C -4.546660 -3.572002 -3.588719 0
M  V30 23 C -4.551592 -4.335534 -4.722803 0
M  V30 24 C -3.828223 -5.527434 -4.751811 0
M  V30 25 F -3.710762 -6.409085 -5.768093 0
M  V30 26 C -3.137410 -5.857114 -3.590945 0
M  V30 27 N -3.123621 -5.111147 -2.461578 0
M  V30 28 N -4.279565 -2.548242 1.896997 0
M  V30 29 N -4.077332 -1.527656 2.713758 0
M  V30 30 C -3.027569 -0.779815 2.373294 0
M  V30 31 C -2.184360 0.393893 2.672768 0
M  V30 32 C -1.927120 0.430137 4.151206 0
M  V30 33 C -2.940667 1.620982 2.210717 0
M  V30 34 H 2.284285 1.093679 4.361704 0
M  V30 35 H 3.749313 2.150990 4.069888 0
M  V30 36 H 2.128215 2.807284 3.883673 0
M  V30 37 H 2.953076 2.427804 1.657770 0
M  V30 38 H 3.439396 -0.476014 2.247640 0
M  V30 39 H 4.759253 0.796033 2.478799 0
M  V30 40 H 5.992881 0.195007 -0.001620 0
M  V30 41 H 4.975669 -1.285899 0.413289 0
M  V30 42 H 4.942348 0.593880 -1.958818 0
M  V30 43 H 4.921692 -1.254642 -1.997456 0
M  V30 44 H 2.710378 -1.309826 -1.183486 0
M  V30 45 H 2.610010 0.145152 -2.312846 0
M  V30 46 H 2.525431 2.010606 -1.911234 0
M  V30 47 H 1.710717 2.506188 -0.389387 0
M  V30 48 H 3.527320 2.719822 -0.650053 0
M  V30 49 H 1.733785 -0.864791 0.745286 0
M  V30 50 H 0.778518 0.415321 -0.114735 0
M  V30 51 H -1.579688 0.004829 -0.093506 0
M  V30 52 H -0.570873 -1.399737 0.511452 0
M  V30 53 H -2.624319 -4.320593 -0.110085 0
M  V30 54 H -5.140960 -2.673054 -3.682875 0
M  V30 55 H -5.073912 -4.120727 -5.651142 0
M  V30 56 H -2.531745 -6.757047 -3.471224 0
M  V30 57 H -4.722133 -1.374414 3.539543 0
M  V30 58 H -1.842301 1.466966 4.554866 0
M  V30 59 H -1.028420 -0.176208 4.369692 0
M  V30 60 H -2.813501 -0.052067 4.657851 0
M  V30 61 H -3.995632 1.395677 1.943014 0
M  V30 62 H -2.486610 2.108069 1.339866 0
M  V30 63 H -3.018918 2.314559 3.094361 0
M  V30 END ATOM
M  V30 BEGIN BOND
M  V30 1 1 1 2
M  V30 2 1 2 3
M  V30 3 1 3 4
M  V30 4 1 4 5
M  V30 5 1 5 6
M  V30 6 1 6 7
M  V30 7 1 7 8
M  V30 8 1 8 9 CFG=3
M  V30 9 1 8 10
M  V30 10 1 10 11
M  V30 11 1 11 12
M  V30 12 2 12 13
M  V30 13 1 12 14
M  V30 14 1 14 15
M  V30 15 1 15 16
M  V30 16 1 16 17
M  V30 17 1 17 18
M  V30 18 1 18 19
M  V30 19 2 19 20
M  V30 20 1 19 21
M  V30 21 2 21 22
M  V30 22 1 22 23
M  V30 23 2 23 24
M  V30 24 1 24 25
M  V30 25 1 24 26
M  V30 26 2 26 27
M  V30 27 2 17 28
M  V30 28 1 28 29
M  V30 29 1 29 30
M  V30 30 1 30 31
M  V30 31 1 31 32
M  V30 32 1 31 33
M  V30 33 1 11 2
M  V30 34 1 31 14
M  V30 35 1 8 4
M  V30 36 2 30 16
M  V30 37 1 27 21
M  V30 38 1 1 34
M  V30 39 1 1 35
M  V30 40 1 1 36
M  V30 41 1 2 37 CFG=3
M  V30 42 1 3 38
M  V30 43 1 3 39
M  V30 44 1 5 40
M  V30 45 1 5 41
M  V30 46 1 6 42
M  V30 47 1 6 43
M  V30 48 1 7 44
M  V30 49 1 7 45
M  V30 50 1 9 46
M  V30 51 1 9 47
M  V30 52 1 9 48
M  V30 53 1 10 49
M  V30 54 1 10 50
M  V30 55 1 15 51
M  V30 56 1 15 52
M  V30 57 1 18 53
M  V30 58 1 22 54
M  V30 59 1 23 55
M  V30 60 1 26 56
M  V30 61 1 29 57
M  V30 62 1 32 58
M  V30 63 1 32 59
M  V30 64 1 32 60
M  V30 65 1 33 61
M  V30 66 1 33 62
M  V30 67 1 33 63
M  V30 END BOND
M  V30 END CTAB
M  END
>  <Dataset>  (416) 
ChEMBL_Kinases

>  <Ligand_Instance>  (416) 
nan

>  <PDB_ID>  (416) 
nan

>  <Standardized_SMILES>  (416) 
C[C@H]1CN2CCC[C@@]2(C)CN1C(=O)N1Cc2c(NC(=O)c3ccc(F)cn3)n[nH]c2C1(C)C

>  <Name>  (416) 
nan

>  <Pocket>  (416) 
nan

>  <ATP_Site>  (416) 
nan

>  <Peripheral>  (416) 
nan

>  <Num_H_Atoms_ProtBoundConf>  (416) 
nan

>  <Num_Resolved_Atoms>  (416) 
nan

>  <Num_Not_Resolved_Atoms>  (416) 
nan

$$$$
CHEMBL3662844
     RDKit          3D

  0  0  0  0  0  0  0  0  0  0999 V3000
M  V30 BEGIN CTAB
M  V30 COUNTS 66 70 0 0 0
M  V30 BEGIN ATOM
M  V30 1 C 5.196074 1.475722 2.678967 0
M  V30 2 C 3.723045 1.557363 2.274787 0
M  V30 3 C 3.481745 0.407890 1.331748 0 CFG=1
M  V30 4 C 3.780310 -0.869152 2.052701 0
M  V30 5 N 3.361943 -2.058554 1.394597 0
M  V30 6 C 2.841962 -3.029396 2.339619 0
M  V30 7 C 1.347299 -2.965568 2.302996 0
M  V30 8 C 1.014717 -2.096494 1.130203 0
M  V30 9 C 2.347212 -1.937181 0.428614 0 CFG=2
M  V30 10 C 2.500389 -3.084757 -0.567454 0
M  V30 11 C 2.282648 -0.664305 -0.348348 0
M  V30 12 N 2.211813 0.416417 0.654885 0
M  V30 13 C 1.080809 1.239261 0.851712 0
M  V30 14 O 1.407641 2.037035 1.771654 0
M  V30 15 N -0.228462 1.463666 0.392888 0
M  V30 16 C -1.127546 0.893906 -0.593722 0
M  V30 17 C -2.356989 0.648587 0.198580 0
M  V30 18 C -3.457967 -0.160295 0.386436 0
M  V30 19 N -3.810657 -1.322989 -0.351951 0
M  V30 20 C -4.588513 -1.552852 -1.513767 0
M  V30 21 O -5.145022 -0.589329 -2.119455 0
M  V30 22 C -4.698139 -2.940115 -1.948388 0
M  V30 23 C -5.443082 -3.184861 -3.065793 0
M  V30 24 C -5.628912 -4.468061 -3.588895 0
M  V30 25 C -5.004223 -5.500688 -2.899368 0
M  V30 26 F -5.126747 -6.794815 -3.333865 0
M  V30 27 C -4.251303 -5.249446 -1.769224 0
M  V30 28 N -4.117260 -3.983956 -1.323942 0
M  V30 29 N -4.125375 0.395558 1.424881 0
M  V30 30 N -3.496260 1.473211 1.861465 0
M  V30 31 C -2.385825 1.663543 1.119256 0
M  V30 32 C -1.165815 2.474669 0.836871 0
M  V30 33 C -1.532156 3.475504 -0.235264 0
M  V30 34 C -0.721933 3.211500 2.084979 0
M  V30 35 H 5.502044 2.487351 2.991684 0
M  V30 36 H 5.778678 1.234217 1.759956 0
M  V30 37 H 5.368686 0.702422 3.455094 0
M  V30 38 H 3.644797 2.494007 1.696233 0
M  V30 39 H 3.100227 1.507902 3.185529 0
M  V30 40 H 4.280035 0.534576 0.532002 0
M  V30 41 H 3.342664 -0.821457 3.068303 0
M  V30 42 H 4.881797 -0.901743 2.177539 0
M  V30 43 H 3.181368 -2.791191 3.384653 0
M  V30 44 H 3.145047 -4.065599 2.091684 0
M  V30 45 H 0.939119 -2.571430 3.272188 0
M  V30 46 H 0.881422 -3.978436 2.157051 0
M  V30 47 H 0.276662 -2.527584 0.436330 0
M  V30 48 H 0.739873 -1.104999 1.534914 0
M  V30 49 H 3.120652 -3.895664 -0.122019 0
M  V30 50 H 3.128479 -2.697621 -1.413819 0
M  V30 51 H 1.527848 -3.460711 -0.935360 0
M  V30 52 H 3.226638 -0.488239 -0.916912 0
M  V30 53 H 1.410097 -0.709875 -0.994025 0
M  V30 54 H -0.760466 -0.027865 -1.075319 0
M  V30 55 H -1.299828 1.702666 -1.362895 0
M  V30 56 H -3.346980 -2.101654 0.157564 0
M  V30 57 H -5.943113 -2.412009 -3.628461 0
M  V30 58 H -6.218521 -4.656676 -4.472292 0
M  V30 59 H -3.750669 -6.025405 -1.206306 0
M  V30 60 H -3.770159 2.110869 2.649554 0
M  V30 61 H -1.736467 4.453189 0.289923 0
M  V30 62 H -2.465709 3.228073 -0.778296 0
M  V30 63 H -0.730101 3.591908 -0.977389 0
M  V30 64 H -1.614010 3.807711 2.394178 0
M  V30 65 H 0.073806 3.900641 1.804423 0
M  V30 66 H -0.522550 2.527307 2.903122 0
M  V30 END ATOM
M  V30 BEGIN BOND
M  V30 1 1 1 2
M  V30 2 1 2 3
M  V30 3 1 3 4
M  V30 4 1 4 5
M  V30 5 1 5 6
M  V30 6 1 6 7
M  V30 7 1 7 8
M  V30 8 1 8 9
M  V30 9 1 9 10 CFG=3
M  V30 10 1 9 11
M  V30 11 1 11 12
M  V30 12 1 12 13
M  V30 13 2 13 14
M  V30 14 1 13 15
M  V30 15 1 15 16
M  V30 16 1 16 17
M  V30 17 1 17 18
M  V30 18 1 18 19
M  V30 19 1 19 20
M  V30 20 2 20 21
M  V30 21 1 20 22
M  V30 22 2 22 23
M  V30 23 1 23 24
M  V30 24 2 24 25
M  V30 25 1 25 26
M  V30 26 1 25 27
M  V30 27 2 27 28
M  V30 28 2 18 29
M  V30 29 1 29 30
M  V30 30 1 30 31
M  V30 31 1 31 32
M  V30 32 1 32 33
M  V30 33 1 32 34
M  V30 34 1 12 3
M  V30 35 1 32 15
M  V30 36 1 9 5
M  V30 37 2 31 17
M  V30 38 1 28 22
M  V30 39 1 1 35
M  V30 40 1 1 36
M  V30 41 1 1 37
M  V30 42 1 2 38
M  V30 43 1 2 39
M  V30 44 1 3 40 CFG=3
M  V30 45 1 4 41
M  V30 46 1 4 42
M  V30 47 1 6 43
M  V30 48 1 6 44
M  V30 49 1 7 45
M  V30 50 1 7 46
M  V30 51 1 8 47
M  V30 52 1 8 48
M  V30 53 1 10 49
M  V30 54 1 10 50
M  V30 55 1 10 51
M  V30 56 1 11 52
M  V30 57 1 11 53
M  V30 58 1 16 54
M  V30 59 1 16 55
M  V30 60 1 19 56
M  V30 61 1 23 57
M  V30 62 1 24 58
M  V30 63 1 27 59
M  V30 64 1 30 60
M  V30 65 1 33 61
M  V30 66 1 33 62
M  V30 67 1 33 63
M  V30 68 1 34 64
M  V30 69 1 34 65
M  V30 70 1 34 66
M  V30 END BOND
M  V30 END CTAB
M  END
>  <Dataset>  (417) 
ChEMBL_Kinases

>  <Ligand_Instance>  (417) 
nan

>  <PDB_ID>  (417) 
nan

>  <Standardized_SMILES>  (417) 
CC[C@H]1CN2CCC[C@@]2(C)CN1C(=O)N1Cc2c(NC(=O)c3ccc(F)cn3)n[nH]c2C1(C)C

>  <Name>  (417) 
nan

>  <Pocket>  (417) 
nan

>  <ATP_Site>  (417) 
nan

>  <Peripheral>  (417) 
nan

>  <Num_H_Atoms_ProtBoundConf>  (417) 
nan

>  <Num_Resolved_Atoms>  (417) 
nan

>  <Num_Not_Resolved_Atoms>  (417) 
nan

$$$$
CHEMBL3662845
     RDKit          3D

  0  0  0  0  0  0  0  0  0  0999 V3000
M  V30 BEGIN CTAB
M  V30 COUNTS 63 67 0 0 0
M  V30 BEGIN ATOM
M  V30 1 C 3.114480 -4.975599 2.739411 0
M  V30 2 C 1.638952 -4.600807 2.846050 0 CFG=2
M  V30 3 C 0.913764 -4.799928 1.537882 0
M  V30 4 N 0.333219 -3.610516 1.014216 0
M  V30 5 C 0.673001 -3.227152 -0.336622 0
M  V30 6 O 1.464106 -4.164981 -0.699994 0
M  V30 7 N 0.242221 -2.082101 -1.103462 0
M  V30 8 C -0.623528 -0.908523 -0.907440 0
M  V30 9 C -0.034178 0.053981 -1.867341 0
M  V30 10 C -0.084343 1.416275 -2.095542 0
M  V30 11 N -0.804706 2.428193 -1.397778 0
M  V30 12 C -0.754063 3.802772 -1.752194 0
M  V30 13 O -0.046258 4.177488 -2.726651 0
M  V30 14 C -1.544500 4.740353 -0.950356 0
M  V30 15 C -2.364627 4.446164 0.145866 0
M  V30 16 C -2.934256 5.609259 0.621754 0
M  V30 17 C -3.868232 5.755473 1.769360 0
M  V30 18 C -3.560559 4.895843 3.011488 0
M  V30 19 C -4.728264 4.595675 2.109332 0
M  V30 20 O -2.467680 6.542407 -0.161752 0
M  V30 21 N -1.668878 6.074570 -1.072008 0
M  V30 22 N 0.725746 1.605860 -3.166215 0
M  V30 23 N 1.224304 0.437198 -3.549721 0
M  V30 24 C 0.785824 -0.572149 -2.775974 0
M  V30 25 C 0.771176 -2.017866 -2.449827 0
M  V30 26 C -0.059940 -2.746275 -3.453304 0
M  V30 27 C 2.196804 -2.487690 -2.563975 0
M  V30 28 C -0.493666 -3.130400 2.124175 0 CFG=1
M  V30 29 C -1.497108 -4.222427 2.460755 0
M  V30 30 C 0.279420 -2.696255 3.315586 0
M  V30 31 N 1.594365 -3.249222 3.307838 0
M  V30 32 C 2.589458 -2.414363 2.703276 0
M  V30 33 H 3.311761 -5.992729 3.135177 0
M  V30 34 H 3.748858 -4.289903 3.351783 0
M  V30 35 H 3.490817 -4.936529 1.706397 0
M  V30 36 H 1.221126 -5.270292 3.625139 0
M  V30 37 H 1.597580 -5.269263 0.816642 0
M  V30 38 H 0.101030 -5.569152 1.696008 0
M  V30 39 H -0.445978 -0.586554 0.150721 0
M  V30 40 H -1.679974 -1.118531 -1.042753 0
M  V30 41 H -1.396931 2.133602 -0.586247 0
M  V30 42 H -2.504172 3.445916 0.531146 0
M  V30 43 H -4.206078 6.796209 1.983199 0
M  V30 44 H -2.684619 4.198666 2.951872 0
M  V30 45 H -3.737894 5.343627 4.013439 0
M  V30 46 H -5.750991 4.862950 2.488765 0
M  V30 47 H -4.684491 3.743192 1.427535 0
M  V30 48 H 1.884576 0.314532 -4.362992 0
M  V30 49 H 0.550365 -3.464351 -4.055029 0
M  V30 50 H -0.505992 -2.047028 -4.206919 0
M  V30 51 H -0.917337 -3.306902 -3.040680 0
M  V30 52 H 2.687520 -1.932673 -3.370451 0
M  V30 53 H 2.180072 -3.554782 -2.857049 0
M  V30 54 H 2.704063 -2.394046 -1.587185 0
M  V30 55 H -1.046776 -2.248109 1.722305 0
M  V30 56 H -1.116988 -4.926435 3.200957 0
M  V30 57 H -2.390445 -3.687286 2.892111 0
M  V30 58 H -1.879499 -4.681632 1.526909 0
M  V30 59 H -0.217385 -3.024779 4.251281 0
M  V30 60 H 0.395701 -1.588361 3.310897 0
M  V30 61 H 3.407750 -2.180205 3.433055 0
M  V30 62 H 3.035597 -2.943634 1.856608 0
M  V30 63 H 2.181215 -1.433342 2.380817 0
M  V30 END ATOM
M  V30 BEGIN BOND
M  V30 1 1 1 2
M  V30 2 1 2 3
M  V30 3 1 3 4
M  V30 4 1 4 5
M  V30 5 2 5 6
M  V30 6 1 5 7
M  V30 7 1 7 8
M  V30 8 1 8 9
M  V30 9 1 9 10
M  V30 10 1 10 11
M  V30 11 1 11 12
M  V30 12 2 12 13
M  V30 13 1 12 14
M  V30 14 1 14 15
M  V30 15 2 15 16
M  V30 16 1 16 17
M  V30 17 1 17 18
M  V30 18 1 18 19
M  V30 19 1 16 20
M  V30 20 1 20 21
M  V30 21 2 10 22
M  V30 22 1 22 23
M  V30 23 1 23 24
M  V30 24 1 24 25
M  V30 25 1 25 26
M  V30 26 1 25 27
M  V30 27 1 4 28
M  V30 28 1 28 29
M  V30 29 1 28 30
M  V30 30 1 30 31
M  V30 31 1 31 32
M  V30 32 1 31 2
M  V30 33 1 25 7
M  V30 34 2 24 9
M  V30 35 2 21 14
M  V30 36 1 19 17
M  V30 37 1 1 33
M  V30 38 1 1 34
M  V30 39 1 1 35
M  V30 40 1 2 36 CFG=1
M  V30 41 1 3 37
M  V30 42 1 3 38
M  V30 43 1 8 39
M  V30 44 1 8 40
M  V30 45 1 11 41
M  V30 46 1 15 42
M  V30 47 1 17 43
M  V30 48 1 18 44
M  V30 49 1 18 45
M  V30 50 1 19 46
M  V30 51 1 19 47
M  V30 52 1 23 48
M  V30 53 1 26 49
M  V30 54 1 26 50
M  V30 55 1 26 51
M  V30 56 1 27 52
M  V30 57 1 27 53
M  V30 58 1 27 54
M  V30 59 1 28 55 CFG=3
M  V30 60 1 29 56
M  V30 61 1 29 57
M  V30 62 1 29 58
M  V30 63 1 30 59
M  V30 64 1 30 60
M  V30 65 1 32 61
M  V30 66 1 32 62
M  V30 67 1 32 63
M  V30 END BOND
M  V30 END CTAB
M  END
>  <Dataset>  (418) 
ChEMBL_Kinases

>  <Ligand_Instance>  (418) 
nan

>  <PDB_ID>  (418) 
nan

>  <Standardized_SMILES>  (418) 
C[C@@H]1CN(C(=O)N2Cc3c(NC(=O)c4cc(C5CC5)on4)n[nH]c3C2(C)C)[C@@H](C)CN1C

>  <Name>  (418) 
nan

>  <Pocket>  (418) 
nan

>  <ATP_Site>  (418) 
nan

>  <Peripheral>  (418) 
nan

>  <Num_H_Atoms_ProtBoundConf>  (418) 
nan

>  <Num_Resolved_Atoms>  (418) 
nan

>  <Num_Not_Resolved_Atoms>  (418) 
nan

$$$$
CHEMBL3662846
     RDKit          3D

  0  0  0  0  0  0  0  0  0  0999 V3000
M  V30 BEGIN CTAB
M  V30 COUNTS 66 69 0 0 0
M  V30 BEGIN ATOM
M  V30 1 C 0.317826 -2.417082 3.888106 0
M  V30 2 C 0.491052 -3.672884 3.091504 0 CFG=2
M  V30 3 C 1.684377 -3.423221 2.154058 0
M  V30 4 N 1.247649 -3.405625 0.788840 0
M  V30 5 C 1.372491 -2.183364 0.121005 0
M  V30 6 O 1.871859 -1.393291 0.988768 0
M  V30 7 N 1.293564 -1.241764 -0.936819 0
M  V30 8 C 1.736749 0.123569 -0.733664 0
M  V30 9 C 0.548573 0.865229 -1.233014 0
M  V30 10 C -0.251024 1.975136 -1.159937 0
M  V30 11 N -0.075738 3.064934 -0.278587 0
M  V30 12 C -0.948256 4.176677 -0.270398 0
M  V30 13 O -1.892717 4.121259 -1.110111 0
M  V30 14 C -0.751178 5.290600 0.648866 0
M  V30 15 C -1.631532 6.351950 0.624267 0
M  V30 16 C -1.453043 7.406012 1.494139 0
M  V30 17 C -0.407658 7.410809 2.384996 0
M  V30 18 C 0.470105 6.327254 2.391417 0
M  V30 19 N 0.269608 5.310230 1.528223 0
M  V30 20 N -1.235317 1.850390 -2.069153 0
M  V30 21 N -1.097746 0.702812 -2.722859 0
M  V30 22 C -0.009587 0.065882 -2.236343 0
M  V30 23 C 0.875086 -1.154867 -2.311788 0
M  V30 24 C 2.025030 -0.857913 -3.241643 0
M  V30 25 C 0.128911 -2.337477 -2.805539 0
M  V30 26 C 0.747574 -4.718390 0.390982 0 CFG=1
M  V30 27 C 1.816076 -5.785691 0.500414 0
M  V30 28 C -0.432159 -5.001789 1.302247 0
M  V30 29 N -0.594138 -4.050142 2.304873 0
M  V30 30 C -1.848096 -3.441595 2.483171 0
M  V30 31 C -2.146781 -2.553132 1.294580 0
M  V30 32 C -3.487747 -1.859713 1.412562 0
M  V30 33 C -3.741533 -1.006354 0.234434 0
M  V30 34 N -3.949525 -0.333291 -0.692728 0
M  V30 35 H -0.276159 -2.496934 4.795879 0
M  V30 36 H -0.100772 -1.580468 3.281728 0
M  V30 37 H 1.334492 -2.046348 4.191055 0
M  V30 38 H 0.750783 -4.483781 3.806898 0
M  V30 39 H 2.398601 -4.282373 2.268727 0
M  V30 40 H 2.268720 -2.537706 2.471331 0
M  V30 41 H 2.014353 0.381419 0.282359 0
M  V30 42 H 2.638346 0.330126 -1.380779 0
M  V30 43 H 0.718951 3.080604 0.407012 0
M  V30 44 H -2.486659 6.414347 -0.061094 0
M  V30 45 H -2.069364 8.288698 1.571549 0
M  V30 46 H -0.124909 8.148964 3.125407 0
M  V30 47 H 1.345578 6.166345 3.025391 0
M  V30 48 H -1.686975 0.304019 -3.482920 0
M  V30 49 H 1.889301 -1.459736 -4.160364 0
M  V30 50 H 2.110379 0.228292 -3.466586 0
M  V30 51 H 2.953445 -1.243936 -2.759753 0
M  V30 52 H -0.518001 -2.003052 -3.658197 0
M  V30 53 H -0.537780 -2.820603 -2.081827 0
M  V30 54 H 0.824496 -3.081383 -3.263454 0
M  V30 55 H 0.405068 -4.658483 -0.647353 0
M  V30 56 H 1.736360 -6.266211 1.515673 0
M  V30 57 H 1.669003 -6.600750 -0.224406 0
M  V30 58 H 2.839332 -5.403909 0.397811 0
M  V30 59 H -0.223128 -5.993256 1.783479 0
M  V30 60 H -1.360218 -5.157038 0.720868 0
M  V30 61 H -2.628586 -4.259622 2.430361 0
M  V30 62 H -2.023184 -2.970344 3.457486 0
M  V30 63 H -2.198423 -3.212293 0.408679 0
M  V30 64 H -1.330861 -1.841257 1.105015 0
M  V30 65 H -4.313782 -2.552591 1.554262 0
M  V30 66 H -3.404381 -1.170198 2.278134 0
M  V30 END ATOM
M  V30 BEGIN BOND
M  V30 1 1 1 2
M  V30 2 1 2 3
M  V30 3 1 3 4
M  V30 4 1 4 5
M  V30 5 2 5 6
M  V30 6 1 5 7
M  V30 7 1 7 8
M  V30 8 1 8 9
M  V30 9 1 9 10
M  V30 10 1 10 11
M  V30 11 1 11 12
M  V30 12 2 12 13
M  V30 13 1 12 14
M  V30 14 2 14 15
M  V30 15 1 15 16
M  V30 16 2 16 17
M  V30 17 1 17 18
M  V30 18 2 18 19
M  V30 19 2 10 20
M  V30 20 1 20 21
M  V30 21 1 21 22
M  V30 22 1 22 23
M  V30 23 1 23 24
M  V30 24 1 23 25
M  V30 25 1 4 26
M  V30 26 1 26 27
M  V30 27 1 26 28
M  V30 28 1 28 29
M  V30 29 1 29 30
M  V30 30 1 30 31
M  V30 31 1 31 32
M  V30 32 1 32 33
M  V30 33 3 33 34
M  V30 34 1 29 2
M  V30 35 1 23 7
M  V30 36 2 22 9
M  V30 37 1 19 14
M  V30 38 1 1 35
M  V30 39 1 1 36
M  V30 40 1 1 37
M  V30 41 1 2 38 CFG=1
M  V30 42 1 3 39
M  V30 43 1 3 40
M  V30 44 1 8 41
M  V30 45 1 8 42
M  V30 46 1 11 43
M  V30 47 1 15 44
M  V30 48 1 16 45
M  V30 49 1 17 46
M  V30 50 1 18 47
M  V30 51 1 21 48
M  V30 52 1 24 49
M  V30 53 1 24 50
M  V30 54 1 24 51
M  V30 55 1 25 52
M  V30 56 1 25 53
M  V30 57 1 25 54
M  V30 58 1 26 55 CFG=3
M  V30 59 1 27 56
M  V30 60 1 27 57
M  V30 61 1 27 58
M  V30 62 1 28 59
M  V30 63 1 28 60
M  V30 64 1 30 61
M  V30 65 1 30 62
M  V30 66 1 31 63
M  V30 67 1 31 64
M  V30 68 1 32 65
M  V30 69 1 32 66
M  V30 END BOND
M  V30 END CTAB
M  END
>  <Dataset>  (419) 
ChEMBL_Kinases

>  <Ligand_Instance>  (419) 
nan

>  <PDB_ID>  (419) 
nan

>  <Standardized_SMILES>  (419) 
C[C@@H]1CN(C(=O)N2Cc3c(NC(=O)c4ccccn4)n[nH]c3C2(C)C)[C@@H](C)CN1CCCC#N

>  <Name>  (419) 
nan

>  <Pocket>  (419) 
nan

>  <ATP_Site>  (419) 
nan

>  <Peripheral>  (419) 
nan

>  <Num_H_Atoms_ProtBoundConf>  (419) 
nan

>  <Num_Resolved_Atoms>  (419) 
nan

>  <Num_Not_Resolved_Atoms>  (419) 
nan

$$$$
CHEMBL3662847
     RDKit          3D

  0  0  0  0  0  0  0  0  0  0999 V3000
M  V30 BEGIN CTAB
M  V30 COUNTS 65 68 0 0 0
M  V30 BEGIN ATOM
M  V30 1 C 0.517486 -1.709172 4.024222 0
M  V30 2 C 0.134025 -2.911566 3.238074 0 CFG=2
M  V30 3 C 1.084186 -2.973476 2.033553 0
M  V30 4 N 0.372090 -3.094298 0.785193 0
M  V30 5 C 0.549289 -2.216532 -0.276818 0
M  V30 6 O 1.400785 -1.497742 0.306834 0
M  V30 7 N 0.692903 -1.356881 -1.378488 0
M  V30 8 C 1.570151 -0.198160 -1.446011 0
M  V30 9 C 0.784975 0.811085 -2.210872 0
M  V30 10 C 0.519229 2.120230 -2.557157 0
M  V30 11 N 1.252729 3.244616 -2.017141 0
M  V30 12 C 0.595168 3.706337 -0.841639 0
M  V30 13 O -0.446959 2.999440 -0.602108 0
M  V30 14 C 1.017275 4.809547 -0.017070 0
M  V30 15 C 0.213054 5.094092 1.084483 0
M  V30 16 C 0.503293 6.127499 1.953783 0
M  V30 17 C 1.614169 6.929490 1.764710 0
M  V30 18 C 2.388225 6.611929 0.655702 0
M  V30 19 N 2.094290 5.600554 -0.185358 0
M  V30 20 N -0.494498 2.149435 -3.438481 0
M  V30 21 N -0.918855 0.918934 -3.696944 0
M  V30 22 C -0.148665 0.076302 -2.954576 0
M  V30 23 C 0.042232 -1.380620 -2.657319 0
M  V30 24 C 0.953855 -1.945476 -3.694975 0
M  V30 25 C -1.323877 -2.024248 -2.631089 0
M  V30 26 C -0.533840 -4.225284 0.783380 0 CFG=1
M  V30 27 C 0.234723 -5.539451 0.710956 0
M  V30 28 C -1.355606 -4.225553 2.065939 0
M  V30 29 N -1.183617 -2.936671 2.704689 0
M  V30 30 C -2.226697 -2.702883 3.640771 0
M  V30 31 C -3.562705 -2.504931 2.962841 0
M  V30 32 C -3.539576 -1.319890 2.021533 0
M  V30 33 F -4.802458 -1.233816 1.463104 0
M  V30 34 H 0.237351 -1.713750 5.089705 0
M  V30 35 H 0.172681 -0.794141 3.472628 0
M  V30 36 H 1.638479 -1.636494 4.007493 0
M  V30 37 H 0.263493 -3.822769 3.877846 0
M  V30 38 H 1.838314 -2.174848 2.048482 0
M  V30 39 H 1.685054 -3.925521 2.134063 0
M  V30 40 H 2.476347 -0.503891 -2.007231 0
M  V30 41 H 1.820030 0.214213 -0.454116 0
M  V30 42 H 2.122763 3.744846 -2.316905 0
M  V30 43 H -0.681287 4.500262 1.294082 0
M  V30 44 H -0.155963 6.307442 2.795902 0
M  V30 45 H 1.858216 7.742074 2.432093 0
M  V30 46 H 3.285114 7.194983 0.431281 0
M  V30 47 H -1.700105 0.704057 -4.354853 0
M  V30 48 H 1.306279 -2.945566 -3.410556 0
M  V30 49 H 0.394133 -1.964115 -4.669915 0
M  V30 50 H 1.832412 -1.273824 -3.775023 0
M  V30 51 H -1.367403 -2.984416 -2.118562 0
M  V30 52 H -1.653925 -2.132458 -3.689029 0
M  V30 53 H -2.033075 -1.279060 -2.169132 0
M  V30 54 H -1.272941 -4.170178 -0.039264 0
M  V30 55 H 1.171398 -5.445377 0.135932 0
M  V30 56 H -0.416642 -6.318799 0.307118 0
M  V30 57 H 0.556864 -5.884863 1.728099 0
M  V30 58 H -0.896756 -4.974512 2.765774 0
M  V30 59 H -2.387632 -4.527148 1.891449 0
M  V30 60 H -2.350281 -3.529296 4.385400 0
M  V30 61 H -2.075445 -1.795011 4.268054 0
M  V30 62 H -4.296184 -2.208845 3.770795 0
M  V30 63 H -3.952516 -3.363536 2.428450 0
M  V30 64 H -2.818694 -1.471591 1.202913 0
M  V30 65 H -3.277922 -0.378505 2.548097 0
M  V30 END ATOM
M  V30 BEGIN BOND
M  V30 1 1 1 2
M  V30 2 1 2 3
M  V30 3 1 3 4
M  V30 4 1 4 5
M  V30 5 2 5 6
M  V30 6 1 5 7
M  V30 7 1 7 8
M  V30 8 1 8 9
M  V30 9 1 9 10
M  V30 10 1 10 11
M  V30 11 1 11 12
M  V30 12 2 12 13
M  V30 13 1 12 14
M  V30 14 2 14 15
M  V30 15 1 15 16
M  V30 16 2 16 17
M  V30 17 1 17 18
M  V30 18 2 18 19
M  V30 19 2 10 20
M  V30 20 1 20 21
M  V30 21 1 21 22
M  V30 22 1 22 23
M  V30 23 1 23 24
M  V30 24 1 23 25
M  V30 25 1 4 26
M  V30 26 1 26 27
M  V30 27 1 26 28
M  V30 28 1 28 29
M  V30 29 1 29 30
M  V30 30 1 30 31
M  V30 31 1 31 32
M  V30 32 1 32 33
M  V30 33 1 29 2
M  V30 34 1 23 7
M  V30 35 2 22 9
M  V30 36 1 19 14
M  V30 37 1 1 34
M  V30 38 1 1 35
M  V30 39 1 1 36
M  V30 40 1 2 37 CFG=1
M  V30 41 1 3 38
M  V30 42 1 3 39
M  V30 43 1 8 40
M  V30 44 1 8 41
M  V30 45 1 11 42
M  V30 46 1 15 43
M  V30 47 1 16 44
M  V30 48 1 17 45
M  V30 49 1 18 46
M  V30 50 1 21 47
M  V30 51 1 24 48
M  V30 52 1 24 49
M  V30 53 1 24 50
M  V30 54 1 25 51
M  V30 55 1 25 52
M  V30 56 1 25 53
M  V30 57 1 26 54 CFG=3
M  V30 58 1 27 55
M  V30 59 1 27 56
M  V30 60 1 27 57
M  V30 61 1 28 58
M  V30 62 1 28 59
M  V30 63 1 30 60
M  V30 64 1 30 61
M  V30 65 1 31 62
M  V30 66 1 31 63
M  V30 67 1 32 64
M  V30 68 1 32 65
M  V30 END BOND
M  V30 END CTAB
M  END
>  <Dataset>  (420) 
ChEMBL_Kinases

>  <Ligand_Instance>  (420) 
nan

>  <PDB_ID>  (420) 
nan

>  <Standardized_SMILES>  (420) 
C[C@@H]1CN(C(=O)N2Cc3c(NC(=O)c4ccccn4)n[nH]c3C2(C)C)[C@@H](C)CN1CCCF

>  <Name>  (420) 
nan

>  <Pocket>  (420) 
nan

>  <ATP_Site>  (420) 
nan

>  <Peripheral>  (420) 
nan

>  <Num_H_Atoms_ProtBoundConf>  (420) 
nan

>  <Num_Resolved_Atoms>  (420) 
nan

>  <Num_Not_Resolved_Atoms>  (420) 
nan

$$$$
CHEMBL3662848
     RDKit          3D

  0  0  0  0  0  0  0  0  0  0999 V3000
M  V30 BEGIN CTAB
M  V30 COUNTS 73 77 0 0 0
M  V30 BEGIN ATOM
M  V30 1 C 4.350164 -3.337710 0.910162 0
M  V30 2 C 2.995562 -2.895458 1.411028 0 CFG=2
M  V30 3 C 1.972309 -3.490189 0.430880 0
M  V30 4 N 0.713265 -2.821732 0.678814 0
M  V30 5 C -0.204448 -2.869107 -0.403280 0
M  V30 6 O 0.564871 -3.487180 -1.176018 0
M  V30 7 N -1.523167 -2.439749 -0.692548 0
M  V30 8 C -2.693225 -1.788779 -0.135266 0
M  V30 9 C -3.007321 -0.678956 -1.096767 0
M  V30 10 C -3.504901 0.605207 -1.318931 0
M  V30 11 N -3.985579 1.276401 -0.163016 0
M  V30 12 C -3.406549 2.076996 0.829623 0
M  V30 13 O -2.169216 2.330042 0.792913 0
M  V30 14 C -4.293153 2.582329 1.878081 0
M  V30 15 C -3.742203 3.364702 2.870220 0
M  V30 16 C -4.602695 3.826636 3.849555 0
M  V30 17 C -5.953018 3.538009 3.863888 0
M  V30 18 C -6.459927 2.751474 2.850970 0
M  V30 19 N -5.616713 2.306496 1.903184 0
M  V30 20 N -3.365894 0.793025 -2.640658 0
M  V30 21 N -2.830944 -0.271065 -3.208650 0
M  V30 22 C -2.582628 -1.234863 -2.283414 0
M  V30 23 C -2.055065 -2.622310 -2.008443 0
M  V30 24 C -3.151827 -3.638974 -1.967374 0
M  V30 25 C -1.017483 -2.919306 -3.065742 0
M  V30 26 C 0.503951 -2.162508 1.951549 0 CFG=1
M  V30 27 C 0.407676 -3.140803 3.090033 0
M  V30 28 C 1.627249 -1.140051 2.165706 0
M  V30 29 N 2.779757 -1.521321 1.453295 0
M  V30 30 C 3.748069 -0.590094 1.099910 0
M  V30 31 C 3.193390 0.350594 0.025250 0
M  V30 32 C 2.825795 -0.517198 -1.159762 0
M  V30 33 C 2.780299 0.258093 -2.456008 0
M  V30 34 O 3.939684 1.011394 -2.634218 0
M  V30 35 C 3.891526 2.010158 -1.660985 0
M  V30 36 C 4.179617 1.434306 -0.306597 0
M  V30 37 H 4.435159 -4.431499 1.181783 0
M  V30 38 H 5.201511 -2.869834 1.440250 0
M  V30 39 H 4.441567 -3.341735 -0.191519 0
M  V30 40 H 2.866796 -3.360715 2.393887 0
M  V30 41 H 1.896960 -4.587134 0.571987 0
M  V30 42 H 2.360592 -3.331908 -0.594784 0
M  V30 43 H -3.589246 -2.469327 -0.134056 0
M  V30 44 H -2.517745 -1.326496 0.833777 0
M  V30 45 H -5.027891 1.061547 -0.134058 0
M  V30 46 H -2.687525 3.602776 2.879232 0
M  V30 47 H -4.217779 4.454642 4.668083 0
M  V30 48 H -6.655326 3.884299 4.617878 0
M  V30 49 H -7.508678 2.452147 2.750093 0
M  V30 50 H -2.628454 -0.356431 -4.232169 0
M  V30 51 H -3.156230 -4.249904 -1.025130 0
M  V30 52 H -3.134501 -4.313498 -2.865650 0
M  V30 53 H -4.136880 -3.118427 -1.989981 0
M  V30 54 H -0.722254 -3.972032 -3.062546 0
M  V30 55 H -0.203590 -2.198232 -2.954912 0
M  V30 56 H -1.505084 -2.693979 -4.040902 0
M  V30 57 H -0.433440 -1.564701 1.954646 0
M  V30 58 H 1.108478 -2.852011 3.919860 0
M  V30 59 H 0.654651 -4.167254 2.775036 0
M  V30 60 H -0.639723 -3.199500 3.481769 0
M  V30 61 H 1.283406 -0.125822 1.856650 0
M  V30 62 H 1.767633 -1.061131 3.270441 0
M  V30 63 H 3.922602 0.092215 1.986676 0
M  V30 64 H 4.740198 -0.962252 0.837582 0
M  V30 65 H 2.270316 0.844477 0.377286 0
M  V30 66 H 3.560361 -1.358528 -1.210719 0
M  V30 67 H 1.789831 -0.871374 -0.996963 0
M  V30 68 H 2.679653 -0.514640 -3.261519 0
M  V30 69 H 1.866987 0.886739 -2.431707 0
M  V30 70 H 2.898518 2.470567 -1.672960 0
M  V30 71 H 4.706875 2.725987 -1.925883 0
M  V30 72 H 5.231062 1.098937 -0.205021 0
M  V30 73 H 4.014696 2.269896 0.419306 0
M  V30 END ATOM
M  V30 BEGIN BOND
M  V30 1 1 1 2
M  V30 2 1 2 3
M  V30 3 1 3 4
M  V30 4 1 4 5
M  V30 5 2 5 6
M  V30 6 1 5 7
M  V30 7 1 7 8
M  V30 8 1 8 9
M  V30 9 1 9 10
M  V30 10 1 10 11
M  V30 11 1 11 12
M  V30 12 2 12 13
M  V30 13 1 12 14
M  V30 14 2 14 15
M  V30 15 1 15 16
M  V30 16 2 16 17
M  V30 17 1 17 18
M  V30 18 2 18 19
M  V30 19 2 10 20
M  V30 20 1 20 21
M  V30 21 1 21 22
M  V30 22 1 22 23
M  V30 23 1 23 24
M  V30 24 1 23 25
M  V30 25 1 4 26
M  V30 26 1 26 27
M  V30 27 1 26 28
M  V30 28 1 28 29
M  V30 29 1 29 30
M  V30 30 1 30 31
M  V30 31 1 31 32
M  V30 32 1 32 33
M  V30 33 1 33 34
M  V30 34 1 34 35
M  V30 35 1 35 36
M  V30 36 1 29 2
M  V30 37 1 36 31
M  V30 38 1 23 7
M  V30 39 2 22 9
M  V30 40 1 19 14
M  V30 41 1 1 37
M  V30 42 1 1 38
M  V30 43 1 1 39
M  V30 44 1 2 40 CFG=1
M  V30 45 1 3 41
M  V30 46 1 3 42
M  V30 47 1 8 43
M  V30 48 1 8 44
M  V30 49 1 11 45
M  V30 50 1 15 46
M  V30 51 1 16 47
M  V30 52 1 17 48
M  V30 53 1 18 49
M  V30 54 1 21 50
M  V30 55 1 24 51
M  V30 56 1 24 52
M  V30 57 1 24 53
M  V30 58 1 25 54
M  V30 59 1 25 55
M  V30 60 1 25 56
M  V30 61 1 26 57 CFG=3
M  V30 62 1 27 58
M  V30 63 1 27 59
M  V30 64 1 27 60
M  V30 65 1 28 61
M  V30 66 1 28 62
M  V30 67 1 30 63
M  V30 68 1 30 64
M  V30 69 1 31 65
M  V30 70 1 32 66
M  V30 71 1 32 67
M  V30 72 1 33 68
M  V30 73 1 33 69
M  V30 74 1 35 70
M  V30 75 1 35 71
M  V30 76 1 36 72
M  V30 77 1 36 73
M  V30 END BOND
M  V30 END CTAB
M  END
>  <Dataset>  (421) 
ChEMBL_Kinases

>  <Ligand_Instance>  (421) 
nan

>  <PDB_ID>  (421) 
nan

>  <Standardized_SMILES>  (421) 
C[C@@H]1CN(C(=O)N2Cc3c(NC(=O)c4ccccn4)n[nH]c3C2(C)C)[C@@H](C)CN1CC1CCOCC1

>  <Name>  (421) 
nan

>  <Pocket>  (421) 
nan

>  <ATP_Site>  (421) 
nan

>  <Peripheral>  (421) 
nan

>  <Num_H_Atoms_ProtBoundConf>  (421) 
nan

>  <Num_Resolved_Atoms>  (421) 
nan

>  <Num_Not_Resolved_Atoms>  (421) 
nan

$$$$
CHEMBL3662849
     RDKit          3D

  0  0  0  0  0  0  0  0  0  0999 V3000
M  V30 BEGIN CTAB
M  V30 COUNTS 69 72 0 0 0
M  V30 BEGIN ATOM
M  V30 1 C 4.169693 -2.609702 3.303460 0
M  V30 2 C 2.691777 -2.754256 2.969639 0 CFG=2
M  V30 3 C 2.494969 -3.056437 1.517768 0
M  V30 4 N 1.215203 -2.550821 1.084537 0
M  V30 5 C 1.138827 -2.167713 -0.303728 0
M  V30 6 O 2.334503 -2.465373 -0.647400 0
M  V30 7 N 0.014332 -1.617620 -1.024065 0
M  V30 8 C -1.372144 -1.235523 -0.751178 0
M  V30 9 C -1.892836 -0.989032 -2.096965 0
M  V30 10 C -3.010724 -0.695715 -2.844107 0
M  V30 11 N -4.311883 -0.512682 -2.256335 0
M  V30 12 C -4.483893 0.854358 -1.908908 0
M  V30 13 O -3.453747 1.552393 -2.204614 0
M  V30 14 C -5.661880 1.446027 -1.291445 0
M  V30 15 C -5.627293 2.794207 -1.025706 0
M  V30 16 C -6.688816 3.440874 -0.443750 0
M  V30 17 C -7.804199 2.692690 -0.128862 0
M  V30 18 C -7.857238 1.332951 -0.389165 0
M  V30 19 N -6.778802 0.765472 -0.962052 0
M  V30 20 N -2.687030 -0.617357 -4.137088 0
M  V30 21 N -1.373512 -0.851316 -4.283294 0
M  V30 22 C -0.901265 -1.074383 -3.047363 0
M  V30 23 C 0.404364 -1.384953 -2.423775 0
M  V30 24 C 1.284364 -0.160644 -2.533956 0
M  V30 25 C 1.002830 -2.590207 -3.070739 0
M  V30 26 C 0.110069 -2.454460 1.997094 0 CFG=1
M  V30 27 C -0.762797 -3.669738 1.850200 0
M  V30 28 C 0.498807 -2.201115 3.428579 0
M  V30 29 N 1.889618 -1.720656 3.517646 0
M  V30 30 C 1.913945 -0.441371 2.914481 0
M  V30 31 C 3.244844 0.260533 2.891130 0
M  V30 32 C 2.980059 1.602033 2.190957 0
M  V30 33 C 4.262892 2.401317 2.116701 0
M  V30 34 C 4.793988 2.676249 3.454837 0
M  V30 35 N 5.207948 2.889637 4.527266 0
M  V30 36 H 4.772903 -2.493427 2.371188 0
M  V30 37 H 4.371532 -1.803553 4.035647 0
M  V30 38 H 4.596194 -3.528847 3.777670 0
M  V30 39 H 2.380275 -3.686252 3.538968 0
M  V30 40 H 3.353779 -2.724445 0.892042 0
M  V30 41 H 2.497845 -4.179648 1.398400 0
M  V30 42 H -1.934321 -1.993790 -0.184741 0
M  V30 43 H -1.348988 -0.310554 -0.141476 0
M  V30 44 H -5.127891 -1.158925 -2.040524 0
M  V30 45 H -4.761565 3.390443 -1.269244 0
M  V30 46 H -6.715595 4.496950 -0.212209 0
M  V30 47 H -8.715230 3.065410 0.333622 0
M  V30 48 H -8.667585 0.653848 -0.187328 0
M  V30 49 H -0.929117 -0.835385 -5.225841 0
M  V30 50 H 0.745551 0.778816 -2.418805 0
M  V30 51 H 2.046169 -0.223628 -1.716827 0
M  V30 52 H 1.880114 -0.226917 -3.479235 0
M  V30 53 H 0.595030 -3.502038 -2.589908 0
M  V30 54 H 2.109654 -2.580970 -3.116576 0
M  V30 55 H 0.636545 -2.614386 -4.120004 0
M  V30 56 H -0.504841 -1.580817 1.691277 0
M  V30 57 H -0.655465 -4.124081 0.837287 0
M  V30 58 H -0.550396 -4.484197 2.572336 0
M  V30 59 H -1.835024 -3.385443 1.929154 0
M  V30 60 H -0.148876 -1.445317 3.917893 0
M  V30 61 H 0.355080 -3.130314 4.006390 0
M  V30 62 H 1.271557 0.216200 3.581278 0
M  V30 63 H 1.402721 -0.352501 1.928829 0
M  V30 64 H 4.010290 -0.231233 2.261758 0
M  V30 65 H 3.537334 0.487485 3.913551 0
M  V30 66 H 2.248853 2.207258 2.767300 0
M  V30 67 H 2.652323 1.404242 1.157887 0
M  V30 68 H 4.979123 1.841495 1.484046 0
M  V30 69 H 4.075886 3.361077 1.620718 0
M  V30 END ATOM
M  V30 BEGIN BOND
M  V30 1 1 1 2
M  V30 2 1 2 3
M  V30 3 1 3 4
M  V30 4 1 4 5
M  V30 5 2 5 6
M  V30 6 1 5 7
M  V30 7 1 7 8
M  V30 8 1 8 9
M  V30 9 1 9 10
M  V30 10 1 10 11
M  V30 11 1 11 12
M  V30 12 2 12 13
M  V30 13 1 12 14
M  V30 14 2 14 15
M  V30 15 1 15 16
M  V30 16 2 16 17
M  V30 17 1 17 18
M  V30 18 2 18 19
M  V30 19 2 10 20
M  V30 20 1 20 21
M  V30 21 1 21 22
M  V30 22 1 22 23
M  V30 23 1 23 24
M  V30 24 1 23 25
M  V30 25 1 4 26
M  V30 26 1 26 27
M  V30 27 1 26 28
M  V30 28 1 28 29
M  V30 29 1 29 30
M  V30 30 1 30 31
M  V30 31 1 31 32
M  V30 32 1 32 33
M  V30 33 1 33 34
M  V30 34 3 34 35
M  V30 35 1 29 2
M  V30 36 1 23 7
M  V30 37 2 22 9
M  V30 38 1 19 14
M  V30 39 1 1 36
M  V30 40 1 1 37
M  V30 41 1 1 38
M  V30 42 1 2 39 CFG=1
M  V30 43 1 3 40
M  V30 44 1 3 41
M  V30 45 1 8 42
M  V30 46 1 8 43
M  V30 47 1 11 44
M  V30 48 1 15 45
M  V30 49 1 16 46
M  V30 50 1 17 47
M  V30 51 1 18 48
M  V30 52 1 21 49
M  V30 53 1 24 50
M  V30 54 1 24 51
M  V30 55 1 24 52
M  V30 56 1 25 53
M  V30 57 1 25 54
M  V30 58 1 25 55
M  V30 59 1 26 56 CFG=3
M  V30 60 1 27 57
M  V30 61 1 27 58
M  V30 62 1 27 59
M  V30 63 1 28 60
M  V30 64 1 28 61
M  V30 65 1 30 62
M  V30 66 1 30 63
M  V30 67 1 31 64
M  V30 68 1 31 65
M  V30 69 1 32 66
M  V30 70 1 32 67
M  V30 71 1 33 68
M  V30 72 1 33 69
M  V30 END BOND
M  V30 END CTAB
M  END
>  <Dataset>  (422) 
ChEMBL_Kinases

>  <Ligand_Instance>  (422) 
nan

>  <PDB_ID>  (422) 
nan

>  <Standardized_SMILES>  (422) 
C[C@@H]1CN(C(=O)N2Cc3c(NC(=O)c4ccccn4)n[nH]c3C2(C)C)[C@@H](C)CN1CCCCC#N

>  <Name>  (422) 
nan

>  <Pocket>  (422) 
nan

>  <ATP_Site>  (422) 
nan

>  <Peripheral>  (422) 
nan

>  <Num_H_Atoms_ProtBoundConf>  (422) 
nan

>  <Num_Resolved_Atoms>  (422) 
nan

>  <Num_Not_Resolved_Atoms>  (422) 
nan

$$$$
CHEMBL3662850
     RDKit          3D

  0  0  0  0  0  0  0  0  0  0999 V3000
M  V30 BEGIN CTAB
M  V30 COUNTS 76 80 0 0 0
M  V30 BEGIN ATOM
M  V30 1 C 3.090040 -4.501705 2.025378 0
M  V30 2 C 2.093985 -3.526737 2.588963 0 CFG=2
M  V30 3 C 0.662277 -4.009962 2.392732 0
M  V30 4 N -0.161598 -2.888468 1.975562 0
M  V30 5 C -0.826133 -3.020630 0.751123 0
M  V30 6 O -0.508475 -4.175478 0.302602 0
M  V30 7 N -1.689290 -2.118366 0.072683 0
M  V30 8 C -2.179045 -0.788552 0.370766 0
M  V30 9 C -2.528182 -0.197955 -0.970379 0
M  V30 10 C -2.809523 0.986092 -1.617460 0
M  V30 11 N -2.845079 2.277594 -0.995865 0
M  V30 12 C -3.922575 2.987575 -0.374968 0
M  V30 13 O -5.039372 2.450590 -0.334784 0
M  V30 14 C -3.602308 4.307623 0.166263 0
M  V30 15 C -4.650576 4.976555 0.760042 0
M  V30 16 C -4.395512 6.240985 1.292151 0
M  V30 17 C -3.137787 6.802274 1.226301 0
M  V30 18 C -2.115961 6.088273 0.618152 0
M  V30 19 N -2.387458 4.878656 0.116361 0
M  V30 20 N -3.040136 0.698893 -2.922262 0
M  V30 21 N -2.897194 -0.612749 -3.030605 0
M  V30 22 C -2.589446 -1.216595 -1.897163 0
M  V30 23 C -2.290808 -2.461285 -1.202833 0
M  V30 24 C -1.297661 -3.311464 -1.987180 0
M  V30 25 C -3.555818 -3.267459 -1.025646 0
M  V30 26 C -0.025724 -1.902598 3.053748 0 CFG=1
M  V30 27 C -0.448205 -2.499220 4.402212 0
M  V30 28 C 1.377868 -1.377766 3.113244 0
M  V30 29 N 2.317723 -2.175722 2.346446 0
M  V30 30 C 2.572890 -1.586239 1.136003 0
M  V30 31 C 3.490150 -2.145765 0.136812 0
M  V30 32 C 3.542148 -1.241964 -1.087295 0
M  V30 33 C 2.217836 -1.068788 -1.754573 0
M  V30 34 C 2.499602 -0.283049 -3.044125 0
M  V30 35 O 2.980240 0.956921 -2.666497 0
M  V30 36 C 4.284306 0.800298 -2.143795 0
M  V30 37 C 4.137935 0.096735 -0.800602 0
M  V30 38 H 4.060204 -3.998575 1.926618 0
M  V30 39 H 3.298011 -5.360141 2.732567 0
M  V30 40 H 2.727674 -5.016251 1.113473 0
M  V30 41 H 2.250437 -3.638699 3.709452 0
M  V30 42 H 0.623931 -4.868558 1.683717 0
M  V30 43 H 0.214344 -4.427134 3.327263 0
M  V30 44 H -1.403115 -0.110406 0.787387 0
M  V30 45 H -3.042356 -0.751162 1.038836 0
M  V30 46 H -1.882945 2.681135 -1.058509 0
M  V30 47 H -5.658118 4.610984 0.852657 0
M  V30 48 H -5.115598 6.869518 1.780210 0
M  V30 49 H -2.860410 7.769520 1.611609 0
M  V30 50 H -1.075210 6.419529 0.500544 0
M  V30 51 H -3.029710 -1.085057 -3.969242 0
M  V30 52 H -1.545120 -4.383110 -1.932386 0
M  V30 53 H -0.262693 -3.068126 -1.739765 0
M  V30 54 H -1.454047 -3.031534 -3.059794 0
M  V30 55 H -4.390701 -2.557542 -0.902469 0
M  V30 56 H -3.678196 -3.892294 -1.939879 0
M  V30 57 H -3.404806 -3.934259 -0.144663 0
M  V30 58 H -0.760337 -1.109034 2.859652 0
M  V30 59 H -1.179409 -3.308563 4.305558 0
M  V30 60 H -0.979557 -1.715299 5.019048 0
M  V30 61 H 0.448405 -2.740710 5.009374 0
M  V30 62 H 1.360571 -0.328176 2.728937 0
M  V30 63 H 1.788697 -1.349611 4.145212 0
M  V30 64 H 2.935084 -0.533586 1.335071 0
M  V30 65 H 1.589195 -1.389781 0.614001 0
M  V30 66 H 4.534175 -2.096342 0.550846 0
M  V30 67 H 3.300894 -3.140037 -0.255953 0
M  V30 68 H 4.209438 -1.738261 -1.843459 0
M  V30 69 H 1.881045 -2.064365 -2.117312 0
M  V30 70 H 1.471910 -0.489633 -1.211090 0
M  V30 71 H 3.165695 -0.854256 -3.709685 0
M  V30 72 H 1.513601 -0.100079 -3.562876 0
M  V30 73 H 4.781219 0.061026 -2.833343 0
M  V30 74 H 4.818907 1.752400 -2.077319 0
M  V30 75 H 5.169165 0.018119 -0.393745 0
M  V30 76 H 3.489187 0.747970 -0.184598 0
M  V30 END ATOM
M  V30 BEGIN BOND
M  V30 1 1 1 2
M  V30 2 1 2 3
M  V30 3 1 3 4
M  V30 4 1 4 5
M  V30 5 2 5 6
M  V30 6 1 5 7
M  V30 7 1 7 8
M  V30 8 1 8 9
M  V30 9 1 9 10
M  V30 10 1 10 11
M  V30 11 1 11 12
M  V30 12 2 12 13
M  V30 13 1 12 14
M  V30 14 2 14 15
M  V30 15 1 15 16
M  V30 16 2 16 17
M  V30 17 1 17 18
M  V30 18 2 18 19
M  V30 19 2 10 20
M  V30 20 1 20 21
M  V30 21 1 21 22
M  V30 22 1 22 23
M  V30 23 1 23 24
M  V30 24 1 23 25
M  V30 25 1 4 26
M  V30 26 1 26 27
M  V30 27 1 26 28
M  V30 28 1 28 29
M  V30 29 1 29 30
M  V30 30 1 30 31
M  V30 31 1 31 32
M  V30 32 1 32 33
M  V30 33 1 33 34
M  V30 34 1 34 35
M  V30 35 1 35 36
M  V30 36 1 36 37
M  V30 37 1 29 2
M  V30 38 1 37 32
M  V30 39 1 23 7
M  V30 40 2 22 9
M  V30 41 1 19 14
M  V30 42 1 1 38
M  V30 43 1 1 39
M  V30 44 1 1 40
M  V30 45 1 2 41 CFG=1
M  V30 46 1 3 42
M  V30 47 1 3 43
M  V30 48 1 8 44
M  V30 49 1 8 45
M  V30 50 1 11 46
M  V30 51 1 15 47
M  V30 52 1 16 48
M  V30 53 1 17 49
M  V30 54 1 18 50
M  V30 55 1 21 51
M  V30 56 1 24 52
M  V30 57 1 24 53
M  V30 58 1 24 54
M  V30 59 1 25 55
M  V30 60 1 25 56
M  V30 61 1 25 57
M  V30 62 1 26 58 CFG=3
M  V30 63 1 27 59
M  V30 64 1 27 60
M  V30 65 1 27 61
M  V30 66 1 28 62
M  V30 67 1 28 63
M  V30 68 1 30 64
M  V30 69 1 30 65
M  V30 70 1 31 66
M  V30 71 1 31 67
M  V30 72 1 32 68
M  V30 73 1 33 69
M  V30 74 1 33 70
M  V30 75 1 34 71
M  V30 76 1 34 72
M  V30 77 1 36 73
M  V30 78 1 36 74
M  V30 79 1 37 75
M  V30 80 1 37 76
M  V30 END BOND
M  V30 END CTAB
M  END
>  <Dataset>  (423) 
ChEMBL_Kinases

>  <Ligand_Instance>  (423) 
nan

>  <PDB_ID>  (423) 
nan

>  <Standardized_SMILES>  (423) 
C[C@@H]1CN(C(=O)N2Cc3c(NC(=O)c4ccccn4)n[nH]c3C2(C)C)[C@@H](C)CN1CCC1CCOCC1

>  <Name>  (423) 
nan

>  <Pocket>  (423) 
nan

>  <ATP_Site>  (423) 
nan

>  <Peripheral>  (423) 
nan

>  <Num_H_Atoms_ProtBoundConf>  (423) 
nan

>  <Num_Resolved_Atoms>  (423) 
nan

>  <Num_Not_Resolved_Atoms>  (423) 
nan

$$$$
CHEMBL3662840
     RDKit          3D

  0  0  0  0  0  0  0  0  0  0999 V3000
M  V30 BEGIN CTAB
M  V30 COUNTS 68 71 0 0 0
M  V30 BEGIN ATOM
M  V30 1 C 4.248346 2.363630 0.046854 0
M  V30 2 C 4.341933 1.099219 0.802930 0
M  V30 3 C 4.209945 1.372313 2.274236 0
M  V30 4 C 3.540526 -0.059361 0.328764 0 CFG=1
M  V30 5 C 3.705585 -1.291905 1.195295 0
M  V30 6 N 3.307355 -2.460487 0.529111 0
M  V30 7 C 4.425126 -3.303635 0.257763 0
M  V30 8 C 2.267922 -2.410416 -0.404765 0
M  V30 9 C 1.044871 -3.050630 0.252572 0
M  V30 10 C 2.548044 -3.323903 -1.609987 0
M  V30 11 C 1.842542 -1.071350 -0.893389 0
M  V30 12 N 2.191290 0.048827 0.000173 0
M  V30 13 C 1.101168 0.916817 0.288048 0
M  V30 14 O 1.699219 1.744185 1.021764 0
M  V30 15 N -0.287036 1.125693 0.041313 0
M  V30 16 C -1.455561 0.582369 -0.647333 0
M  V30 17 C -2.458349 0.554795 0.476768 0
M  V30 18 C -3.547934 -0.116038 1.024402 0
M  V30 19 N -4.169562 -1.287712 0.511864 0
M  V30 20 C -5.289200 -1.883226 1.172342 0
M  V30 21 O -5.651066 -1.280823 2.217466 0
M  V30 22 C -5.925540 -3.082081 0.647190 0
M  V30 23 C -6.999945 -3.611305 1.320279 0
M  V30 24 C -7.543923 -4.758251 0.742143 0
M  V30 25 C -7.039217 -5.300738 -0.401144 0
M  V30 26 C -5.942313 -4.730993 -1.057680 0
M  V30 27 N -5.444751 -3.634442 -0.478974 0
M  V30 28 N -3.867273 0.586588 2.125589 0
M  V30 29 N -3.045819 1.609902 2.253777 0
M  V30 30 C -2.154269 1.636817 1.260102 0
M  V30 31 C -0.988138 2.274785 0.593842 0
M  V30 32 C -0.194369 3.087887 1.579501 0
M  V30 33 C -1.481636 3.206355 -0.472276 0
M  V30 34 H 3.989186 3.190983 0.735374 0
M  V30 35 H 3.596717 2.325168 -0.849123 0
M  V30 36 H 5.245652 2.645344 -0.352050 0
M  V30 37 H 5.453993 0.793663 0.710454 0
M  V30 38 H 3.454958 0.773753 2.803075 0
M  V30 39 H 3.899702 2.451712 2.414991 0
M  V30 40 H 5.197838 1.345958 2.819637 0
M  V30 41 H 4.097945 -0.379415 -0.630190 0
M  V30 42 H 4.804605 -1.314104 1.451331 0
M  V30 43 H 3.207521 -1.111570 2.170361 0
M  V30 44 H 4.156761 -4.171214 -0.375669 0
M  V30 45 H 5.345796 -2.782056 -0.061263 0
M  V30 46 H 4.698375 -3.771623 1.250074 0
M  V30 47 H 0.944747 -2.762635 1.319788 0
M  V30 48 H 0.111157 -2.783111 -0.298618 0
M  V30 49 H 1.096551 -4.154563 0.250653 0
M  V30 50 H 2.284656 -4.357455 -1.375192 0
M  V30 51 H 3.553242 -3.162474 -2.030731 0
M  V30 52 H 1.840192 -3.013053 -2.432748 0
M  V30 53 H 0.818982 -1.031220 -1.273674 0
M  V30 54 H 2.468919 -0.849161 -1.817431 0
M  V30 55 H -1.867517 1.334373 -1.379140 0
M  V30 56 H -1.335656 -0.395850 -1.090527 0
M  V30 57 H -3.792280 -1.710835 -0.363527 0
M  V30 58 H -7.363711 -3.147748 2.219344 0
M  V30 59 H -8.399306 -5.216733 1.238607 0
M  V30 60 H -7.484611 -6.194001 -0.827014 0
M  V30 61 H -5.549293 -5.166071 -1.961361 0
M  V30 62 H -3.087261 2.303491 3.026673 0
M  V30 63 H 0.521094 3.705861 1.042213 0
M  V30 64 H 0.135237 2.568422 2.472774 0
M  V30 65 H -0.960680 3.834503 1.973905 0
M  V30 66 H -0.927809 3.103559 -1.434758 0
M  V30 67 H -1.400861 4.282074 -0.118305 0
M  V30 68 H -2.560037 3.082280 -0.691704 0
M  V30 END ATOM
M  V30 BEGIN BOND
M  V30 1 1 1 2
M  V30 2 1 2 3
M  V30 3 1 2 4
M  V30 4 1 4 5
M  V30 5 1 5 6
M  V30 6 1 6 7
M  V30 7 1 6 8
M  V30 8 1 8 9
M  V30 9 1 8 10
M  V30 10 1 8 11
M  V30 11 1 11 12
M  V30 12 1 12 13
M  V30 13 2 13 14
M  V30 14 1 13 15
M  V30 15 1 15 16
M  V30 16 1 16 17
M  V30 17 1 17 18
M  V30 18 1 18 19
M  V30 19 1 19 20
M  V30 20 2 20 21
M  V30 21 1 20 22
M  V30 22 2 22 23
M  V30 23 1 23 24
M  V30 24 2 24 25
M  V30 25 1 25 26
M  V30 26 2 26 27
M  V30 27 2 18 28
M  V30 28 1 28 29
M  V30 29 1 29 30
M  V30 30 1 30 31
M  V30 31 1 31 32
M  V30 32 1 31 33
M  V30 33 1 12 4
M  V30 34 1 31 15
M  V30 35 2 30 17
M  V30 36 1 27 22
M  V30 37 1 1 34
M  V30 38 1 1 35
M  V30 39 1 1 36
M  V30 40 1 2 37
M  V30 41 1 3 38
M  V30 42 1 3 39
M  V30 43 1 3 40
M  V30 44 1 4 41 CFG=3
M  V30 45 1 5 42
M  V30 46 1 5 43
M  V30 47 1 7 44
M  V30 48 1 7 45
M  V30 49 1 7 46
M  V30 50 1 9 47
M  V30 51 1 9 48
M  V30 52 1 9 49
M  V30 53 1 10 50
M  V30 54 1 10 51
M  V30 55 1 10 52
M  V30 56 1 11 53
M  V30 57 1 11 54
M  V30 58 1 16 55
M  V30 59 1 16 56
M  V30 60 1 19 57
M  V30 61 1 23 58
M  V30 62 1 24 59
M  V30 63 1 25 60
M  V30 64 1 26 61
M  V30 65 1 29 62
M  V30 66 1 32 63
M  V30 67 1 32 64
M  V30 68 1 32 65
M  V30 69 1 33 66
M  V30 70 1 33 67
M  V30 71 1 33 68
M  V30 END BOND
M  V30 END CTAB
M  END
>  <Dataset>  (424) 
ChEMBL_Kinases

>  <Ligand_Instance>  (424) 
nan

>  <PDB_ID>  (424) 
nan

>  <Standardized_SMILES>  (424) 
CC(C)[C@H]1CN(C)C(C)(C)CN1C(=O)N1Cc2c(NC(=O)c3ccccn3)n[nH]c2C1(C)C

>  <Name>  (424) 
nan

>  <Pocket>  (424) 
nan

>  <ATP_Site>  (424) 
nan

>  <Peripheral>  (424) 
nan

>  <Num_H_Atoms_ProtBoundConf>  (424) 
nan

>  <Num_Resolved_Atoms>  (424) 
nan

>  <Num_Not_Resolved_Atoms>  (424) 
nan

$$$$
CHEMBL3662904
     RDKit          3D

  0  0  0  0  0  0  0  0  0  0999 V3000
M  V30 BEGIN CTAB
M  V30 COUNTS 73 77 0 0 0
M  V30 BEGIN ATOM
M  V30 1 C 2.777141 3.960097 7.680015 0
M  V30 2 C 3.030969 4.147012 6.229010 0
M  V30 3 C 3.301411 3.104947 5.374576 0
M  V30 4 C 3.472059 3.678439 4.144173 0
M  V30 5 C 3.777756 2.943557 2.906386 0
M  V30 6 O 3.880510 1.695574 2.984015 0
M  V30 7 N 3.955441 3.596860 1.659064 0
M  V30 8 C 4.239892 2.635341 0.650528 0
M  V30 9 N 5.391650 2.109301 0.205479 0
M  V30 10 N 5.171476 1.239795 -0.766073 0
M  V30 11 C 3.827345 1.194807 -0.964098 0
M  V30 12 C 3.203467 2.058539 -0.092342 0
M  V30 13 C 1.744091 1.970843 -0.347633 0
M  V30 14 N 1.604531 0.621675 -0.856662 0
M  V30 15 C 0.565652 -0.231388 -0.449181 0
M  V30 16 O 0.094852 0.653125 0.298000 0
M  V30 17 N -0.342764 -1.277736 -0.226071 0
M  V30 18 C -1.456778 -1.081118 0.671339 0
M  V30 19 C -2.743304 -1.627198 0.088376 0 CFG=1
M  V30 20 C -3.140541 -0.750705 -1.078191 0
M  V30 21 N -2.574214 -2.964121 -0.398454 0
M  V30 22 C -3.637369 -3.850727 -0.103554 0
M  V30 23 C -4.884672 -3.495064 -0.885572 0
M  V30 24 C -4.631675 -3.554892 -2.372763 0
M  V30 25 C -5.101876 -4.883396 -2.898717 0
M  V30 26 O -4.731010 -5.886698 -2.003382 0
M  V30 27 C -5.568495 -5.880598 -0.879560 0
M  V30 28 C -6.023640 -4.448757 -0.577156 0
M  V30 29 C -1.258220 -3.468268 -0.096582 0
M  V30 30 C -0.280802 -2.586712 -0.837952 0 CFG=2
M  V30 31 C 1.099876 -3.195334 -0.839527 0
M  V30 32 C 2.733954 0.584161 -1.757911 0
M  V30 33 C 2.522474 1.493434 -2.950621 0
M  V30 34 C 3.147324 -0.793799 -2.163557 0
M  V30 35 N 3.303412 5.012318 4.295803 0
M  V30 36 O 3.038009 5.293016 5.548722 0
M  V30 37 H 3.699571 4.018186 8.279512 0
M  V30 38 H 2.317733 2.966088 7.837881 0
M  V30 39 H 2.054488 4.729891 8.046475 0
M  V30 40 H 3.358850 2.061119 5.649143 0
M  V30 41 H 3.860125 4.622336 1.639344 0
M  V30 42 H 5.823224 0.654546 -1.330110 0
M  V30 43 H 1.147201 2.195720 0.547510 0
M  V30 44 H 1.407313 2.694759 -1.127554 0
M  V30 45 H -1.258299 -1.542704 1.649046 0
M  V30 46 H -1.590766 0.002347 0.827247 0
M  V30 47 H -3.553240 -1.579032 0.835357 0
M  V30 48 H -2.924060 -1.247523 -2.050500 0
M  V30 49 H -2.514579 0.174514 -1.065722 0
M  V30 50 H -4.184792 -0.399050 -0.995001 0
M  V30 51 H -3.352286 -4.889879 -0.409897 0
M  V30 52 H -3.888369 -3.921518 0.977701 0
M  V30 53 H -5.228607 -2.475035 -0.597451 0
M  V30 54 H -3.538392 -3.495946 -2.581427 0
M  V30 55 H -5.141593 -2.746417 -2.937918 0
M  V30 56 H -4.669153 -5.113685 -3.902448 0
M  V30 57 H -6.202071 -4.876443 -3.067597 0
M  V30 58 H -5.023494 -6.334674 -0.052180 0
M  V30 59 H -6.465291 -6.451880 -1.123621 0
M  V30 60 H -6.334150 -4.442926 0.475902 0
M  V30 61 H -6.869271 -4.244358 -1.261615 0
M  V30 62 H -1.164515 -4.521414 -0.447578 0
M  V30 63 H -0.996754 -3.425548 0.978849 0
M  V30 64 H -0.664729 -2.436974 -1.881928 0
M  V30 65 H 1.793796 -2.691606 -0.147319 0
M  V30 66 H 1.471343 -3.206593 -1.879531 0
M  V30 67 H 1.049202 -4.288277 -0.548188 0
M  V30 68 H 1.421183 1.451727 -3.167852 0
M  V30 69 H 3.041303 1.016038 -3.807028 0
M  V30 70 H 2.883009 2.505425 -2.756078 0
M  V30 71 H 2.448498 -1.265520 -2.854949 0
M  V30 72 H 4.118409 -0.672962 -2.721480 0
M  V30 73 H 3.401966 -1.344691 -1.255796 0
M  V30 END ATOM
M  V30 BEGIN BOND
M  V30 1 1 1 2
M  V30 2 2 2 3
M  V30 3 1 3 4
M  V30 4 1 4 5
M  V30 5 2 5 6
M  V30 6 1 5 7
M  V30 7 1 7 8
M  V30 8 2 8 9
M  V30 9 1 9 10
M  V30 10 1 10 11
M  V30 11 2 11 12
M  V30 12 1 12 13
M  V30 13 1 13 14
M  V30 14 1 14 15
M  V30 15 2 15 16
M  V30 16 1 15 17
M  V30 17 1 17 18
M  V30 18 1 18 19
M  V30 19 1 19 20
M  V30 20 1 19 21
M  V30 21 1 21 22
M  V30 22 1 22 23
M  V30 23 1 23 24
M  V30 24 1 24 25
M  V30 25 1 25 26
M  V30 26 1 26 27
M  V30 27 1 27 28
M  V30 28 1 21 29
M  V30 29 1 29 30
M  V30 30 1 30 31
M  V30 31 1 14 32
M  V30 32 1 32 33
M  V30 33 1 32 34
M  V30 34 2 4 35
M  V30 35 1 35 36
M  V30 36 1 36 2
M  V30 37 1 12 8
M  V30 38 1 30 17
M  V30 39 1 32 11
M  V30 40 1 28 23
M  V30 41 1 1 37
M  V30 42 1 1 38
M  V30 43 1 1 39
M  V30 44 1 3 40
M  V30 45 1 7 41
M  V30 46 1 10 42
M  V30 47 1 13 43
M  V30 48 1 13 44
M  V30 49 1 18 45
M  V30 50 1 18 46
M  V30 51 1 19 47 CFG=1
M  V30 52 1 20 48
M  V30 53 1 20 49
M  V30 54 1 20 50
M  V30 55 1 22 51
M  V30 56 1 22 52
M  V30 57 1 23 53
M  V30 58 1 24 54
M  V30 59 1 24 55
M  V30 60 1 25 56
M  V30 61 1 25 57
M  V30 62 1 27 58
M  V30 63 1 27 59
M  V30 64 1 28 60
M  V30 65 1 28 61
M  V30 66 1 29 62
M  V30 67 1 29 63
M  V30 68 1 30 64 CFG=3
M  V30 69 1 31 65
M  V30 70 1 31 66
M  V30 71 1 31 67
M  V30 72 1 33 68
M  V30 73 1 33 69
M  V30 74 1 33 70
M  V30 75 1 34 71
M  V30 76 1 34 72
M  V30 77 1 34 73
M  V30 END BOND
M  V30 END CTAB
M  END
>  <Dataset>  (425) 
ChEMBL_Kinases

>  <Ligand_Instance>  (425) 
nan

>  <PDB_ID>  (425) 
nan

>  <Standardized_SMILES>  (425) 
Cc1cc(C(=O)Nc2n[nH]c3c2CN(C(=O)N2C[C@@H](C)N(CC4CCOCC4)C[C@@H]2C)C3(C)C)no1

>  <Name>  (425) 
nan

>  <Pocket>  (425) 
nan

>  <ATP_Site>  (425) 
nan

>  <Peripheral>  (425) 
nan

>  <Num_H_Atoms_ProtBoundConf>  (425) 
nan

>  <Num_Resolved_Atoms>  (425) 
nan

>  <Num_Not_Resolved_Atoms>  (425) 
nan

$$$$
CHEMBL3662903
     RDKit          3D

  0  0  0  0  0  0  0  0  0  0999 V3000
M  V30 BEGIN CTAB
M  V30 COUNTS 77 81 0 0 0
M  V30 BEGIN ATOM
M  V30 1 C 4.142662 2.940059 7.510772 0
M  V30 2 C 4.322527 2.336616 6.168101 0
M  V30 3 C 3.623414 2.497368 4.989457 0
M  V30 4 C 4.212901 1.684954 4.006581 0
M  V30 5 C 3.677076 1.656064 2.678920 0
M  V30 6 O 2.625229 2.362256 2.487740 0
M  V30 7 N 4.114176 0.979435 1.543231 0
M  V30 8 C 3.641016 0.893932 0.215686 0
M  V30 9 N 4.331389 0.206452 -0.712169 0
M  V30 10 N 3.722264 0.245240 -1.875738 0
M  V30 11 C 2.611488 0.973682 -1.702318 0
M  V30 12 C 2.534900 1.394558 -0.392810 0
M  V30 13 C 1.278562 2.170605 -0.334478 0
M  V30 14 N 0.442962 1.464587 -1.319893 0
M  V30 15 C -0.793680 0.866424 -1.504728 0
M  V30 16 O -0.565382 1.372337 -0.372152 0
M  V30 17 N -2.100109 0.393752 -1.262109 0
M  V30 18 C -2.781894 -0.280229 -2.334656 0
M  V30 19 C -2.703340 -1.787534 -2.055408 0 CFG=1
M  V30 20 C -1.298256 -2.283223 -2.320328 0
M  V30 21 N -3.142253 -1.994377 -0.750375 0
M  V30 22 C -2.887252 -3.150064 -0.013033 0
M  V30 23 C -3.540524 -4.431600 -0.362940 0
M  V30 24 C -3.266363 -4.990823 -1.724564 0
M  V30 25 C -3.654693 -6.457795 -1.810616 0
M  V30 26 O -4.604770 -6.787746 -0.847659 0
M  V30 27 C -4.151662 -6.651919 0.447946 0
M  V30 28 C -3.146302 -5.537356 0.629051 0
M  V30 29 C -3.792525 -0.923751 -0.088577 0
M  V30 30 C -3.040741 0.382366 -0.130709 0 CFG=2
M  V30 31 C -3.929326 1.597262 -0.125342 0
M  V30 32 C 1.418329 1.507657 -2.403029 0
M  V30 33 C 1.027177 0.722447 -3.607839 0
M  V30 34 C 1.691974 2.932335 -2.836649 0
M  V30 35 N 5.227756 1.088287 4.657023 0
M  V30 36 C 6.110163 0.154978 4.033682 0
M  V30 37 N 5.310211 1.459116 5.934733 0
M  V30 38 H 3.185085 3.501961 7.608476 0
M  V30 39 H 4.082789 2.075622 8.232995 0
M  V30 40 H 5.024347 3.515769 7.844625 0
M  V30 41 H 2.777281 3.193838 5.033722 0
M  V30 42 H 4.970498 0.454001 1.815506 0
M  V30 43 H 4.109690 -0.233127 -2.719112 0
M  V30 44 H 0.764779 2.176150 0.622941 0
M  V30 45 H 1.436627 3.216827 -0.737042 0
M  V30 46 H -2.277884 -0.029388 -3.282923 0
M  V30 47 H -3.836152 -0.049785 -2.460742 0
M  V30 48 H -3.361986 -2.235916 -2.802183 0
M  V30 49 H -0.729659 -2.528381 -1.402025 0
M  V30 50 H -1.298294 -3.051374 -3.097921 0
M  V30 51 H -0.722983 -1.422323 -2.768004 0
M  V30 52 H -1.787806 -3.387672 0.101761 0
M  V30 53 H -3.174719 -2.912686 1.070735 0
M  V30 54 H -4.653625 -4.353317 -0.256349 0
M  V30 55 H -2.185612 -4.965825 -1.971392 0
M  V30 56 H -3.872366 -4.476382 -2.506698 0
M  V30 57 H -2.756454 -7.075627 -1.750941 0
M  V30 58 H -4.115901 -6.621583 -2.801584 0
M  V30 59 H -3.677090 -7.618744 0.780079 0
M  V30 60 H -5.022617 -6.418881 1.103985 0
M  V30 61 H -3.161978 -5.202114 1.665447 0
M  V30 62 H -2.117920 -5.864955 0.373713 0
M  V30 63 H -4.811454 -0.696684 -0.491286 0
M  V30 64 H -3.962993 -1.200002 0.970810 0
M  V30 65 H -2.427866 0.426303 0.795356 0
M  V30 66 H -3.549633 2.424435 -0.769003 0
M  V30 67 H -5.002810 1.345257 -0.345568 0
M  V30 68 H -3.978099 2.071085 0.898882 0
M  V30 69 H -0.089599 0.781277 -3.783917 0
M  V30 70 H 1.457808 1.125360 -4.551534 0
M  V30 71 H 1.289176 -0.350131 -3.539852 0
M  V30 72 H 1.907383 2.965358 -3.942865 0
M  V30 73 H 2.640303 3.305870 -2.377936 0
M  V30 74 H 0.867191 3.622774 -2.657595 0
M  V30 75 H 6.798817 0.613481 3.295555 0
M  V30 76 H 6.835384 -0.253013 4.810217 0
M  V30 77 H 5.622979 -0.786800 3.682536 0
M  V30 END ATOM
M  V30 BEGIN BOND
M  V30 1 1 1 2
M  V30 2 1 2 3
M  V30 3 2 3 4
M  V30 4 1 4 5
M  V30 5 2 5 6
M  V30 6 1 5 7
M  V30 7 1 7 8
M  V30 8 2 8 9
M  V30 9 1 9 10
M  V30 10 1 10 11
M  V30 11 2 11 12
M  V30 12 1 12 13
M  V30 13 1 13 14
M  V30 14 1 14 15
M  V30 15 2 15 16
M  V30 16 1 15 17
M  V30 17 1 17 18
M  V30 18 1 18 19
M  V30 19 1 19 20
M  V30 20 1 19 21
M  V30 21 1 21 22
M  V30 22 1 22 23
M  V30 23 1 23 24
M  V30 24 1 24 25
M  V30 25 1 25 26
M  V30 26 1 26 27
M  V30 27 1 27 28
M  V30 28 1 21 29
M  V30 29 1 29 30
M  V30 30 1 30 31
M  V30 31 1 14 32
M  V30 32 1 32 33
M  V30 33 1 32 34
M  V30 34 1 4 35
M  V30 35 1 35 36
M  V30 36 1 35 37
M  V30 37 2 37 2
M  V30 38 1 12 8
M  V30 39 1 30 17
M  V30 40 1 32 11
M  V30 41 1 28 23
M  V30 42 1 1 38
M  V30 43 1 1 39
M  V30 44 1 1 40
M  V30 45 1 3 41
M  V30 46 1 7 42
M  V30 47 1 10 43
M  V30 48 1 13 44
M  V30 49 1 13 45
M  V30 50 1 18 46
M  V30 51 1 18 47
M  V30 52 1 19 48 CFG=3
M  V30 53 1 20 49
M  V30 54 1 20 50
M  V30 55 1 20 51
M  V30 56 1 22 52
M  V30 57 1 22 53
M  V30 58 1 23 54
M  V30 59 1 24 55
M  V30 60 1 24 56
M  V30 61 1 25 57
M  V30 62 1 25 58
M  V30 63 1 27 59
M  V30 64 1 27 60
M  V30 65 1 28 61
M  V30 66 1 28 62
M  V30 67 1 29 63
M  V30 68 1 29 64
M  V30 69 1 30 65 CFG=1
M  V30 70 1 31 66
M  V30 71 1 31 67
M  V30 72 1 31 68
M  V30 73 1 33 69
M  V30 74 1 33 70
M  V30 75 1 33 71
M  V30 76 1 34 72
M  V30 77 1 34 73
M  V30 78 1 34 74
M  V30 79 1 36 75
M  V30 80 1 36 76
M  V30 81 1 36 77
M  V30 END BOND
M  V30 END CTAB
M  END
>  <Dataset>  (426) 
ChEMBL_Kinases

>  <Ligand_Instance>  (426) 
nan

>  <PDB_ID>  (426) 
nan

>  <Standardized_SMILES>  (426) 
Cc1cc(C(=O)Nc2n[nH]c3c2CN(C(=O)N2C[C@@H](C)N(CC4CCOCC4)C[C@@H]2C)C3(C)C)n(C)n1

>  <Name>  (426) 
nan

>  <Pocket>  (426) 
nan

>  <ATP_Site>  (426) 
nan

>  <Peripheral>  (426) 
nan

>  <Num_H_Atoms_ProtBoundConf>  (426) 
nan

>  <Num_Resolved_Atoms>  (426) 
nan

>  <Num_Not_Resolved_Atoms>  (426) 
nan

$$$$
CHEMBL3662902
     RDKit          3D

  0  0  0  0  0  0  0  0  0  0999 V3000
M  V30 BEGIN CTAB
M  V30 COUNTS 77 82 0 0 0
M  V30 BEGIN ATOM
M  V30 1 C 4.812483 -1.267672 0.645553 0
M  V30 2 C 3.891559 -0.871001 1.784673 0 CFG=2
M  V30 3 C 3.185648 -2.113596 2.292037 0
M  V30 4 N 1.797142 -2.002108 1.888957 0
M  V30 5 C 1.316093 -2.932930 0.898468 0
M  V30 6 O 2.368813 -3.628663 0.674197 0
M  V30 7 N 0.056316 -3.123598 0.271567 0
M  V30 8 C -1.224393 -2.460593 0.376603 0
M  V30 9 C -1.761921 -2.630866 -0.998204 0
M  V30 10 C -2.712947 -2.129481 -1.896518 0
M  V30 11 N -3.596459 -1.049801 -1.544503 0
M  V30 12 C -3.538103 0.356816 -1.636015 0
M  V30 13 O -2.511915 0.921364 -2.129914 0
M  V30 14 C -4.721551 1.052144 -1.127736 0
M  V30 15 C -5.907700 0.561970 -0.576866 0
M  V30 16 C -6.639833 1.698125 -0.280883 0
M  V30 17 C -8.008462 1.613300 0.340432 0
M  V30 18 C -8.188206 0.548160 1.402260 0
M  V30 19 C -8.846633 0.420465 0.048743 0
M  V30 20 O -5.940321 2.771433 -0.629935 0
M  V30 21 N -4.801064 2.398287 -1.133276 0
M  V30 22 N -2.584689 -2.855487 -3.043896 0
M  V30 23 N -1.620306 -3.739605 -2.856451 0
M  V30 24 C -1.081898 -3.649971 -1.628055 0
M  V30 25 C -0.068199 -4.200913 -0.695413 0
M  V30 26 C -0.618544 -5.389295 0.076044 0
M  V30 27 C 1.218202 -4.543994 -1.392098 0
M  V30 28 C 1.210985 -0.893170 2.649741 0 CFG=1
M  V30 29 C 1.561907 -1.131538 4.121476 0
M  V30 30 C 1.867031 0.369945 2.154454 0
M  V30 31 N 2.988683 0.126060 1.304567 0
M  V30 32 C 3.705216 1.331865 1.029527 0
M  V30 33 C 2.940973 2.314536 0.170987 0
M  V30 34 C 2.588812 1.725519 -1.170012 0
M  V30 35 C 3.707343 1.752875 -2.159752 0
M  V30 36 O 4.347584 2.970939 -2.239372 0
M  V30 37 C 4.937552 3.249873 -1.005838 0
M  V30 38 C 3.831367 3.528736 -0.024986 0
M  V30 39 H 4.411126 -0.981301 -0.346880 0
M  V30 40 H 5.796435 -0.751580 0.753541 0
M  V30 41 H 4.937122 -2.374408 0.600659 0
M  V30 42 H 4.541283 -0.506922 2.620213 0
M  V30 43 H 3.280644 -2.205697 3.397090 0
M  V30 44 H 3.650192 -3.026410 1.882717 0
M  V30 45 H -1.850863 -3.019999 1.076821 0
M  V30 46 H -1.186697 -1.409820 0.690811 0
M  V30 47 H -4.436891 -1.561319 -1.138605 0
M  V30 48 H -6.094637 -0.499593 -0.460163 0
M  V30 49 H -8.453043 2.586315 0.572138 0
M  V30 50 H -7.355163 -0.170919 1.599901 0
M  V30 51 H -8.817109 0.740992 2.291154 0
M  V30 52 H -9.933850 0.582933 0.052054 0
M  V30 53 H -8.421675 -0.337734 -0.640172 0
M  V30 54 H -1.357828 -4.407153 -3.627634 0
M  V30 55 H -1.730556 -5.449387 -0.113165 0
M  V30 56 H -0.552903 -5.248172 1.180638 0
M  V30 57 H -0.112526 -6.326739 -0.195764 0
M  V30 58 H 0.933442 -5.066235 -2.334573 0
M  V30 59 H 1.822979 -3.660155 -1.588318 0
M  V30 60 H 1.726966 -5.324925 -0.784766 0
M  V30 61 H 0.119530 -0.828076 2.569236 0
M  V30 62 H 1.512854 -2.192224 4.407506 0
M  V30 63 H 0.773648 -0.618309 4.748184 0
M  V30 64 H 2.493105 -0.609351 4.378728 0
M  V30 65 H 2.130016 0.965421 3.055971 0
M  V30 66 H 1.103048 0.894369 1.515042 0
M  V30 67 H 4.027957 1.797294 1.970230 0
M  V30 68 H 4.642643 1.083731 0.474795 0
M  V30 69 H 2.012126 2.665778 0.620450 0
M  V30 70 H 1.728291 2.308999 -1.601974 0
M  V30 71 H 2.304397 0.644038 -1.011052 0
M  V30 72 H 3.283143 1.528709 -3.162403 0
M  V30 73 H 4.457895 0.946568 -1.968954 0
M  V30 74 H 5.524195 4.181189 -1.124287 0
M  V30 75 H 5.630865 2.447872 -0.674546 0
M  V30 76 H 3.183669 4.305662 -0.491986 0
M  V30 77 H 4.177341 3.885436 0.952475 0
M  V30 END ATOM
M  V30 BEGIN BOND
M  V30 1 1 1 2
M  V30 2 1 2 3
M  V30 3 1 3 4
M  V30 4 1 4 5
M  V30 5 2 5 6
M  V30 6 1 5 7
M  V30 7 1 7 8
M  V30 8 1 8 9
M  V30 9 1 9 10
M  V30 10 1 10 11
M  V30 11 1 11 12
M  V30 12 2 12 13
M  V30 13 1 12 14
M  V30 14 1 14 15
M  V30 15 2 15 16
M  V30 16 1 16 17
M  V30 17 1 17 18
M  V30 18 1 18 19
M  V30 19 1 16 20
M  V30 20 1 20 21
M  V30 21 2 10 22
M  V30 22 1 22 23
M  V30 23 1 23 24
M  V30 24 1 24 25
M  V30 25 1 25 26
M  V30 26 1 25 27
M  V30 27 1 4 28
M  V30 28 1 28 29
M  V30 29 1 28 30
M  V30 30 1 30 31
M  V30 31 1 31 32
M  V30 32 1 32 33
M  V30 33 1 33 34
M  V30 34 1 34 35
M  V30 35 1 35 36
M  V30 36 1 36 37
M  V30 37 1 37 38
M  V30 38 1 31 2
M  V30 39 1 38 33
M  V30 40 1 25 7
M  V30 41 2 24 9
M  V30 42 2 21 14
M  V30 43 1 19 17
M  V30 44 1 1 39
M  V30 45 1 1 40
M  V30 46 1 1 41
M  V30 47 1 2 42 CFG=1
M  V30 48 1 3 43
M  V30 49 1 3 44
M  V30 50 1 8 45
M  V30 51 1 8 46
M  V30 52 1 11 47
M  V30 53 1 15 48
M  V30 54 1 17 49
M  V30 55 1 18 50
M  V30 56 1 18 51
M  V30 57 1 19 52
M  V30 58 1 19 53
M  V30 59 1 23 54
M  V30 60 1 26 55
M  V30 61 1 26 56
M  V30 62 1 26 57
M  V30 63 1 27 58
M  V30 64 1 27 59
M  V30 65 1 27 60
M  V30 66 1 28 61 CFG=1
M  V30 67 1 29 62
M  V30 68 1 29 63
M  V30 69 1 29 64
M  V30 70 1 30 65
M  V30 71 1 30 66
M  V30 72 1 32 67
M  V30 73 1 32 68
M  V30 74 1 33 69
M  V30 75 1 34 70
M  V30 76 1 34 71
M  V30 77 1 35 72
M  V30 78 1 35 73
M  V30 79 1 37 74
M  V30 80 1 37 75
M  V30 81 1 38 76
M  V30 82 1 38 77
M  V30 END BOND
M  V30 END CTAB
M  END
>  <Dataset>  (427) 
ChEMBL_Kinases

>  <Ligand_Instance>  (427) 
nan

>  <PDB_ID>  (427) 
nan

>  <Standardized_SMILES>  (427) 
C[C@@H]1CN(C(=O)N2Cc3c(NC(=O)c4cc(C5CC5)on4)n[nH]c3C2(C)C)[C@@H](C)CN1CC1CCOCC1

>  <Name>  (427) 
nan

>  <Pocket>  (427) 
nan

>  <ATP_Site>  (427) 
nan

>  <Peripheral>  (427) 
nan

>  <Num_H_Atoms_ProtBoundConf>  (427) 
nan

>  <Num_Resolved_Atoms>  (427) 
nan

>  <Num_Not_Resolved_Atoms>  (427) 
nan

$$$$
CHEMBL3662901
     RDKit          3D

  0  0  0  0  0  0  0  0  0  0999 V3000
M  V30 BEGIN CTAB
M  V30 COUNTS 76 80 0 0 0
M  V30 BEGIN ATOM
M  V30 1 C 1.398614 3.436302 7.939088 0
M  V30 2 C 1.881103 3.080315 6.534168 0
M  V30 3 N 2.798718 2.445504 6.182007 0
M  V30 4 C 3.123912 2.202304 4.928995 0
M  V30 5 C 4.295936 1.390864 4.509640 0
M  V30 6 C 2.373504 2.699682 3.925572 0
M  V30 7 C 2.217665 2.783911 2.525970 0
M  V30 8 O 1.248351 3.440290 2.007012 0
M  V30 9 N 3.048470 2.198177 1.540602 0
M  V30 10 C 3.051485 2.171630 0.126210 0
M  V30 11 N 3.593806 2.937854 -0.842942 0
M  V30 12 N 3.284706 2.459635 -2.023846 0
M  V30 13 C 2.515318 1.343606 -1.890979 0
M  V30 14 C 2.364309 1.156372 -0.550701 0
M  V30 15 C 1.525968 -0.057866 -0.446315 0
M  V30 16 N 0.650049 0.005284 -1.601618 0
M  V30 17 C -0.696400 -0.054931 -2.049817 0
M  V30 18 O -1.037341 0.055973 -3.256400 0
M  V30 19 N -1.949625 -0.235972 -1.374853 0
M  V30 20 C -3.121734 -0.228158 -2.212192 0
M  V30 21 C -3.992135 -1.403784 -1.963553 0 CFG=1
M  V30 22 C -4.147197 -2.286177 -3.204895 0
M  V30 23 N -3.613526 -2.241176 -0.837347 0
M  V30 24 C -2.650586 -3.183925 -1.215102 0
M  V30 25 C -2.332808 -4.328645 -0.302128 0
M  V30 26 C -1.260817 -5.141457 -1.073674 0
M  V30 27 C -0.957919 -6.437940 -0.391341 0
M  V30 28 O -1.072722 -6.296459 0.972129 0
M  V30 29 C -0.630687 -5.042348 1.324482 0
M  V30 30 C -1.657200 -3.945300 0.975887 0
M  V30 31 C -3.320919 -1.377341 0.264739 0
M  V30 32 C -2.190351 -0.407460 0.041827 0 CFG=2
M  V30 33 C -2.515507 0.946608 0.690355 0
M  V30 34 C 1.745203 0.208127 -2.520961 0
M  V30 35 C 1.304078 0.616102 -3.909819 0
M  V30 36 C 2.641759 -0.985907 -2.673445 0
M  V30 37 S 1.082193 3.600946 4.886674 0
M  V30 38 H 1.162335 2.472686 8.453920 0
M  V30 39 H 2.250881 3.959623 8.415105 0
M  V30 40 H 0.481706 4.077721 7.859236 0
M  V30 41 H 3.986397 0.477707 3.952888 0
M  V30 42 H 4.977304 2.053269 3.944478 0
M  V30 43 H 4.901580 1.007273 5.356631 0
M  V30 44 H 3.858603 1.649161 1.887688 0
M  V30 45 H 3.558278 2.834400 -2.970100 0
M  V30 46 H 1.014787 -0.071390 0.515989 0
M  V30 47 H 2.209752 -0.931428 -0.582077 0
M  V30 48 H -2.904366 -0.064706 -3.295428 0
M  V30 49 H -3.750151 0.687246 -1.941225 0
M  V30 50 H -5.069184 -1.073101 -1.769817 0
M  V30 51 H -4.650294 -3.233392 -2.943871 0
M  V30 52 H -3.222017 -2.388737 -3.781847 0
M  V30 53 H -4.872904 -1.785129 -3.921978 0
M  V30 54 H -2.822231 -3.608055 -2.257378 0
M  V30 55 H -1.674250 -2.632944 -1.330008 0
M  V30 56 H -3.215785 -4.985787 -0.129094 0
M  V30 57 H -0.345655 -4.516658 -1.049159 0
M  V30 58 H -1.541915 -5.252295 -2.131449 0
M  V30 59 H 0.056867 -6.824777 -0.662073 0
M  V30 60 H -1.709637 -7.194090 -0.756147 0
M  V30 61 H -0.497196 -5.070681 2.444621 0
M  V30 62 H 0.319205 -4.791292 0.852529 0
M  V30 63 H -2.347813 -3.962805 1.850797 0
M  V30 64 H -1.081720 -3.021677 0.850498 0
M  V30 65 H -3.153340 -1.933320 1.182055 0
M  V30 66 H -4.278755 -0.779919 0.500484 0
M  V30 67 H -1.258733 -0.734531 0.541544 0
M  V30 68 H -2.016405 1.710625 0.038335 0
M  V30 69 H -3.593498 1.105168 0.822540 0
M  V30 70 H -2.048336 1.036816 1.680456 0
M  V30 71 H 2.246065 0.961004 -4.417230 0
M  V30 72 H 0.926417 -0.256586 -4.443101 0
M  V30 73 H 0.644653 1.499760 -3.931611 0
M  V30 74 H 3.576458 -0.849460 -2.087999 0
M  V30 75 H 2.177797 -1.929017 -2.356145 0
M  V30 76 H 2.940031 -1.145147 -3.738035 0
M  V30 END ATOM
M  V30 BEGIN BOND
M  V30 1 1 1 2
M  V30 2 2 2 3
M  V30 3 1 3 4
M  V30 4 1 4 5
M  V30 5 2 4 6
M  V30 6 1 6 7
M  V30 7 2 7 8
M  V30 8 1 7 9
M  V30 9 1 9 10
M  V30 10 2 10 11
M  V30 11 1 11 12
M  V30 12 1 12 13
M  V30 13 2 13 14
M  V30 14 1 14 15
M  V30 15 1 15 16
M  V30 16 1 16 17
M  V30 17 2 17 18
M  V30 18 1 17 19
M  V30 19 1 19 20
M  V30 20 1 20 21
M  V30 21 1 21 22
M  V30 22 1 21 23
M  V30 23 1 23 24
M  V30 24 1 24 25
M  V30 25 1 25 26
M  V30 26 1 26 27
M  V30 27 1 27 28
M  V30 28 1 28 29
M  V30 29 1 29 30
M  V30 30 1 23 31
M  V30 31 1 31 32
M  V30 32 1 32 33
M  V30 33 1 16 34
M  V30 34 1 34 35
M  V30 35 1 34 36
M  V30 36 1 6 37
M  V30 37 1 37 2
M  V30 38 1 14 10
M  V30 39 1 32 19
M  V30 40 1 34 13
M  V30 41 1 30 25
M  V30 42 1 1 38
M  V30 43 1 1 39
M  V30 44 1 1 40
M  V30 45 1 5 41
M  V30 46 1 5 42
M  V30 47 1 5 43
M  V30 48 1 9 44
M  V30 49 1 12 45
M  V30 50 1 15 46
M  V30 51 1 15 47
M  V30 52 1 20 48
M  V30 53 1 20 49
M  V30 54 1 21 50 CFG=1
M  V30 55 1 22 51
M  V30 56 1 22 52
M  V30 57 1 22 53
M  V30 58 1 24 54
M  V30 59 1 24 55
M  V30 60 1 25 56
M  V30 61 1 26 57
M  V30 62 1 26 58
M  V30 63 1 27 59
M  V30 64 1 27 60
M  V30 65 1 29 61
M  V30 66 1 29 62
M  V30 67 1 30 63
M  V30 68 1 30 64
M  V30 69 1 31 65
M  V30 70 1 31 66
M  V30 71 1 32 67 CFG=1
M  V30 72 1 33 68
M  V30 73 1 33 69
M  V30 74 1 33 70
M  V30 75 1 35 71
M  V30 76 1 35 72
M  V30 77 1 35 73
M  V30 78 1 36 74
M  V30 79 1 36 75
M  V30 80 1 36 76
M  V30 END BOND
M  V30 END CTAB
M  END
>  <Dataset>  (428) 
ChEMBL_Kinases

>  <Ligand_Instance>  (428) 
nan

>  <PDB_ID>  (428) 
nan

>  <Standardized_SMILES>  (428) 
Cc1nc(C)c(C(=O)Nc2n[nH]c3c2CN(C(=O)N2C[C@@H](C)N(CC4CCOCC4)C[C@@H]2C)C3(C)C)s1

>  <Name>  (428) 
nan

>  <Pocket>  (428) 
nan

>  <ATP_Site>  (428) 
nan

>  <Peripheral>  (428) 
nan

>  <Num_H_Atoms_ProtBoundConf>  (428) 
nan

>  <Num_Resolved_Atoms>  (428) 
nan

>  <Num_Not_Resolved_Atoms>  (428) 
nan

$$$$
CHEMBL3662900
     RDKit          3D

  0  0  0  0  0  0  0  0  0  0999 V3000
M  V30 BEGIN CTAB
M  V30 COUNTS 69 72 0 0 0
M  V30 BEGIN ATOM
M  V30 1 C 6.867065 -0.468297 2.465482 0
M  V30 2 O 6.698040 0.775960 1.912742 0
M  V30 3 C 5.468244 0.997781 1.336198 0
M  V30 4 C 5.163251 0.054917 0.198048 0
M  V30 5 C 3.798970 0.437614 -0.340694 0
M  V30 6 N 3.357408 -0.357887 -1.425097 0
M  V30 7 C 3.057962 -1.720932 -1.109233 0
M  V30 8 C 1.843014 -1.866804 -0.218281 0 CFG=2
M  V30 9 C 1.372965 -3.293920 -0.127545 0
M  V30 10 N 0.814545 -0.922143 -0.552687 0
M  V30 11 C -0.154003 -0.677742 0.429227 0
M  V30 12 O -0.983144 0.161779 -0.000887 0
M  V30 13 N -1.088366 -0.466342 1.425663 0
M  V30 14 C -2.262988 0.360781 1.540006 0
M  V30 15 C -3.277189 -0.659586 1.992425 0
M  V30 16 C -4.602073 -1.116933 2.001619 0
M  V30 17 N -5.554608 -0.323115 1.266803 0
M  V30 18 C -5.622191 -0.768327 -0.081703 0
M  V30 19 O -4.831134 -1.740559 -0.280961 0
M  V30 20 C -6.502911 -0.151953 -1.065816 0
M  V30 21 O -7.360818 0.851684 -0.946335 0
M  V30 22 C -7.918040 1.035378 -2.121334 0
M  V30 23 N -7.426613 0.149942 -3.020618 0
M  V30 24 C -6.516685 -0.621053 -2.362230 0
M  V30 25 C -5.816446 -1.683456 -3.114773 0
M  V30 26 N -4.639194 -2.222855 2.725267 0
M  V30 27 N -3.434667 -2.498297 3.174603 0
M  V30 28 C -2.558368 -1.561693 2.748885 0
M  V30 29 C -1.140557 -1.076264 2.741415 0
M  V30 30 C -0.167886 -2.205261 2.921617 0
M  V30 31 C -0.996314 -0.090117 3.866193 0
M  V30 32 C 0.943912 -0.358518 -1.875037 0
M  V30 33 C 2.284668 0.273615 -2.118375 0 CFG=1
M  V30 34 C 2.121913 1.749706 -1.758470 0
M  V30 35 H 6.769246 -1.256909 1.713359 0
M  V30 36 H 7.864799 -0.587422 2.952616 0
M  V30 37 H 6.056814 -0.652629 3.223467 0
M  V30 38 H 5.408540 2.061852 1.005949 0
M  V30 39 H 4.719016 0.859636 2.173987 0
M  V30 40 H 5.216211 -0.979135 0.524865 0
M  V30 41 H 5.958293 0.219952 -0.557173 0
M  V30 42 H 3.923630 1.483434 -0.699193 0
M  V30 43 H 3.031858 0.458089 0.446384 0
M  V30 44 H 3.916737 -2.265009 -0.666641 0
M  V30 45 H 2.814942 -2.243718 -2.058087 0
M  V30 46 H 2.190595 -1.576194 0.811750 0
M  V30 47 H 1.779041 -3.822245 0.759490 0
M  V30 48 H 0.280508 -3.416644 -0.090630 0
M  V30 49 H 1.783349 -3.859595 -1.001176 0
M  V30 50 H -2.581332 0.882544 0.645337 0
M  V30 51 H -2.125601 1.016290 2.424914 0
M  V30 52 H -6.154770 0.482867 1.593698 0
M  V30 53 H -8.674050 1.778629 -2.393639 0
M  V30 54 H -5.138875 -2.301140 -2.526598 0
M  V30 55 H -5.298595 -1.274909 -4.016822 0
M  V30 56 H -6.616563 -2.364891 -3.522403 0
M  V30 57 H -3.112111 -3.291235 3.770736 0
M  V30 58 H 0.844419 -1.774467 2.782850 0
M  V30 59 H -0.218784 -2.503688 3.987461 0
M  V30 60 H -0.399699 -3.062351 2.293467 0
M  V30 61 H -0.488370 -0.611175 4.720226 0
M  V30 62 H -0.450816 0.817419 3.567502 0
M  V30 63 H -1.995824 0.200283 4.288749 0
M  V30 64 H 0.813558 -1.173821 -2.643167 0
M  V30 65 H 0.104373 0.346678 -2.097935 0
M  V30 66 H 2.464923 0.249826 -3.231682 0
M  V30 67 H 2.899848 2.390240 -2.188894 0
M  V30 68 H 1.941004 1.905000 -0.676413 0
M  V30 69 H 1.144760 2.061557 -2.238143 0
M  V30 END ATOM
M  V30 BEGIN BOND
M  V30 1 1 1 2
M  V30 2 1 2 3
M  V30 3 1 3 4
M  V30 4 1 4 5
M  V30 5 1 5 6
M  V30 6 1 6 7
M  V30 7 1 7 8
M  V30 8 1 8 9
M  V30 9 1 8 10
M  V30 10 1 10 11
M  V30 11 2 11 12
M  V30 12 1 11 13
M  V30 13 1 13 14
M  V30 14 1 14 15
M  V30 15 1 15 16
M  V30 16 1 16 17
M  V30 17 1 17 18
M  V30 18 2 18 19
M  V30 19 1 18 20
M  V30 20 1 20 21
M  V30 21 1 21 22
M  V30 22 2 22 23
M  V30 23 1 23 24
M  V30 24 1 24 25
M  V30 25 2 16 26
M  V30 26 1 26 27
M  V30 27 1 27 28
M  V30 28 1 28 29
M  V30 29 1 29 30
M  V30 30 1 29 31
M  V30 31 1 10 32
M  V30 32 1 32 33
M  V30 33 1 33 34
M  V30 34 1 33 6
M  V30 35 1 29 13
M  V30 36 2 28 15
M  V30 37 2 24 20
M  V30 38 1 1 35
M  V30 39 1 1 36
M  V30 40 1 1 37
M  V30 41 1 3 38
M  V30 42 1 3 39
M  V30 43 1 4 40
M  V30 44 1 4 41
M  V30 45 1 5 42
M  V30 46 1 5 43
M  V30 47 1 7 44
M  V30 48 1 7 45
M  V30 49 1 8 46 CFG=1
M  V30 50 1 9 47
M  V30 51 1 9 48
M  V30 52 1 9 49
M  V30 53 1 14 50
M  V30 54 1 14 51
M  V30 55 1 17 52
M  V30 56 1 22 53
M  V30 57 1 25 54
M  V30 58 1 25 55
M  V30 59 1 25 56
M  V30 60 1 27 57
M  V30 61 1 30 58
M  V30 62 1 30 59
M  V30 63 1 30 60
M  V30 64 1 31 61
M  V30 65 1 31 62
M  V30 66 1 31 63
M  V30 67 1 32 64
M  V30 68 1 32 65
M  V30 69 1 33 66 CFG=3
M  V30 70 1 34 67
M  V30 71 1 34 68
M  V30 72 1 34 69
M  V30 END BOND
M  V30 END CTAB
M  END
>  <Dataset>  (429) 
ChEMBL_Kinases

>  <Ligand_Instance>  (429) 
nan

>  <PDB_ID>  (429) 
nan

>  <Standardized_SMILES>  (429) 
COCCCN1C[C@H](C)N(C(=O)N2Cc3c(NC(=O)c4ocnc4C)n[nH]c3C2(C)C)C[C@H]1C

>  <Name>  (429) 
nan

>  <Pocket>  (429) 
nan

>  <ATP_Site>  (429) 
nan

>  <Peripheral>  (429) 
nan

>  <Num_H_Atoms_ProtBoundConf>  (429) 
nan

>  <Num_Resolved_Atoms>  (429) 
nan

>  <Num_Not_Resolved_Atoms>  (429) 
nan

$$$$
CHEMBL3662899
     RDKit          3D

  0  0  0  0  0  0  0  0  0  0999 V3000
M  V30 BEGIN CTAB
M  V30 COUNTS 75 78 0 0 0
M  V30 BEGIN ATOM
M  V30 1 C 0.426356 -3.517745 2.811675 0
M  V30 2 O 1.391629 -2.506071 2.811485 0
M  V30 3 C 2.608012 -3.006144 2.332791 0
M  V30 4 C 3.702741 -2.008318 2.304229 0
M  V30 5 C 3.526668 -0.795871 1.455480 0
M  V30 6 N 3.406849 -1.073871 0.095050 0
M  V30 7 C 2.266387 -1.690838 -0.447131 0
M  V30 8 C 1.759259 -0.985526 -1.710391 0 CFG=2
M  V30 9 C 2.487876 -1.588428 -2.884688 0
M  V30 10 N 1.964587 0.468912 -1.611170 0
M  V30 11 C 1.150385 1.663551 -1.572689 0
M  V30 12 O 1.789895 2.775509 -1.457281 0
M  V30 13 N -0.270945 1.818229 -1.643291 0
M  V30 14 C -1.467971 0.972897 -1.784325 0
M  V30 15 C -2.297913 1.478415 -0.663094 0
M  V30 16 C -3.248590 1.205921 0.317980 0
M  V30 17 N -3.847841 -0.068177 0.514807 0
M  V30 18 C -3.512772 -1.212601 1.282951 0
M  V30 19 O -2.497274 -1.281015 2.000170 0
M  V30 20 C -4.475949 -2.346837 1.170850 0
M  V30 21 C -3.959254 -3.437388 2.007882 0
M  V30 22 C -2.897584 -4.210130 1.554134 0
M  V30 23 C -2.150133 -4.101596 0.257178 0
M  V30 24 N -2.666076 -5.112276 2.547860 0
M  V30 25 O -3.507492 -4.906595 3.512322 0
M  V30 26 C -4.318569 -3.910417 3.254689 0
M  V30 27 C -5.425707 -3.317668 4.045579 0
M  V30 28 N -3.499935 2.327405 1.015045 0
M  V30 29 N -2.734981 3.266250 0.488594 0
M  V30 30 C -1.989291 2.808597 -0.527792 0
M  V30 31 C -0.980041 3.080662 -1.583245 0
M  V30 32 C -0.112802 4.259773 -1.219128 0
M  V30 33 C -1.756708 3.357310 -2.871783 0
M  V30 34 C 3.414399 0.740936 -1.545421 0
M  V30 35 C 4.179985 -0.315120 -0.837198 0 CFG=1
M  V30 36 C 5.381901 0.268673 -0.128038 0
M  V30 37 H 0.282761 -3.898231 1.799534 0
M  V30 38 H -0.517393 -3.065421 3.160587 0
M  V30 39 H 0.805534 -4.277482 3.537436 0
M  V30 40 H 2.484080 -3.630439 1.434111 0
M  V30 41 H 2.912175 -3.765991 3.130134 0
M  V30 42 H 4.643367 -2.552735 2.001934 0
M  V30 43 H 3.891138 -1.705618 3.377161 0
M  V30 44 H 2.561577 -0.276582 1.769309 0
M  V30 45 H 4.308799 -0.029603 1.684696 0
M  V30 46 H 1.434082 -1.683474 0.267761 0
M  V30 47 H 2.509346 -2.756143 -0.731470 0
M  V30 48 H 0.718042 -1.275723 -1.797930 0
M  V30 49 H 1.739494 -1.929926 -3.662470 0
M  V30 50 H 3.150513 -0.909578 -3.423915 0
M  V30 51 H 3.012866 -2.521002 -2.562241 0
M  V30 52 H -1.277315 -0.089417 -1.740088 0
M  V30 53 H -2.042086 1.244550 -2.711003 0
M  V30 54 H -4.723445 -0.048408 -0.086894 0
M  V30 55 H -5.475404 -2.023958 1.525501 0
M  V30 56 H -4.564963 -2.607771 0.099274 0
M  V30 57 H -2.860806 -3.928864 -0.578852 0
M  V30 58 H -1.476444 -3.232184 0.313120 0
M  V30 59 H -1.621309 -5.051004 0.061591 0
M  V30 60 H -6.196953 -2.915913 3.354735 0
M  V30 61 H -5.050479 -2.468356 4.654612 0
M  V30 62 H -5.936282 -4.095198 4.649541 0
M  V30 63 H -2.699596 4.261726 0.813380 0
M  V30 64 H 0.519647 4.611717 -2.033155 0
M  V30 65 H -0.851314 5.106553 -1.049017 0
M  V30 66 H 0.349702 4.101754 -0.246810 0
M  V30 67 H -2.830885 3.104328 -2.788508 0
M  V30 68 H -1.351175 2.837623 -3.745298 0
M  V30 69 H -1.756330 4.478758 -3.018942 0
M  V30 70 H 3.616431 1.746711 -1.107198 0
M  V30 71 H 3.759904 0.817814 -2.595730 0
M  V30 72 H 4.627409 -1.073706 -1.551473 0
M  V30 73 H 6.176445 0.547456 -0.891645 0
M  V30 74 H 5.150775 1.235978 0.366313 0
M  V30 75 H 5.895108 -0.463761 0.528669 0
M  V30 END ATOM
M  V30 BEGIN BOND
M  V30 1 1 1 2
M  V30 2 1 2 3
M  V30 3 1 3 4
M  V30 4 1 4 5
M  V30 5 1 5 6
M  V30 6 1 6 7
M  V30 7 1 7 8
M  V30 8 1 8 9
M  V30 9 1 8 10
M  V30 10 1 10 11
M  V30 11 2 11 12
M  V30 12 1 11 13
M  V30 13 1 13 14
M  V30 14 1 14 15
M  V30 15 1 15 16
M  V30 16 1 16 17
M  V30 17 1 17 18
M  V30 18 2 18 19
M  V30 19 1 18 20
M  V30 20 1 20 21
M  V30 21 1 21 22
M  V30 22 1 22 23
M  V30 23 2 22 24
M  V30 24 1 24 25
M  V30 25 1 25 26
M  V30 26 1 26 27
M  V30 27 2 16 28
M  V30 28 1 28 29
M  V30 29 1 29 30
M  V30 30 1 30 31
M  V30 31 1 31 32
M  V30 32 1 31 33
M  V30 33 1 10 34
M  V30 34 1 34 35
M  V30 35 1 35 36
M  V30 36 1 35 6
M  V30 37 1 31 13
M  V30 38 2 30 15
M  V30 39 2 26 21
M  V30 40 1 1 37
M  V30 41 1 1 38
M  V30 42 1 1 39
M  V30 43 1 3 40
M  V30 44 1 3 41
M  V30 45 1 4 42
M  V30 46 1 4 43
M  V30 47 1 5 44
M  V30 48 1 5 45
M  V30 49 1 7 46
M  V30 50 1 7 47
M  V30 51 1 8 48 CFG=3
M  V30 52 1 9 49
M  V30 53 1 9 50
M  V30 54 1 9 51
M  V30 55 1 14 52
M  V30 56 1 14 53
M  V30 57 1 17 54
M  V30 58 1 20 55
M  V30 59 1 20 56
M  V30 60 1 23 57
M  V30 61 1 23 58
M  V30 62 1 23 59
M  V30 63 1 27 60
M  V30 64 1 27 61
M  V30 65 1 27 62
M  V30 66 1 29 63
M  V30 67 1 32 64
M  V30 68 1 32 65
M  V30 69 1 32 66
M  V30 70 1 33 67
M  V30 71 1 33 68
M  V30 72 1 33 69
M  V30 73 1 34 70
M  V30 74 1 34 71
M  V30 75 1 35 72 CFG=3
M  V30 76 1 36 73
M  V30 77 1 36 74
M  V30 78 1 36 75
M  V30 END BOND
M  V30 END CTAB
M  END
>  <Dataset>  (430) 
ChEMBL_Kinases

>  <Ligand_Instance>  (430) 
nan

>  <PDB_ID>  (430) 
nan

>  <Standardized_SMILES>  (430) 
COCCCN1C[C@H](C)N(C(=O)N2Cc3c(NC(=O)Cc4c(C)noc4C)n[nH]c3C2(C)C)C[C@H]1C

>  <Name>  (430) 
nan

>  <Pocket>  (430) 
nan

>  <ATP_Site>  (430) 
nan

>  <Peripheral>  (430) 
nan

>  <Num_H_Atoms_ProtBoundConf>  (430) 
nan

>  <Num_Resolved_Atoms>  (430) 
nan

>  <Num_Not_Resolved_Atoms>  (430) 
nan

$$$$
CHEMBL3662898
     RDKit          3D

  0  0  0  0  0  0  0  0  0  0999 V3000
M  V30 BEGIN CTAB
M  V30 COUNTS 75 78 0 0 0
M  V30 BEGIN ATOM
M  V30 1 C 0.826410 2.198767 7.904456 0
M  V30 2 C 1.378478 0.806012 7.632094 0
M  V30 3 C 1.703798 0.638023 6.171445 0
M  V30 4 N 2.206561 -0.514433 5.693125 0
M  V30 5 C 2.378423 -0.330768 4.378218 0
M  V30 6 C 2.921372 -1.353892 3.417331 0
M  V30 7 C 1.970701 0.950960 4.075465 0
M  V30 8 C 2.014551 1.508297 2.730798 0
M  V30 9 O 2.468534 0.806243 1.782704 0
M  V30 10 N 1.593302 2.793489 2.341056 0
M  V30 11 C 1.800973 2.967684 0.944391 0
M  V30 12 N 2.904279 3.460868 0.336474 0
M  V30 13 N 2.752834 3.477752 -0.978660 0
M  V30 14 C 1.521245 2.982115 -1.206957 0
M  V30 15 C 0.882538 2.646732 -0.031355 0
M  V30 16 C -0.443130 2.123173 -0.454466 0
M  V30 17 N -0.219277 1.531273 -1.772606 0
M  V30 18 C -0.471087 0.399565 -2.591064 0
M  V30 19 O -0.101211 0.186280 -3.774943 0
M  V30 20 N -1.186330 -0.772130 -2.318672 0
M  V30 21 C -1.173766 -1.666664 -3.452598 0
M  V30 22 C -2.011785 -2.869492 -3.270299 0 CFG=1
M  V30 23 C -1.696092 -3.797012 -4.460938 0
M  V30 24 N -1.477399 -3.628418 -2.109678 0
M  V30 25 C -2.321681 -4.754306 -1.877045 0
M  V30 26 C -1.772053 -5.864325 -1.109897 0
M  V30 27 C -1.263325 -5.702465 0.269906 0
M  V30 28 O -0.164489 -4.921141 0.466134 0
M  V30 29 C 0.214590 -4.846036 1.810510 0
M  V30 30 C -1.478949 -2.744046 -0.952975 0
M  V30 31 C -1.923635 -1.320321 -1.229354 0 CFG=2
M  V30 32 C -3.420766 -1.193801 -1.364334 0
M  V30 33 C 0.557107 2.646915 -2.291018 0
M  V30 34 C -0.259411 3.874261 -2.561327 0
M  V30 35 C 1.335654 2.303527 -3.533424 0
M  V30 36 O 1.568187 1.508549 5.183900 0
M  V30 37 H 0.188229 2.467721 7.040972 0
M  V30 38 H 0.229014 2.186204 8.829589 0
M  V30 39 H 1.694569 2.881431 7.960669 0
M  V30 40 H 0.610040 0.085091 7.917003 0
M  V30 41 H 2.275583 0.609117 8.256312 0
M  V30 42 H 2.228320 -1.435690 2.532933 0
M  V30 43 H 3.907086 -0.977335 3.108299 0
M  V30 44 H 3.027711 -2.316808 3.943226 0
M  V30 45 H 1.201282 3.416043 3.107887 0
M  V30 46 H 3.409931 3.794228 -1.728471 0
M  V30 47 H -1.139750 2.984736 -0.506279 0
M  V30 48 H -0.738054 1.376827 0.299573 0
M  V30 49 H -1.352319 -1.131462 -4.408713 0
M  V30 50 H -0.105127 -2.020886 -3.537418 0
M  V30 51 H -3.083698 -2.770824 -3.268576 0
M  V30 52 H -0.775670 -4.363208 -4.253533 0
M  V30 53 H -2.570057 -4.415202 -4.741291 0
M  V30 54 H -1.527226 -3.126014 -5.335869 0
M  V30 55 H -3.288018 -4.403794 -1.367718 0
M  V30 56 H -2.709946 -5.178243 -2.859061 0
M  V30 57 H -0.929902 -6.386859 -1.686475 0
M  V30 58 H -2.526066 -6.734212 -1.052362 0
M  V30 59 H -2.119705 -5.334601 0.928894 0
M  V30 60 H -1.045536 -6.741109 0.690708 0
M  V30 61 H 1.095966 -4.206452 1.886180 0
M  V30 62 H -0.662552 -4.491801 2.405128 0
M  V30 63 H 0.428899 -5.879864 2.168235 0
M  V30 64 H -2.025859 -3.184080 -0.122128 0
M  V30 65 H -0.394318 -2.628281 -0.653459 0
M  V30 66 H -1.685222 -0.787803 -0.260108 0
M  V30 67 H -3.963830 -2.135740 -1.165668 0
M  V30 68 H -3.725786 -0.700508 -2.325429 0
M  V30 69 H -3.852459 -0.483856 -0.585237 0
M  V30 70 H -0.348516 4.473519 -1.648520 0
M  V30 71 H -1.241779 3.635140 -3.022188 0
M  V30 72 H 0.324786 4.502353 -3.291718 0
M  V30 73 H 0.716609 2.357052 -4.457738 0
M  V30 74 H 2.107035 3.099947 -3.641036 0
M  V30 75 H 1.907304 1.352872 -3.452162 0
M  V30 END ATOM
M  V30 BEGIN BOND
M  V30 1 1 1 2
M  V30 2 1 2 3
M  V30 3 2 3 4
M  V30 4 1 4 5
M  V30 5 1 5 6
M  V30 6 2 5 7
M  V30 7 1 7 8
M  V30 8 2 8 9
M  V30 9 1 8 10
M  V30 10 1 10 11
M  V30 11 2 11 12
M  V30 12 1 12 13
M  V30 13 1 13 14
M  V30 14 2 14 15
M  V30 15 1 15 16
M  V30 16 1 16 17
M  V30 17 1 17 18
M  V30 18 2 18 19
M  V30 19 1 18 20
M  V30 20 1 20 21
M  V30 21 1 21 22
M  V30 22 1 22 23
M  V30 23 1 22 24
M  V30 24 1 24 25
M  V30 25 1 25 26
M  V30 26 1 26 27
M  V30 27 1 27 28
M  V30 28 1 28 29
M  V30 29 1 24 30
M  V30 30 1 30 31
M  V30 31 1 31 32
M  V30 32 1 17 33
M  V30 33 1 33 34
M  V30 34 1 33 35
M  V30 35 1 7 36
M  V30 36 1 36 3
M  V30 37 1 15 11
M  V30 38 1 31 20
M  V30 39 1 33 14
M  V30 40 1 1 37
M  V30 41 1 1 38
M  V30 42 1 1 39
M  V30 43 1 2 40
M  V30 44 1 2 41
M  V30 45 1 6 42
M  V30 46 1 6 43
M  V30 47 1 6 44
M  V30 48 1 10 45
M  V30 49 1 13 46
M  V30 50 1 16 47
M  V30 51 1 16 48
M  V30 52 1 21 49
M  V30 53 1 21 50
M  V30 54 1 22 51 CFG=1
M  V30 55 1 23 52
M  V30 56 1 23 53
M  V30 57 1 23 54
M  V30 58 1 25 55
M  V30 59 1 25 56
M  V30 60 1 26 57
M  V30 61 1 26 58
M  V30 62 1 27 59
M  V30 63 1 27 60
M  V30 64 1 29 61
M  V30 65 1 29 62
M  V30 66 1 29 63
M  V30 67 1 30 64
M  V30 68 1 30 65
M  V30 69 1 31 66 CFG=1
M  V30 70 1 32 67
M  V30 71 1 32 68
M  V30 72 1 32 69
M  V30 73 1 34 70
M  V30 74 1 34 71
M  V30 75 1 34 72
M  V30 76 1 35 73
M  V30 77 1 35 74
M  V30 78 1 35 75
M  V30 END BOND
M  V30 END CTAB
M  END
>  <Dataset>  (431) 
ChEMBL_Kinases

>  <Ligand_Instance>  (431) 
nan

>  <PDB_ID>  (431) 
nan

>  <Standardized_SMILES>  (431) 
CCc1nc(C)c(C(=O)Nc2n[nH]c3c2CN(C(=O)N2C[C@@H](C)N(CCCOC)C[C@@H]2C)C3(C)C)o1

>  <Name>  (431) 
nan

>  <Pocket>  (431) 
nan

>  <ATP_Site>  (431) 
nan

>  <Peripheral>  (431) 
nan

>  <Num_H_Atoms_ProtBoundConf>  (431) 
nan

>  <Num_Resolved_Atoms>  (431) 
nan

>  <Num_Not_Resolved_Atoms>  (431) 
nan

$$$$
CHEMBL3662897
     RDKit          3D

  0  0  0  0  0  0  0  0  0  0999 V3000
M  V30 BEGIN CTAB
M  V30 COUNTS 73 76 0 0 0
M  V30 BEGIN ATOM
M  V30 1 C 3.421154 -4.244344 2.021356 0
M  V30 2 O 3.059921 -3.839611 0.731662 0
M  V30 3 C 3.087547 -2.445389 0.718654 0
M  V30 4 C 2.703311 -1.901232 -0.661241 0
M  V30 5 C 2.741364 -0.392126 -0.645935 0
M  V30 6 N 2.396183 0.158918 -1.900685 0
M  V30 7 C 1.046733 0.013043 -2.323557 0
M  V30 8 C 0.187461 1.200373 -1.921316 0 CFG=2
M  V30 9 C 0.048249 2.097027 -3.122575 0
M  V30 10 N 0.731781 1.866871 -0.751829 0
M  V30 11 C 0.263925 2.123483 0.599183 0
M  V30 12 O 1.099459 2.779124 1.329011 0
M  V30 13 N -0.945514 1.792928 1.288819 0
M  V30 14 C -2.200413 1.106384 1.040545 0
M  V30 15 C -2.198753 0.115302 2.175041 0
M  V30 16 C -2.531077 -1.160040 2.641777 0
M  V30 17 N -3.175237 -2.088139 1.773693 0
M  V30 18 C -2.391533 -2.951096 0.994851 0
M  V30 19 O -1.156074 -2.754523 1.202303 0
M  V30 20 C -2.821988 -3.958453 0.057283 0
M  V30 21 O -1.900910 -4.650580 -0.553182 0
M  V30 22 C -2.424270 -5.530063 -1.375835 0
M  V30 23 C -1.663942 -6.483279 -2.230666 0
M  V30 24 C -3.782781 -5.446198 -1.336515 0
M  V30 25 C -4.019224 -4.428212 -0.407717 0
M  V30 26 C -5.310731 -3.898259 0.041107 0
M  V30 27 N -2.124119 -1.213457 3.922614 0
M  V30 28 N -1.582344 -0.070249 4.234714 0
M  V30 29 C -1.596302 0.782384 3.214560 0
M  V30 30 C -1.260932 2.135595 2.658593 0
M  V30 31 C -2.476627 3.006356 2.807607 0
M  V30 32 C -0.119213 2.755649 3.423728 0
M  V30 33 C 2.051147 2.379851 -1.054595 0
M  V30 34 C 2.772485 1.527749 -2.030304 0 CFG=1
M  V30 35 C 4.285389 1.666830 -1.893713 0
M  V30 36 H 2.686084 -3.822866 2.760422 0
M  V30 37 H 3.409390 -5.341922 2.116180 0
M  V30 38 H 4.404960 -3.792791 2.297147 0
M  V30 39 H 4.130456 -2.139161 0.887598 0
M  V30 40 H 2.467195 -2.008687 1.509688 0
M  V30 41 H 3.418366 -2.328165 -1.375830 0
M  V30 42 H 1.700601 -2.295850 -0.908838 0
M  V30 43 H 2.087701 -0.067744 0.200820 0
M  V30 44 H 3.783815 -0.063330 -0.396888 0
M  V30 45 H 0.646831 -0.954782 -1.971052 0
M  V30 46 H 1.071616 -0.081397 -3.445369 0
M  V30 47 H -0.779796 0.755445 -1.628646 0
M  V30 48 H -1.040569 2.277097 -3.370713 0
M  V30 49 H 0.425762 1.619371 -4.074882 0
M  V30 50 H 0.475551 3.079690 -2.922737 0
M  V30 51 H -2.300146 0.619757 0.080754 0
M  V30 52 H -3.081585 1.787641 1.169102 0
M  V30 53 H -4.201687 -2.139319 1.705714 0
M  V30 54 H -0.694854 -6.689257 -1.747899 0
M  V30 55 H -1.501662 -5.983647 -3.230189 0
M  V30 56 H -2.237035 -7.415776 -2.369227 0
M  V30 57 H -4.550277 -5.997070 -1.863558 0
M  V30 58 H -6.097398 -4.417474 -0.568843 0
M  V30 59 H -5.507314 -4.022725 1.119473 0
M  V30 60 H -5.357081 -2.818032 -0.241834 0
M  V30 61 H -1.175666 0.175263 5.171105 0
M  V30 62 H -2.337147 3.677879 3.688985 0
M  V30 63 H -3.374793 2.406070 3.055935 0
M  V30 64 H -2.720532 3.613757 1.917852 0
M  V30 65 H -0.521857 2.845859 4.477184 0
M  V30 66 H 0.002520 3.781537 3.085956 0
M  V30 67 H 0.764978 2.131972 3.510379 0
M  V30 68 H 1.900184 3.403321 -1.518822 0
M  V30 69 H 2.636223 2.559840 -0.117125 0
M  V30 70 H 2.563413 1.929236 -3.063669 0
M  V30 71 H 4.631633 2.569516 -2.434071 0
M  V30 72 H 4.724818 0.789353 -2.382487 0
M  V30 73 H 4.573910 1.799151 -0.825920 0
M  V30 END ATOM
M  V30 BEGIN BOND
M  V30 1 1 1 2
M  V30 2 1 2 3
M  V30 3 1 3 4
M  V30 4 1 4 5
M  V30 5 1 5 6
M  V30 6 1 6 7
M  V30 7 1 7 8
M  V30 8 1 8 9
M  V30 9 1 8 10
M  V30 10 1 10 11
M  V30 11 2 11 12
M  V30 12 1 11 13
M  V30 13 1 13 14
M  V30 14 1 14 15
M  V30 15 1 15 16
M  V30 16 1 16 17
M  V30 17 1 17 18
M  V30 18 2 18 19
M  V30 19 1 18 20
M  V30 20 1 20 21
M  V30 21 1 21 22
M  V30 22 1 22 23
M  V30 23 2 22 24
M  V30 24 1 24 25
M  V30 25 1 25 26
M  V30 26 2 16 27
M  V30 27 1 27 28
M  V30 28 1 28 29
M  V30 29 1 29 30
M  V30 30 1 30 31
M  V30 31 1 30 32
M  V30 32 1 10 33
M  V30 33 1 33 34
M  V30 34 1 34 35
M  V30 35 1 34 6
M  V30 36 1 30 13
M  V30 37 2 29 15
M  V30 38 2 25 20
M  V30 39 1 1 36
M  V30 40 1 1 37
M  V30 41 1 1 38
M  V30 42 1 3 39
M  V30 43 1 3 40
M  V30 44 1 4 41
M  V30 45 1 4 42
M  V30 46 1 5 43
M  V30 47 1 5 44
M  V30 48 1 7 45
M  V30 49 1 7 46
M  V30 50 1 8 47 CFG=1
M  V30 51 1 9 48
M  V30 52 1 9 49
M  V30 53 1 9 50
M  V30 54 1 14 51
M  V30 55 1 14 52
M  V30 56 1 17 53
M  V30 57 1 23 54
M  V30 58 1 23 55
M  V30 59 1 23 56
M  V30 60 1 24 57
M  V30 61 1 26 58
M  V30 62 1 26 59
M  V30 63 1 26 60
M  V30 64 1 28 61
M  V30 65 1 31 62
M  V30 66 1 31 63
M  V30 67 1 31 64
M  V30 68 1 32 65
M  V30 69 1 32 66
M  V30 70 1 32 67
M  V30 71 1 33 68
M  V30 72 1 33 69
M  V30 73 1 34 70 CFG=3
M  V30 74 1 35 71
M  V30 75 1 35 72
M  V30 76 1 35 73
M  V30 END BOND
M  V30 END CTAB
M  END
>  <Dataset>  (432) 
ChEMBL_Kinases

>  <Ligand_Instance>  (432) 
nan

>  <PDB_ID>  (432) 
nan

>  <Standardized_SMILES>  (432) 
COCCCN1C[C@H](C)N(C(=O)N2Cc3c(NC(=O)c4oc(C)cc4C)n[nH]c3C2(C)C)C[C@H]1C

>  <Name>  (432) 
nan

>  <Pocket>  (432) 
nan

>  <ATP_Site>  (432) 
nan

>  <Peripheral>  (432) 
nan

>  <Num_H_Atoms_ProtBoundConf>  (432) 
nan

>  <Num_Resolved_Atoms>  (432) 
nan

>  <Num_Not_Resolved_Atoms>  (432) 
nan

$$$$
CHEMBL3662896
     RDKit          3D

  0  0  0  0  0  0  0  0  0  0999 V3000
M  V30 BEGIN CTAB
M  V30 COUNTS 76 79 0 0 0
M  V30 BEGIN ATOM
M  V30 1 C 5.840511 -1.896420 4.267397 0
M  V30 2 C 5.102698 -2.109484 2.964860 0
M  V30 3 C 4.562798 -0.794509 2.536541 0
M  V30 4 C 3.811886 -0.478887 1.399397 0
M  V30 5 C 3.552909 0.873844 1.452217 0
M  V30 6 C 2.782231 1.466107 0.380074 0
M  V30 7 O 2.376879 0.723431 -0.578177 0
M  V30 8 N 2.356151 2.797892 0.163340 0
M  V30 9 C 1.607398 2.956248 -1.035511 0
M  V30 10 N 1.944023 3.246016 -2.305290 0
M  V30 11 N 0.871439 3.283729 -3.077878 0
M  V30 12 C -0.239906 3.020323 -2.362328 0
M  V30 13 C 0.220945 2.814727 -1.080655 0
M  V30 14 C -0.971584 2.521721 -0.261459 0
M  V30 15 N -1.847291 1.862981 -1.224330 0
M  V30 16 C -2.623522 0.705751 -1.320561 0
M  V30 17 O -3.293671 0.422439 -2.345915 0
M  V30 18 N -2.936472 -0.406811 -0.509781 0
M  V30 19 C -3.804153 -1.443784 -0.960156 0
M  V30 20 C -3.269716 -2.826768 -0.891862 0 CFG=1
M  V30 21 C -3.010601 -3.328112 -2.296174 0
M  V30 22 N -2.176347 -3.090608 -0.027002 0
M  V30 23 C -1.054440 -3.746648 -0.719971 0
M  V30 24 C 0.046780 -4.073849 0.259203 0
M  V30 25 C -0.373556 -5.008285 1.348294 0
M  V30 26 O -0.793100 -6.201435 0.740897 0
M  V30 27 C -1.199339 -7.116509 1.709398 0
M  V30 28 C -1.610864 -1.958953 0.639348 0
M  V30 29 C -2.536670 -0.797820 0.839454 0 CFG=2
M  V30 30 C -3.698871 -1.262077 1.683897 0
M  V30 31 C -1.729635 2.838813 -2.263356 0
M  V30 32 C -2.305735 4.176929 -1.879899 0
M  V30 33 C -2.228028 2.367423 -3.608436 0
M  V30 34 N 4.127331 1.327568 2.570790 0
M  V30 35 C 4.077728 2.705453 2.980185 0
M  V30 36 N 4.734521 0.328022 3.224064 0
M  V30 37 H 5.629019 -2.717110 5.003031 0
M  V30 38 H 5.466681 -0.956059 4.767105 0
M  V30 39 H 6.936135 -1.868244 4.089398 0
M  V30 40 H 4.271273 -2.815936 3.165256 0
M  V30 41 H 5.810971 -2.556074 2.237042 0
M  V30 42 H 3.575491 -1.305434 0.710260 0
M  V30 43 H 2.637343 3.484304 0.893295 0
M  V30 44 H 0.830084 3.483899 -4.103706 0
M  V30 45 H -0.733036 1.887708 0.610602 0
M  V30 46 H -1.524801 3.452860 0.056565 0
M  V30 47 H -4.738307 -1.347784 -0.325189 0
M  V30 48 H -4.166473 -1.195199 -1.977849 0
M  V30 49 H -4.109181 -3.490678 -0.521404 0
M  V30 50 H -3.086956 -4.451055 -2.364880 0
M  V30 51 H -3.851366 -2.980241 -2.968791 0
M  V30 52 H -2.095849 -2.959318 -2.754569 0
M  V30 53 H -1.364957 -4.611413 -1.301955 0
M  V30 54 H -0.619082 -2.932935 -1.372467 0
M  V30 55 H 0.455539 -3.150698 0.690812 0
M  V30 56 H 0.857619 -4.590360 -0.310022 0
M  V30 57 H -1.136785 -4.615641 2.027655 0
M  V30 58 H 0.563999 -5.264347 1.913856 0
M  V30 59 H -0.316761 -7.313432 2.380703 0
M  V30 60 H -1.543741 -8.029717 1.196322 0
M  V30 61 H -2.002221 -6.663095 2.337786 0
M  V30 62 H -1.261144 -2.278334 1.639641 0
M  V30 63 H -0.689264 -1.572319 0.110471 0
M  V30 64 H -1.980119 0.013577 1.349322 0
M  V30 65 H -4.582359 -0.604215 1.564436 0
M  V30 66 H -3.381580 -1.136671 2.760170 0
M  V30 67 H -3.881792 -2.328188 1.557850 0
M  V30 68 H -3.095760 3.991313 -1.119644 0
M  V30 69 H -2.766614 4.623726 -2.786854 0
M  V30 70 H -1.568962 4.860752 -1.410723 0
M  V30 71 H -3.313179 2.323159 -3.681911 0
M  V30 72 H -1.762720 1.380715 -3.806161 0
M  V30 73 H -1.824978 3.076375 -4.364318 0
M  V30 74 H 4.575384 3.374252 2.232898 0
M  V30 75 H 4.622987 2.796615 3.971893 0
M  V30 76 H 3.085341 3.106960 3.180915 0
M  V30 END ATOM
M  V30 BEGIN BOND
M  V30 1 1 1 2
M  V30 2 1 2 3
M  V30 3 1 3 4
M  V30 4 2 4 5
M  V30 5 1 5 6
M  V30 6 2 6 7
M  V30 7 1 6 8
M  V30 8 1 8 9
M  V30 9 2 9 10
M  V30 10 1 10 11
M  V30 11 1 11 12
M  V30 12 2 12 13
M  V30 13 1 13 14
M  V30 14 1 14 15
M  V30 15 1 15 16
M  V30 16 2 16 17
M  V30 17 1 16 18
M  V30 18 1 18 19
M  V30 19 1 19 20
M  V30 20 1 20 21
M  V30 21 1 20 22
M  V30 22 1 22 23
M  V30 23 1 23 24
M  V30 24 1 24 25
M  V30 25 1 25 26
M  V30 26 1 26 27
M  V30 27 1 22 28
M  V30 28 1 28 29
M  V30 29 1 29 30
M  V30 30 1 15 31
M  V30 31 1 31 32
M  V30 32 1 31 33
M  V30 33 1 5 34
M  V30 34 1 34 35
M  V30 35 1 34 36
M  V30 36 2 36 3
M  V30 37 1 13 9
M  V30 38 1 29 18
M  V30 39 1 31 12
M  V30 40 1 1 37
M  V30 41 1 1 38
M  V30 42 1 1 39
M  V30 43 1 2 40
M  V30 44 1 2 41
M  V30 45 1 4 42
M  V30 46 1 8 43
M  V30 47 1 11 44
M  V30 48 1 14 45
M  V30 49 1 14 46
M  V30 50 1 19 47
M  V30 51 1 19 48
M  V30 52 1 20 49 CFG=1
M  V30 53 1 21 50
M  V30 54 1 21 51
M  V30 55 1 21 52
M  V30 56 1 23 53
M  V30 57 1 23 54
M  V30 58 1 24 55
M  V30 59 1 24 56
M  V30 60 1 25 57
M  V30 61 1 25 58
M  V30 62 1 27 59
M  V30 63 1 27 60
M  V30 64 1 27 61
M  V30 65 1 28 62
M  V30 66 1 28 63
M  V30 67 1 29 64 CFG=1
M  V30 68 1 30 65
M  V30 69 1 30 66
M  V30 70 1 30 67
M  V30 71 1 32 68
M  V30 72 1 32 69
M  V30 73 1 32 70
M  V30 74 1 33 71
M  V30 75 1 33 72
M  V30 76 1 33 73
M  V30 77 1 35 74
M  V30 78 1 35 75
M  V30 79 1 35 76
M  V30 END BOND
M  V30 END CTAB
M  END
>  <Dataset>  (433) 
ChEMBL_Kinases

>  <Ligand_Instance>  (433) 
nan

>  <PDB_ID>  (433) 
nan

>  <Standardized_SMILES>  (433) 
CCc1cc(C(=O)Nc2n[nH]c3c2CN(C(=O)N2C[C@@H](C)N(CCCOC)C[C@@H]2C)C3(C)C)n(C)n1

>  <Name>  (433) 
nan

>  <Pocket>  (433) 
nan

>  <ATP_Site>  (433) 
nan

>  <Peripheral>  (433) 
nan

>  <Num_H_Atoms_ProtBoundConf>  (433) 
nan

>  <Num_Resolved_Atoms>  (433) 
nan

>  <Num_Not_Resolved_Atoms>  (433) 
nan

$$$$
CHEMBL3662895
     RDKit          3D

  0  0  0  0  0  0  0  0  0  0999 V3000
M  V30 BEGIN CTAB
M  V30 COUNTS 68 71 0 0 0
M  V30 BEGIN ATOM
M  V30 1 C 5.402577 -0.309399 3.856711 0
M  V30 2 O 4.469315 0.421674 4.578816 0
M  V30 3 C 3.592290 1.140640 3.805681 0
M  V30 4 C 4.245186 2.162821 2.911283 0
M  V30 5 C 3.171100 2.866643 2.129747 0
M  V30 6 N 2.391584 2.005248 1.279660 0
M  V30 7 C 1.357669 2.724503 0.589802 0
M  V30 8 C 0.873365 2.092888 -0.677021 0 CFG=2
M  V30 9 C -0.538301 2.550131 -0.978430 0
M  V30 10 N 0.994478 0.666247 -0.503531 0
M  V30 11 C -0.143835 -0.150480 -0.430928 0
M  V30 12 O -1.332738 0.219233 -0.498501 0
M  V30 13 N -0.475124 -1.510021 -0.278405 0
M  V30 14 C -1.923379 -1.604714 -0.297096 0
M  V30 15 C -2.114655 -3.093377 -0.166185 0
M  V30 16 C -3.178505 -3.959982 -0.123266 0
M  V30 17 N -4.571588 -3.674428 -0.194666 0
M  V30 18 C -5.371847 -3.603962 -1.382818 0
M  V30 19 O -4.896226 -3.798265 -2.541318 0
M  V30 20 C -6.799277 -3.290563 -1.209174 0
M  V30 21 C -7.602966 -3.209676 -2.336345 0
M  V30 22 N -8.924613 -2.916738 -2.163614 0
M  V30 23 C -9.425002 -2.713518 -0.930027 0
M  V30 24 C -8.639970 -2.789786 0.206203 0
M  V30 25 N -7.341058 -3.079497 0.015304 0
M  V30 26 N -2.581031 -5.179119 0.007364 0
M  V30 27 N -1.264120 -5.015965 0.036814 0
M  V30 28 C -0.901735 -3.740029 -0.066673 0
M  V30 29 C 0.234884 -2.786242 -0.113766 0
M  V30 30 C 1.138678 -3.101777 -1.262630 0
M  V30 31 C 0.929199 -2.772484 1.231180 0
M  V30 32 C 2.379442 0.268506 -0.424523 0
M  V30 33 C 3.207985 1.183366 0.425564 0 CFG=1
M  V30 34 C 4.193842 1.952621 -0.388909 0
M  V30 35 H 6.054898 0.274886 3.211934 0
M  V30 36 H 6.071788 -0.776045 4.634318 0
M  V30 37 H 4.924503 -1.137379 3.282128 0
M  V30 38 H 2.930324 1.701325 4.533198 0
M  V30 39 H 2.896653 0.462663 3.280837 0
M  V30 40 H 5.058594 1.781630 2.295857 0
M  V30 41 H 4.702876 2.937204 3.583250 0
M  V30 42 H 2.456777 3.281917 2.895719 0
M  V30 43 H 3.596292 3.746833 1.636386 0
M  V30 44 H 1.607607 3.793348 0.394648 0
M  V30 45 H 0.475805 2.763044 1.283775 0
M  V30 46 H 1.473168 2.459152 -1.545671 0
M  V30 47 H -1.217136 2.506987 -0.114627 0
M  V30 48 H -0.900429 2.032359 -1.883847 0
M  V30 49 H -0.437591 3.630093 -1.305707 0
M  V30 50 H -2.388948 -1.120834 0.587145 0
M  V30 51 H -2.385547 -1.237085 -1.234518 0
M  V30 52 H -4.988615 -3.510930 0.742754 0
M  V30 53 H -7.179677 -3.376045 -3.314204 0
M  V30 54 H -10.474747 -2.476789 -0.745960 0
M  V30 55 H -8.991570 -2.635932 1.214799 0
M  V30 56 H -0.636387 -5.868448 0.135117 0
M  V30 57 H 0.880389 -4.113776 -1.639623 0
M  V30 58 H 0.998665 -2.303670 -2.027592 0
M  V30 59 H 2.179165 -3.177022 -0.891709 0
M  V30 60 H 0.282344 -3.277692 1.975498 0
M  V30 61 H 1.934625 -3.213636 1.218828 0
M  V30 62 H 1.056153 -1.720305 1.615210 0
M  V30 63 H 2.513111 -0.800374 -0.165439 0
M  V30 64 H 2.763807 0.343638 -1.484255 0
M  V30 65 H 3.814889 0.535930 1.094180 0
M  V30 66 H 4.652624 2.791542 0.157587 0
M  V30 67 H 5.050025 1.256351 -0.629389 0
M  V30 68 H 3.852718 2.311702 -1.362161 0
M  V30 END ATOM
M  V30 BEGIN BOND
M  V30 1 1 1 2
M  V30 2 1 2 3
M  V30 3 1 3 4
M  V30 4 1 4 5
M  V30 5 1 5 6
M  V30 6 1 6 7
M  V30 7 1 7 8
M  V30 8 1 8 9
M  V30 9 1 8 10
M  V30 10 1 10 11
M  V30 11 2 11 12
M  V30 12 1 11 13
M  V30 13 1 13 14
M  V30 14 1 14 15
M  V30 15 1 15 16
M  V30 16 1 16 17
M  V30 17 1 17 18
M  V30 18 2 18 19
M  V30 19 1 18 20
M  V30 20 2 20 21
M  V30 21 1 21 22
M  V30 22 2 22 23
M  V30 23 1 23 24
M  V30 24 2 24 25
M  V30 25 2 16 26
M  V30 26 1 26 27
M  V30 27 1 27 28
M  V30 28 1 28 29
M  V30 29 1 29 30
M  V30 30 1 29 31
M  V30 31 1 10 32
M  V30 32 1 32 33
M  V30 33 1 33 34
M  V30 34 1 33 6
M  V30 35 1 29 13
M  V30 36 2 28 15
M  V30 37 1 25 20
M  V30 38 1 1 35
M  V30 39 1 1 36
M  V30 40 1 1 37
M  V30 41 1 3 38
M  V30 42 1 3 39
M  V30 43 1 4 40
M  V30 44 1 4 41
M  V30 45 1 5 42
M  V30 46 1 5 43
M  V30 47 1 7 44
M  V30 48 1 7 45
M  V30 49 1 8 46 CFG=3
M  V30 50 1 9 47
M  V30 51 1 9 48
M  V30 52 1 9 49
M  V30 53 1 14 50
M  V30 54 1 14 51
M  V30 55 1 17 52
M  V30 56 1 21 53
M  V30 57 1 23 54
M  V30 58 1 24 55
M  V30 59 1 27 56
M  V30 60 1 30 57
M  V30 61 1 30 58
M  V30 62 1 30 59
M  V30 63 1 31 60
M  V30 64 1 31 61
M  V30 65 1 31 62
M  V30 66 1 32 63
M  V30 67 1 32 64
M  V30 68 1 33 65 CFG=1
M  V30 69 1 34 66
M  V30 70 1 34 67
M  V30 71 1 34 68
M  V30 END BOND
M  V30 END CTAB
M  END
>  <Dataset>  (434) 
ChEMBL_Kinases

>  <Ligand_Instance>  (434) 
nan

>  <PDB_ID>  (434) 
nan

>  <Standardized_SMILES>  (434) 
COCCCN1C[C@H](C)N(C(=O)N2Cc3c(NC(=O)c4cnccn4)n[nH]c3C2(C)C)C[C@H]1C

>  <Name>  (434) 
nan

>  <Pocket>  (434) 
nan

>  <ATP_Site>  (434) 
nan

>  <Peripheral>  (434) 
nan

>  <Num_H_Atoms_ProtBoundConf>  (434) 
nan

>  <Num_Resolved_Atoms>  (434) 
nan

>  <Num_Not_Resolved_Atoms>  (434) 
nan

$$$$
CHEMBL3662894
     RDKit          3D

  0  0  0  0  0  0  0  0  0  0999 V3000
M  V30 BEGIN CTAB
M  V30 COUNTS 74 77 0 0 0
M  V30 BEGIN ATOM
M  V30 1 C 3.257540 -2.281785 3.443380 0
M  V30 2 O 3.920381 -1.227944 2.780462 0
M  V30 3 C 4.559495 -1.836936 1.677024 0
M  V30 4 C 5.326698 -0.894408 0.831808 0
M  V30 5 C 4.640323 0.226891 0.171670 0
M  V30 6 N 3.628220 -0.025482 -0.780585 0
M  V30 7 C 2.444454 -0.550833 -0.214397 0
M  V30 8 C 1.184112 -0.143629 -0.963363 0 CFG=2
M  V30 9 C 1.030179 -0.909585 -2.241176 0
M  V30 10 N 0.995565 1.274491 -1.081253 0
M  V30 11 C -0.167555 2.037431 -1.286446 0
M  V30 12 O 0.004821 3.310457 -1.323205 0
M  V30 13 N -1.545903 1.643030 -1.467253 0
M  V30 14 C -2.291500 0.388213 -1.533494 0
M  V30 15 C -3.364638 0.611345 -0.557930 0
M  V30 16 C -4.214405 0.061711 0.381058 0
M  V30 17 N -4.172838 -1.337652 0.669058 0
M  V30 18 C -3.274361 -1.753933 1.714945 0
M  V30 19 O -2.587057 -0.897437 2.311158 0
M  V30 20 C -3.244323 -3.190515 1.996296 0
M  V30 21 C -2.414255 -3.683477 2.977995 0
M  V30 22 C -2.351635 -5.046654 3.281162 0
M  V30 23 C -1.487811 -5.642606 4.316771 0
M  V30 24 N -3.143485 -5.858751 2.566182 0
M  V30 25 C -3.950798 -5.405993 1.616064 0
M  V30 26 C -4.847971 -6.293591 0.800723 0
M  V30 27 N -3.996575 -4.103321 1.341531 0
M  V30 28 N -4.977502 1.078292 0.870357 0
M  V30 29 N -4.622963 2.207237 0.267798 0
M  V30 30 C -3.634888 1.958434 -0.615649 0
M  V30 31 C -2.685934 2.518506 -1.646124 0
M  V30 32 C -2.387580 3.970471 -1.334123 0
M  V30 33 C -3.348956 2.384867 -2.981117 0
M  V30 34 C 2.267958 1.990099 -0.971761 0
M  V30 35 C 3.335782 1.130228 -1.622140 0 CFG=1
M  V30 36 C 4.547853 1.946649 -1.886029 0
M  V30 37 H 2.530665 -2.731303 2.719548 0
M  V30 38 H 2.718334 -1.923261 4.343847 0
M  V30 39 H 3.959889 -3.055132 3.775898 0
M  V30 40 H 3.939488 -2.582398 1.178625 0
M  V30 41 H 5.357649 -2.477062 2.201152 0
M  V30 42 H 6.133880 -0.458826 1.505032 0
M  V30 43 H 5.897824 -1.519538 0.095362 0
M  V30 44 H 5.457339 0.899119 -0.244209 0
M  V30 45 H 4.192544 0.880022 0.999400 0
M  V30 46 H 2.483286 -1.669952 -0.364206 0
M  V30 47 H 2.271653 -0.354510 0.855780 0
M  V30 48 H 0.358638 -0.487198 -0.271039 0
M  V30 49 H 0.825128 -0.273295 -3.130997 0
M  V30 50 H 1.950295 -1.533932 -2.411963 0
M  V30 51 H 0.204996 -1.675687 -2.215111 0
M  V30 52 H -1.697052 -0.505567 -1.353589 0
M  V30 53 H -2.739199 0.368801 -2.575229 0
M  V30 54 H -4.801500 -1.948022 0.093383 0
M  V30 55 H -1.760153 -3.058178 3.576534 0
M  V30 56 H -0.638219 -6.163715 3.784881 0
M  V30 57 H -2.035049 -6.453168 4.837827 0
M  V30 58 H -1.088648 -4.917318 5.051174 0
M  V30 59 H -4.402540 -7.291190 0.801744 0
M  V30 60 H -4.988152 -5.899516 -0.231278 0
M  V30 61 H -5.840895 -6.251156 1.333091 0
M  V30 62 H -5.047114 3.131370 0.456218 0
M  V30 63 H -1.844848 4.393963 -2.177409 0
M  V30 64 H -1.945446 4.060337 -0.346014 0
M  V30 65 H -3.401274 4.469109 -1.364225 0
M  V30 66 H -2.600098 2.025105 -3.715534 0
M  V30 67 H -4.205332 1.682054 -3.000807 0
M  V30 68 H -3.657011 3.393193 -3.389720 0
M  V30 69 H 2.521542 2.177702 0.089026 0
M  V30 70 H 2.193126 2.895853 -1.592787 0
M  V30 71 H 2.939795 0.742268 -2.581741 0
M  V30 72 H 4.316051 2.628198 -2.758661 0
M  V30 73 H 5.421339 1.367916 -2.218975 0
M  V30 74 H 4.824834 2.645888 -1.072959 0
M  V30 END ATOM
M  V30 BEGIN BOND
M  V30 1 1 1 2
M  V30 2 1 2 3
M  V30 3 1 3 4
M  V30 4 1 4 5
M  V30 5 1 5 6
M  V30 6 1 6 7
M  V30 7 1 7 8
M  V30 8 1 8 9
M  V30 9 1 8 10
M  V30 10 1 10 11
M  V30 11 2 11 12
M  V30 12 1 11 13
M  V30 13 1 13 14
M  V30 14 1 14 15
M  V30 15 1 15 16
M  V30 16 1 16 17
M  V30 17 1 17 18
M  V30 18 2 18 19
M  V30 19 1 18 20
M  V30 20 2 20 21
M  V30 21 1 21 22
M  V30 22 1 22 23
M  V30 23 2 22 24
M  V30 24 1 24 25
M  V30 25 1 25 26
M  V30 26 2 25 27
M  V30 27 2 16 28
M  V30 28 1 28 29
M  V30 29 1 29 30
M  V30 30 1 30 31
M  V30 31 1 31 32
M  V30 32 1 31 33
M  V30 33 1 10 34
M  V30 34 1 34 35
M  V30 35 1 35 36
M  V30 36 1 35 6
M  V30 37 1 31 13
M  V30 38 2 30 15
M  V30 39 1 27 20
M  V30 40 1 1 37
M  V30 41 1 1 38
M  V30 42 1 1 39
M  V30 43 1 3 40
M  V30 44 1 3 41
M  V30 45 1 4 42
M  V30 46 1 4 43
M  V30 47 1 5 44
M  V30 48 1 5 45
M  V30 49 1 7 46
M  V30 50 1 7 47
M  V30 51 1 8 48 CFG=1
M  V30 52 1 9 49
M  V30 53 1 9 50
M  V30 54 1 9 51
M  V30 55 1 14 52
M  V30 56 1 14 53
M  V30 57 1 17 54
M  V30 58 1 21 55
M  V30 59 1 23 56
M  V30 60 1 23 57
M  V30 61 1 23 58
M  V30 62 1 26 59
M  V30 63 1 26 60
M  V30 64 1 26 61
M  V30 65 1 29 62
M  V30 66 1 32 63
M  V30 67 1 32 64
M  V30 68 1 32 65
M  V30 69 1 33 66
M  V30 70 1 33 67
M  V30 71 1 33 68
M  V30 72 1 34 69
M  V30 73 1 34 70
M  V30 74 1 35 71 CFG=3
M  V30 75 1 36 72
M  V30 76 1 36 73
M  V30 77 1 36 74
M  V30 END BOND
M  V30 END CTAB
M  END
>  <Dataset>  (435) 
ChEMBL_Kinases

>  <Ligand_Instance>  (435) 
nan

>  <PDB_ID>  (435) 
nan

>  <Standardized_SMILES>  (435) 
COCCCN1C[C@H](C)N(C(=O)N2Cc3c(NC(=O)c4cc(C)nc(C)n4)n[nH]c3C2(C)C)C[C@H]1C

>  <Name>  (435) 
nan

>  <Pocket>  (435) 
nan

>  <ATP_Site>  (435) 
nan

>  <Peripheral>  (435) 
nan

>  <Num_H_Atoms_ProtBoundConf>  (435) 
nan

>  <Num_Resolved_Atoms>  (435) 
nan

>  <Num_Not_Resolved_Atoms>  (435) 
nan

$$$$
CHEMBL3662893
     RDKit          3D

  0  0  0  0  0  0  0  0  0  0999 V3000
M  V30 BEGIN CTAB
M  V30 COUNTS 79 83 0 0 0
M  V30 BEGIN ATOM
M  V30 1 C 3.757444 3.129228 7.762444 0
M  V30 2 C 2.566565 2.384982 7.183706 0
M  V30 3 C 2.236662 2.886467 5.819326 0
M  V30 4 N 1.369087 3.908081 5.605011 0
M  V30 5 C 1.324622 4.078046 4.259044 0
M  V30 6 C 0.566979 5.025913 3.433552 0
M  V30 7 C 2.150287 3.174931 3.678381 0
M  V30 8 C 2.584066 2.790831 2.345634 0
M  V30 9 O 3.405857 1.864743 2.024287 0
M  V30 10 N 2.157632 3.394409 1.144183 0
M  V30 11 C 2.716349 2.853283 -0.061068 0
M  V30 12 N 3.830414 3.218451 -0.698390 0
M  V30 13 N 3.921604 2.426876 -1.754507 0
M  V30 14 C 2.903512 1.558857 -1.825122 0
M  V30 15 C 2.097863 1.802906 -0.743300 0
M  V30 16 C 0.927444 0.882304 -0.732272 0
M  V30 17 N 1.023354 0.252968 -2.046868 0
M  V30 18 C 0.103089 -0.492221 -2.832534 0
M  V30 19 O 0.262927 -1.013239 -3.989570 0
M  V30 20 N -1.244593 -0.837731 -2.500629 0
M  V30 21 C -2.012485 -1.604580 -3.458069 0
M  V30 22 C -2.320842 -2.985552 -2.872915 0 CFG=1
M  V30 23 C -1.379564 -3.953698 -3.495718 0
M  V30 24 N -2.323416 -2.953837 -1.431736 0
M  V30 25 C -3.164470 -3.925039 -0.804295 0
M  V30 26 C -2.770694 -5.344562 -0.914890 0
M  V30 27 C -3.839001 -6.153410 -0.167221 0
M  V30 28 C -3.755490 -5.977194 1.319640 0
M  V30 29 O -2.517671 -6.440207 1.743078 0
M  V30 30 C -1.519637 -5.645623 1.236022 0
M  V30 31 C -1.449972 -5.675197 -0.274716 0
M  V30 32 C -2.956290 -1.669676 -1.079196 0
M  V30 33 C -2.000222 -0.519095 -1.283311 0 CFG=2
M  V30 34 C -2.818952 0.717273 -1.583782 0
M  V30 35 C 2.345272 0.450899 -2.635026 0
M  V30 36 C 3.116503 -0.820927 -2.359091 0
M  V30 37 C 2.279587 0.776479 -4.099833 0
M  V30 38 O 2.679659 2.474807 4.679622 0
M  V30 39 H 3.448979 4.041577 8.316737 0
M  V30 40 H 4.394348 3.406812 6.876876 0
M  V30 41 H 4.317886 2.437396 8.398196 0
M  V30 42 H 2.851846 1.310196 7.103335 0
M  V30 43 H 1.688162 2.425934 7.837333 0
M  V30 44 H -0.202981 4.547339 2.781588 0
M  V30 45 H 1.213032 5.754525 2.906352 0
M  V30 46 H -0.022064 5.666416 4.158921 0
M  V30 47 H 1.479041 4.182827 1.153092 0
M  V30 48 H 4.757117 2.570062 -2.392510 0
M  V30 49 H 0.038182 1.544589 -0.716932 0
M  V30 50 H 1.000822 0.168160 0.089254 0
M  V30 51 H -1.482228 -1.672894 -4.408450 0
M  V30 52 H -2.978952 -1.033797 -3.588677 0
M  V30 53 H -3.381543 -3.226373 -3.164561 0
M  V30 54 H -0.819267 -3.506608 -4.369575 0
M  V30 55 H -0.615312 -4.387443 -2.859430 0
M  V30 56 H -1.973040 -4.778194 -3.990088 0
M  V30 57 H -3.243871 -3.636217 0.265653 0
M  V30 58 H -4.191395 -3.836477 -1.236755 0
M  V30 59 H -2.770841 -5.734735 -1.939905 0
M  V30 60 H -4.831262 -5.762158 -0.509868 0
M  V30 61 H -3.768251 -7.215985 -0.408419 0
M  V30 62 H -4.591371 -6.561066 1.757675 0
M  V30 63 H -3.889513 -4.953188 1.675427 0
M  V30 64 H -0.555358 -6.060366 1.599049 0
M  V30 65 H -1.553595 -4.589783 1.589101 0
M  V30 66 H -0.616049 -5.037686 -0.561607 0
M  V30 67 H -1.193670 -6.719021 -0.549520 0
M  V30 68 H -3.799990 -1.554361 -1.789571 0
M  V30 69 H -3.378252 -1.694323 -0.047887 0
M  V30 70 H -1.334733 -0.382364 -0.402419 0
M  V30 71 H -3.889308 0.502574 -1.785713 0
M  V30 72 H -2.783066 1.468298 -0.764872 0
M  V30 73 H -2.459361 1.218852 -2.528850 0
M  V30 74 H 4.086596 -0.878455 -2.874969 0
M  V30 75 H 2.443158 -1.666518 -2.592582 0
M  V30 76 H 3.280105 -0.868915 -1.250618 0
M  V30 77 H 3.128270 1.422933 -4.427117 0
M  V30 78 H 1.314583 1.250190 -4.394486 0
M  V30 79 H 2.350125 -0.178982 -4.639276 0
M  V30 END ATOM
M  V30 BEGIN BOND
M  V30 1 1 1 2
M  V30 2 1 2 3
M  V30 3 2 3 4
M  V30 4 1 4 5
M  V30 5 1 5 6
M  V30 6 2 5 7
M  V30 7 1 7 8
M  V30 8 2 8 9
M  V30 9 1 8 10
M  V30 10 1 10 11
M  V30 11 2 11 12
M  V30 12 1 12 13
M  V30 13 1 13 14
M  V30 14 2 14 15
M  V30 15 1 15 16
M  V30 16 1 16 17
M  V30 17 1 17 18
M  V30 18 2 18 19
M  V30 19 1 18 20
M  V30 20 1 20 21
M  V30 21 1 21 22
M  V30 22 1 22 23
M  V30 23 1 22 24
M  V30 24 1 24 25
M  V30 25 1 25 26
M  V30 26 1 26 27
M  V30 27 1 27 28
M  V30 28 1 28 29
M  V30 29 1 29 30
M  V30 30 1 30 31
M  V30 31 1 24 32
M  V30 32 1 32 33
M  V30 33 1 33 34
M  V30 34 1 17 35
M  V30 35 1 35 36
M  V30 36 1 35 37
M  V30 37 1 7 38
M  V30 38 1 38 3
M  V30 39 1 15 11
M  V30 40 1 33 20
M  V30 41 1 35 14
M  V30 42 1 31 26
M  V30 43 1 1 39
M  V30 44 1 1 40
M  V30 45 1 1 41
M  V30 46 1 2 42
M  V30 47 1 2 43
M  V30 48 1 6 44
M  V30 49 1 6 45
M  V30 50 1 6 46
M  V30 51 1 10 47
M  V30 52 1 13 48
M  V30 53 1 16 49
M  V30 54 1 16 50
M  V30 55 1 21 51
M  V30 56 1 21 52
M  V30 57 1 22 53 CFG=3
M  V30 58 1 23 54
M  V30 59 1 23 55
M  V30 60 1 23 56
M  V30 61 1 25 57
M  V30 62 1 25 58
M  V30 63 1 26 59
M  V30 64 1 27 60
M  V30 65 1 27 61
M  V30 66 1 28 62
M  V30 67 1 28 63
M  V30 68 1 30 64
M  V30 69 1 30 65
M  V30 70 1 31 66
M  V30 71 1 31 67
M  V30 72 1 32 68
M  V30 73 1 32 69
M  V30 74 1 33 70 CFG=1
M  V30 75 1 34 71
M  V30 76 1 34 72
M  V30 77 1 34 73
M  V30 78 1 36 74
M  V30 79 1 36 75
M  V30 80 1 36 76
M  V30 81 1 37 77
M  V30 82 1 37 78
M  V30 83 1 37 79
M  V30 END BOND
M  V30 END CTAB
M  END
>  <Dataset>  (436) 
ChEMBL_Kinases

>  <Ligand_Instance>  (436) 
nan

>  <PDB_ID>  (436) 
nan

>  <Standardized_SMILES>  (436) 
CCc1nc(C)c(C(=O)Nc2n[nH]c3c2CN(C(=O)N2C[C@@H](C)N(CC4CCOCC4)C[C@@H]2C)C3(C)C)o1

>  <Name>  (436) 
nan

>  <Pocket>  (436) 
nan

>  <ATP_Site>  (436) 
nan

>  <Peripheral>  (436) 
nan

>  <Num_H_Atoms_ProtBoundConf>  (436) 
nan

>  <Num_Resolved_Atoms>  (436) 
nan

>  <Num_Not_Resolved_Atoms>  (436) 
nan

$$$$
CHEMBL3662892
     RDKit          3D

  0  0  0  0  0  0  0  0  0  0999 V3000
M  V30 BEGIN CTAB
M  V30 COUNTS 74 78 0 0 0
M  V30 BEGIN ATOM
M  V30 1 C 4.513843 -3.538671 0.951703 0
M  V30 2 C 3.322709 -2.879062 1.536205 0 CFG=2
M  V30 3 C 2.064372 -3.421707 0.856289 0
M  V30 4 N 1.062157 -2.411626 0.727809 0
M  V30 5 C 0.281490 -2.302887 -0.432770 0
M  V30 6 O 0.852575 -3.276433 -0.961652 0
M  V30 7 N -0.743113 -1.562157 -1.033312 0
M  V30 8 C -1.577480 -0.424840 -0.722645 0
M  V30 9 C -2.927781 -0.902165 -0.959892 0
M  V30 10 C -4.274528 -0.859098 -0.598301 0
M  V30 11 N -4.715453 -0.031340 0.470302 0
M  V30 12 C -5.160323 1.330935 0.379571 0
M  V30 13 O -5.210975 1.970408 -0.704296 0
M  V30 14 C -5.568842 1.982729 1.626041 0
M  V30 15 C -5.592647 1.471413 2.909356 0
M  V30 16 N -6.038328 2.417030 3.755967 0
M  V30 17 C -6.226315 2.328834 5.191199 0
M  V30 18 C -6.302309 3.525684 3.048083 0
M  V30 19 N -6.011526 3.248568 1.747013 0
M  V30 20 N -4.918612 -1.709403 -1.438998 0
M  V30 21 N -4.061824 -2.260512 -2.278126 0
M  V30 22 C -2.814660 -1.784030 -2.011669 0
M  V30 23 C -1.340026 -1.772437 -2.329710 0
M  V30 24 C -0.913548 -3.125621 -2.848744 0
M  V30 25 C -1.116173 -0.677776 -3.315135 0
M  V30 26 C 0.949775 -1.551719 1.905960 0 CFG=1
M  V30 27 C 0.593407 -2.409914 3.124407 0
M  V30 28 C 2.264112 -0.821153 2.119195 0
M  V30 29 N 3.304146 -1.464983 1.454268 0
M  V30 30 C 4.169307 -0.815605 0.593595 0
M  V30 31 C 3.687235 -0.309140 -0.714853 0
M  V30 32 C 2.582266 0.717594 -0.649367 0
M  V30 33 C 2.396198 1.391736 -2.003028 0
M  V30 34 O 2.914415 0.548391 -2.977376 0
M  V30 35 C 4.309068 0.540951 -2.939754 0
M  V30 36 C 4.811310 0.372546 -1.509480 0
M  V30 37 H 5.461491 -3.323570 1.443714 0
M  V30 38 H 4.387066 -4.649874 0.995085 0
M  V30 39 H 4.516216 -3.323817 -0.158101 0
M  V30 40 H 3.243218 -3.171495 2.602543 0
M  V30 41 H 2.344549 -3.929158 -0.098013 0
M  V30 42 H 1.640069 -4.267407 1.477738 0
M  V30 43 H -1.287772 0.355668 -1.491195 0
M  V30 44 H -1.399566 0.054677 0.235515 0
M  V30 45 H -4.700393 -0.498294 1.406166 0
M  V30 46 H -5.295548 0.467241 3.167568 0
M  V30 47 H -5.442862 1.637261 5.590536 0
M  V30 48 H -6.199545 3.312682 5.665054 0
M  V30 49 H -7.193526 1.792160 5.415764 0
M  V30 50 H -6.673978 4.507687 3.328459 0
M  V30 51 H -4.254610 -2.950552 -3.036533 0
M  V30 52 H -1.033516 -3.928741 -2.099961 0
M  V30 53 H -1.464055 -3.393964 -3.785067 0
M  V30 54 H 0.150748 -3.090880 -3.141561 0
M  V30 55 H -0.160750 -0.123017 -3.111285 0
M  V30 56 H -1.914492 0.060519 -3.397888 0
M  V30 57 H -1.015694 -1.166835 -4.329805 0
M  V30 58 H 0.108269 -0.873123 1.777795 0
M  V30 59 H -0.307574 -2.023128 3.657591 0
M  V30 60 H 1.405483 -2.355785 3.893009 0
M  V30 61 H 0.344474 -3.419591 2.796774 0
M  V30 62 H 2.210401 0.252136 1.952327 0
M  V30 63 H 2.450781 -0.912756 3.239250 0
M  V30 64 H 4.560142 0.096459 1.149761 0
M  V30 65 H 5.135242 -1.366254 0.381819 0
M  V30 66 H 3.299246 -1.119975 -1.377369 0
M  V30 67 H 2.850962 1.535967 0.082443 0
M  V30 68 H 1.620667 0.296334 -0.351237 0
M  V30 69 H 1.319275 1.505424 -2.171808 0
M  V30 70 H 2.876927 2.392584 -2.019930 0
M  V30 71 H 4.635659 -0.341191 -3.516007 0
M  V30 72 H 4.700396 1.486260 -3.347912 0
M  V30 73 H 5.029069 1.342677 -1.048160 0
M  V30 74 H 5.725823 -0.216075 -1.553468 0
M  V30 END ATOM
M  V30 BEGIN BOND
M  V30 1 1 1 2
M  V30 2 1 2 3
M  V30 3 1 3 4
M  V30 4 1 4 5
M  V30 5 2 5 6
M  V30 6 1 5 7
M  V30 7 1 7 8
M  V30 8 1 8 9
M  V30 9 1 9 10
M  V30 10 1 10 11
M  V30 11 1 11 12
M  V30 12 2 12 13
M  V30 13 1 12 14
M  V30 14 2 14 15
M  V30 15 1 15 16
M  V30 16 1 16 17
M  V30 17 1 16 18
M  V30 18 2 18 19
M  V30 19 2 10 20
M  V30 20 1 20 21
M  V30 21 1 21 22
M  V30 22 1 22 23
M  V30 23 1 23 24
M  V30 24 1 23 25
M  V30 25 1 4 26
M  V30 26 1 26 27
M  V30 27 1 26 28
M  V30 28 1 28 29
M  V30 29 1 29 30
M  V30 30 1 30 31
M  V30 31 1 31 32
M  V30 32 1 32 33
M  V30 33 1 33 34
M  V30 34 1 34 35
M  V30 35 1 35 36
M  V30 36 1 29 2
M  V30 37 1 36 31
M  V30 38 1 23 7
M  V30 39 2 22 9
M  V30 40 1 19 14
M  V30 41 1 1 37
M  V30 42 1 1 38
M  V30 43 1 1 39
M  V30 44 1 2 40 CFG=1
M  V30 45 1 3 41
M  V30 46 1 3 42
M  V30 47 1 8 43
M  V30 48 1 8 44
M  V30 49 1 11 45
M  V30 50 1 15 46
M  V30 51 1 17 47
M  V30 52 1 17 48
M  V30 53 1 17 49
M  V30 54 1 18 50
M  V30 55 1 21 51
M  V30 56 1 24 52
M  V30 57 1 24 53
M  V30 58 1 24 54
M  V30 59 1 25 55
M  V30 60 1 25 56
M  V30 61 1 25 57
M  V30 62 1 26 58 CFG=3
M  V30 63 1 27 59
M  V30 64 1 27 60
M  V30 65 1 27 61
M  V30 66 1 28 62
M  V30 67 1 28 63
M  V30 68 1 30 64
M  V30 69 1 30 65
M  V30 70 1 31 66
M  V30 71 1 32 67
M  V30 72 1 32 68
M  V30 73 1 33 69
M  V30 74 1 33 70
M  V30 75 1 35 71
M  V30 76 1 35 72
M  V30 77 1 36 73
M  V30 78 1 36 74
M  V30 END BOND
M  V30 END CTAB
M  END
>  <Dataset>  (437) 
ChEMBL_Kinases

>  <Ligand_Instance>  (437) 
nan

>  <PDB_ID>  (437) 
nan

>  <Standardized_SMILES>  (437) 
C[C@@H]1CN(C(=O)N2Cc3c(NC(=O)c4cn(C)cn4)n[nH]c3C2(C)C)[C@@H](C)CN1CC1CCOCC1

>  <Name>  (437) 
nan

>  <Pocket>  (437) 
nan

>  <ATP_Site>  (437) 
nan

>  <Peripheral>  (437) 
nan

>  <Num_H_Atoms_ProtBoundConf>  (437) 
nan

>  <Num_Resolved_Atoms>  (437) 
nan

>  <Num_Not_Resolved_Atoms>  (437) 
nan

$$$$
CHEMBL3662891
     RDKit          3D

  0  0  0  0  0  0  0  0  0  0999 V3000
M  V30 BEGIN CTAB
M  V30 COUNTS 61 65 0 0 0
M  V30 BEGIN ATOM
M  V30 1 C 4.451677 -1.431312 -0.797175 0
M  V30 2 C 3.738923 -1.272477 0.500237 0 CFG=1
M  V30 3 C 4.413465 -0.248713 1.406744 0
M  V30 4 N 3.558867 0.065674 2.519853 0
M  V30 5 C 4.238210 0.189799 3.783118 0
M  V30 6 C 3.045733 0.224379 4.741891 0
M  V30 7 C 2.009046 -0.674088 4.086088 0
M  V30 8 C 2.678027 -1.054239 2.778249 0 CFG=1
M  V30 9 C 1.667773 -1.219575 1.665901 0
M  V30 10 N 2.355906 -0.859924 0.413321 0
M  V30 11 C 1.825149 -0.221638 -0.770891 0
M  V30 12 O 2.698066 0.006070 -1.677040 0
M  V30 13 N 0.445501 0.152233 -0.979800 0
M  V30 14 C -0.762198 0.011551 -0.179523 0
M  V30 15 C -1.827774 0.292516 -1.170019 0
M  V30 16 C -3.185635 0.205197 -1.212578 0
M  V30 17 N -4.121518 -0.229121 -0.203369 0
M  V30 18 C -4.322669 -1.627573 -0.337138 0
M  V30 19 O -3.601893 -2.036345 -1.313475 0
M  V30 20 C -5.171586 -2.483902 0.453586 0
M  V30 21 C -5.993905 -2.202260 1.521387 0
M  V30 22 F -6.002225 -0.901365 1.884915 0
M  V30 23 C -6.747474 -3.151142 2.172112 0
M  V30 24 C -6.718393 -4.470942 1.778662 0
M  V30 25 C -5.906919 -4.780094 0.716446 0
M  V30 26 F -5.876320 -6.069171 0.329619 0
M  V30 27 C -5.153415 -3.828753 0.066469 0
M  V30 28 F -4.394868 -4.272180 -0.968662 0
M  V30 29 N -3.517768 0.628914 -2.457632 0
M  V30 30 N -2.415658 0.944167 -3.100804 0
M  V30 31 C -1.330020 0.758867 -2.358948 0
M  V30 32 C 0.136122 0.831740 -2.250144 0
M  V30 33 C 0.540980 2.279557 -2.198507 0
M  V30 34 C 0.829329 0.063335 -3.348853 0
M  V30 35 H 5.313952 -2.123717 -0.611423 0
M  V30 36 H 4.866678 -0.510168 -1.237015 0
M  V30 37 H 3.813085 -1.982677 -1.513619 0
M  V30 38 H 3.826773 -2.259403 1.033603 0
M  V30 39 H 5.365789 -0.634257 1.791559 0
M  V30 40 H 4.623374 0.647586 0.806351 0
M  V30 41 H 4.850368 -0.682327 4.063358 0
M  V30 42 H 4.832912 1.111938 3.882371 0
M  V30 43 H 3.307490 -0.083306 5.756433 0
M  V30 44 H 2.681107 1.269875 4.749003 0
M  V30 45 H 1.035686 -0.194625 3.967925 0
M  V30 46 H 1.972598 -1.595431 4.723570 0
M  V30 47 H 3.281730 -1.963426 2.925620 0
M  V30 48 H 0.762709 -0.619685 1.843203 0
M  V30 49 H 1.401450 -2.284597 1.591878 0
M  V30 50 H -0.883238 -1.000179 0.259992 0
M  V30 51 H -0.745924 0.740263 0.634288 0
M  V30 52 H -4.639984 0.263368 0.552829 0
M  V30 53 H -7.359157 -2.822075 2.999027 0
M  V30 54 H -7.298856 -5.236023 2.270837 0
M  V30 55 H -2.470662 1.295376 -4.086639 0
M  V30 56 H 0.731248 2.668706 -3.220107 0
M  V30 57 H -0.225324 2.852005 -1.635167 0
M  V30 58 H 1.511717 2.363365 -1.651267 0
M  V30 59 H 1.060715 -0.979087 -3.021314 0
M  V30 60 H 0.064174 -0.072730 -4.164643 0
M  V30 61 H 1.709241 0.551432 -3.769262 0
M  V30 END ATOM
M  V30 BEGIN BOND
M  V30 1 1 1 2
M  V30 2 1 2 3
M  V30 3 1 3 4
M  V30 4 1 4 5
M  V30 5 1 5 6
M  V30 6 1 6 7
M  V30 7 1 7 8
M  V30 8 1 8 9
M  V30 9 1 9 10
M  V30 10 1 10 11
M  V30 11 2 11 12
M  V30 12 1 11 13
M  V30 13 1 13 14
M  V30 14 1 14 15
M  V30 15 1 15 16
M  V30 16 1 16 17
M  V30 17 1 17 18
M  V30 18 2 18 19
M  V30 19 1 18 20
M  V30 20 2 20 21
M  V30 21 1 21 22
M  V30 22 1 21 23
M  V30 23 2 23 24
M  V30 24 1 24 25
M  V30 25 1 25 26
M  V30 26 2 25 27
M  V30 27 1 27 28
M  V30 28 2 16 29
M  V30 29 1 29 30
M  V30 30 1 30 31
M  V30 31 1 31 32
M  V30 32 1 32 33
M  V30 33 1 32 34
M  V30 34 1 10 2
M  V30 35 1 32 13
M  V30 36 1 8 4
M  V30 37 2 31 15
M  V30 38 1 27 20
M  V30 39 1 1 35
M  V30 40 1 1 36
M  V30 41 1 1 37
M  V30 42 1 2 38 CFG=1
M  V30 43 1 3 39
M  V30 44 1 3 40
M  V30 45 1 5 41
M  V30 46 1 5 42
M  V30 47 1 6 43
M  V30 48 1 6 44
M  V30 49 1 7 45
M  V30 50 1 7 46
M  V30 51 1 8 47 CFG=1
M  V30 52 1 9 48
M  V30 53 1 9 49
M  V30 54 1 14 50
M  V30 55 1 14 51
M  V30 56 1 17 52
M  V30 57 1 23 53
M  V30 58 1 24 54
M  V30 59 1 30 55
M  V30 60 1 33 56
M  V30 61 1 33 57
M  V30 62 1 33 58
M  V30 63 1 34 59
M  V30 64 1 34 60
M  V30 65 1 34 61
M  V30 END BOND
M  V30 END CTAB
M  END
>  <Dataset>  (438) 
ChEMBL_Kinases

>  <Ligand_Instance>  (438) 
nan

>  <PDB_ID>  (438) 
nan

>  <Standardized_SMILES>  (438) 
C[C@H]1CN2CCC[C@H]2CN1C(=O)N1Cc2c(NC(=O)c3c(F)ccc(F)c3F)n[nH]c2C1(C)C

>  <Name>  (438) 
nan

>  <Pocket>  (438) 
nan

>  <ATP_Site>  (438) 
nan

>  <Peripheral>  (438) 
nan

>  <Num_H_Atoms_ProtBoundConf>  (438) 
nan

>  <Num_Resolved_Atoms>  (438) 
nan

>  <Num_Not_Resolved_Atoms>  (438) 
nan

$$$$
CHEMBL3662890
     RDKit          3D

  0  0  0  0  0  0  0  0  0  0999 V3000
M  V30 BEGIN CTAB
M  V30 COUNTS 64 69 0 0 0
M  V30 BEGIN ATOM
M  V30 1 C 3.942923 1.987227 2.726889 0
M  V30 2 C 3.675214 0.838069 1.756643 0 CFG=1
M  V30 3 C 3.771137 -0.456088 2.581156 0
M  V30 4 N 3.372622 -1.588076 1.796680 0
M  V30 5 C 4.338009 -2.636148 1.691365 0
M  V30 6 C 3.908501 -3.428448 0.456516 0
M  V30 7 C 2.851101 -2.541962 -0.213690 0
M  V30 8 C 3.206661 -1.198923 0.394361 0 CFG=1
M  V30 9 C 2.049440 -0.244754 0.349970 0
M  V30 10 N 2.394677 0.941476 1.117802 0
M  V30 11 C 1.437987 1.991041 1.118123 0
M  V30 12 O 1.883134 2.940269 1.807889 0
M  V30 13 N 0.168359 2.073027 0.489307 0
M  V30 14 C -0.752816 1.315497 -0.354769 0
M  V30 15 C -2.038366 1.369168 0.358505 0
M  V30 16 C -3.252298 0.759971 0.701543 0
M  V30 17 N -3.549705 -0.543142 0.209372 0
M  V30 18 C -3.200467 -1.742689 0.900033 0
M  V30 19 O -2.591158 -1.666779 2.015615 0
M  V30 20 C -3.578959 -3.017717 0.257632 0
M  V30 21 C -4.238552 -3.205458 -0.945163 0
M  V30 22 C -4.332998 -4.575519 -1.062776 0
M  V30 23 C -4.982423 -5.271208 -2.226257 0
M  V30 24 C -4.041982 -6.318921 -2.870228 0
M  V30 25 C -5.290658 -6.700735 -2.171646 0
M  V30 26 O -3.779259 -5.162759 -0.022719 0
M  V30 27 N -3.311875 -4.242514 0.797576 0
M  V30 28 N -3.907216 1.633828 1.487188 0
M  V30 29 N -3.177993 2.733749 1.647712 0
M  V30 30 C -2.006369 2.604802 0.958626 0
M  V30 31 C -0.695715 3.205695 0.561054 0
M  V30 32 C -0.770799 3.854667 -0.798911 0
M  V30 33 C -0.331737 4.191728 1.640754 0
M  V30 34 H 3.154227 2.049716 3.500902 0
M  V30 35 H 4.899954 1.762594 3.290445 0
M  V30 36 H 4.150689 2.916417 2.182487 0
M  V30 37 H 4.520965 0.830789 1.011642 0
M  V30 38 H 4.816337 -0.523112 2.955479 0
M  V30 39 H 3.049051 -0.333619 3.422731 0
M  V30 40 H 5.336389 -2.182472 1.559688 0
M  V30 41 H 4.372554 -3.272671 2.590990 0
M  V30 42 H 4.788004 -3.528816 -0.197415 0
M  V30 43 H 3.472891 -4.395561 0.753593 0
M  V30 44 H 1.875868 -2.837509 0.196098 0
M  V30 45 H 2.944815 -2.551747 -1.301814 0
M  V30 46 H 4.130851 -0.834205 -0.060377 0
M  V30 47 H 1.208044 -0.730563 0.867760 0
M  V30 48 H 1.847978 0.019342 -0.715474 0
M  V30 49 H -0.814377 1.714372 -1.389618 0
M  V30 50 H -0.483387 0.255312 -0.462924 0
M  V30 51 H -4.056550 -0.521836 -0.721986 0
M  V30 52 H -4.582858 -2.426688 -1.608649 0
M  V30 53 H -5.385982 -4.574816 -2.992683 0
M  V30 54 H -3.991584 -6.394639 -3.954956 0
M  V30 55 H -3.098326 -6.556652 -2.364835 0
M  V30 56 H -6.108365 -7.073876 -2.816384 0
M  V30 57 H -5.235358 -7.187490 -1.177217 0
M  V30 58 H -3.438010 3.580848 2.209420 0
M  V30 59 H 0.059255 3.542616 -1.434870 0
M  V30 60 H -0.865934 4.963846 -0.716767 0
M  V30 61 H -1.716775 3.526162 -1.272343 0
M  V30 62 H 0.556423 4.758279 1.314526 0
M  V30 63 H -1.183330 4.904053 1.734799 0
M  V30 64 H -0.181414 3.618174 2.575317 0
M  V30 END ATOM
M  V30 BEGIN BOND
M  V30 1 1 1 2
M  V30 2 1 2 3
M  V30 3 1 3 4
M  V30 4 1 4 5
M  V30 5 1 5 6
M  V30 6 1 6 7
M  V30 7 1 7 8
M  V30 8 1 8 9
M  V30 9 1 9 10
M  V30 10 1 10 11
M  V30 11 2 11 12
M  V30 12 1 11 13
M  V30 13 1 13 14
M  V30 14 1 14 15
M  V30 15 1 15 16
M  V30 16 1 16 17
M  V30 17 1 17 18
M  V30 18 2 18 19
M  V30 19 1 18 20
M  V30 20 1 20 21
M  V30 21 2 21 22
M  V30 22 1 22 23
M  V30 23 1 23 24
M  V30 24 1 24 25
M  V30 25 1 22 26
M  V30 26 1 26 27
M  V30 27 2 16 28
M  V30 28 1 28 29
M  V30 29 1 29 30
M  V30 30 1 30 31
M  V30 31 1 31 32
M  V30 32 1 31 33
M  V30 33 1 10 2
M  V30 34 1 31 13
M  V30 35 1 8 4
M  V30 36 2 30 15
M  V30 37 2 27 20
M  V30 38 1 25 23
M  V30 39 1 1 34
M  V30 40 1 1 35
M  V30 41 1 1 36
M  V30 42 1 2 37 CFG=3
M  V30 43 1 3 38
M  V30 44 1 3 39
M  V30 45 1 5 40
M  V30 46 1 5 41
M  V30 47 1 6 42
M  V30 48 1 6 43
M  V30 49 1 7 44
M  V30 50 1 7 45
M  V30 51 1 8 46 CFG=3
M  V30 52 1 9 47
M  V30 53 1 9 48
M  V30 54 1 14 49
M  V30 55 1 14 50
M  V30 56 1 17 51
M  V30 57 1 21 52
M  V30 58 1 23 53
M  V30 59 1 24 54
M  V30 60 1 24 55
M  V30 61 1 25 56
M  V30 62 1 25 57
M  V30 63 1 29 58
M  V30 64 1 32 59
M  V30 65 1 32 60
M  V30 66 1 32 61
M  V30 67 1 33 62
M  V30 68 1 33 63
M  V30 69 1 33 64
M  V30 END BOND
M  V30 END CTAB
M  END
>  <Dataset>  (439) 
ChEMBL_Kinases

>  <Ligand_Instance>  (439) 
nan

>  <PDB_ID>  (439) 
nan

>  <Standardized_SMILES>  (439) 
C[C@H]1CN2CCC[C@H]2CN1C(=O)N1Cc2c(NC(=O)c3cc(C4CC4)on3)n[nH]c2C1(C)C

>  <Name>  (439) 
nan

>  <Pocket>  (439) 
nan

>  <ATP_Site>  (439) 
nan

>  <Peripheral>  (439) 
nan

>  <Num_H_Atoms_ProtBoundConf>  (439) 
nan

>  <Num_Resolved_Atoms>  (439) 
nan

>  <Num_Not_Resolved_Atoms>  (439) 
nan

$$$$
CHEMBL3662872
     RDKit          3D

  0  0  0  0  0  0  0  0  0  0999 V3000
M  V30 BEGIN CTAB
M  V30 COUNTS 55 58 0 0 0
M  V30 BEGIN ATOM
M  V30 1 C -0.079676 -0.918700 -3.880510 0
M  V30 2 N 0.802449 -1.086974 -2.740583 0
M  V30 3 C 0.418910 -0.080878 -1.761924 0
M  V30 4 C 1.666605 0.201393 -0.956457 0
M  V30 5 C 2.526055 -0.990171 -0.826943 0
M  V30 6 F 3.548891 -0.705614 0.084348 0
M  V30 7 C 1.956157 -2.262819 -0.445842 0
M  V30 8 O 2.011800 -3.305350 -1.193563 0
M  V30 9 N 1.286754 -2.458513 0.793255 0
M  V30 10 C 0.951909 -1.662133 1.963225 0
M  V30 11 C -0.478269 -1.903490 2.179949 0
M  V30 12 C -1.698504 -1.401116 2.606188 0
M  V30 13 N -1.929533 -0.076675 3.105494 0
M  V30 14 C -2.276260 0.881799 2.114157 0
M  V30 15 O -2.344975 0.483540 0.922876 0
M  V30 16 C -2.552351 2.283827 2.405301 0
M  V30 17 C -2.876144 3.093387 1.336675 0
M  V30 18 C -3.146263 4.429062 1.560737 0
M  V30 19 C -3.085878 4.921909 2.847738 0
M  V30 20 Cl -3.431587 6.612655 3.103462 0
M  V30 21 C -2.763099 4.123551 3.927697 0
M  V30 22 Cl -2.716083 4.853699 5.515498 0
M  V30 23 C -2.496077 2.788320 3.681039 0
M  V30 24 N -2.597885 -2.398279 2.454748 0
M  V30 25 N -1.998437 -3.477671 1.961859 0
M  V30 26 C -0.709828 -3.204024 1.785547 0
M  V30 27 C 0.653170 -3.642634 1.351031 0
M  V30 28 C 0.487784 -4.685880 0.266806 0
M  V30 29 C 1.359879 -4.170286 2.553768 0
M  V30 30 C 3.212317 -1.186702 -2.189511 0
M  V30 31 C 2.139513 -0.831009 -3.216258 0
M  V30 32 H -1.088498 -1.229091 -3.556336 0
M  V30 33 H 0.282172 -1.497050 -4.755098 0
M  V30 34 H -0.079334 0.155762 -4.186013 0
M  V30 35 H -0.430790 -0.403031 -1.144038 0
M  V30 36 H 0.097502 0.830228 -2.307446 0
M  V30 37 H 1.488623 0.794708 -0.043237 0
M  V30 38 H 2.237483 0.937294 -1.603509 0
M  V30 39 H 1.605244 -2.016780 2.786475 0
M  V30 40 H 1.091510 -0.595655 1.861860 0
M  V30 41 H -1.863403 0.208431 4.085950 0
M  V30 42 H -2.930739 2.725345 0.304122 0
M  V30 43 H -3.407191 5.103374 0.736576 0
M  V30 44 H -2.243520 2.162941 4.524748 0
M  V30 45 H -2.404957 -4.422446 1.725192 0
M  V30 46 H -0.027415 -4.271890 -0.606367 0
M  V30 47 H -0.223485 -5.446975 0.703382 0
M  V30 48 H 1.397810 -5.215039 -0.004118 0
M  V30 49 H 0.885828 -3.798129 3.461285 0
M  V30 50 H 2.448053 -3.970529 2.569450 0
M  V30 51 H 1.218849 -5.270813 2.552230 0
M  V30 52 H 4.045233 -0.468627 -2.326809 0
M  V30 53 H 3.520279 -2.228365 -2.339100 0
M  V30 54 H 2.291239 -1.482990 -4.122444 0
M  V30 55 H 2.193246 0.234167 -3.519318 0
M  V30 END ATOM
M  V30 BEGIN BOND
M  V30 1 1 1 2
M  V30 2 1 2 3
M  V30 3 1 3 4
M  V30 4 1 4 5
M  V30 5 1 5 6
M  V30 6 1 5 7
M  V30 7 2 7 8
M  V30 8 1 7 9
M  V30 9 1 9 10
M  V30 10 1 10 11
M  V30 11 1 11 12
M  V30 12 1 12 13
M  V30 13 1 13 14
M  V30 14 2 14 15
M  V30 15 1 14 16
M  V30 16 2 16 17
M  V30 17 1 17 18
M  V30 18 2 18 19
M  V30 19 1 19 20
M  V30 20 1 19 21
M  V30 21 1 21 22
M  V30 22 2 21 23
M  V30 23 2 12 24
M  V30 24 1 24 25
M  V30 25 1 25 26
M  V30 26 1 26 27
M  V30 27 1 27 28
M  V30 28 1 27 29
M  V30 29 1 5 30
M  V30 30 1 30 31
M  V30 31 1 31 2
M  V30 32 1 27 9
M  V30 33 2 26 11
M  V30 34 1 23 16
M  V30 35 1 1 32
M  V30 36 1 1 33
M  V30 37 1 1 34
M  V30 38 1 3 35
M  V30 39 1 3 36
M  V30 40 1 4 37
M  V30 41 1 4 38
M  V30 42 1 10 39
M  V30 43 1 10 40
M  V30 44 1 13 41
M  V30 45 1 17 42
M  V30 46 1 18 43
M  V30 47 1 23 44
M  V30 48 1 25 45
M  V30 49 1 28 46
M  V30 50 1 28 47
M  V30 51 1 28 48
M  V30 52 1 29 49
M  V30 53 1 29 50
M  V30 54 1 29 51
M  V30 55 1 30 52
M  V30 56 1 30 53
M  V30 57 1 31 54
M  V30 58 1 31 55
M  V30 END BOND
M  V30 END CTAB
M  END
>  <Dataset>  (440) 
ChEMBL_Kinases

>  <Ligand_Instance>  (440) 
nan

>  <PDB_ID>  (440) 
nan

>  <Standardized_SMILES>  (440) 
CN1CCC(F)(C(=O)N2Cc3c(NC(=O)c4ccc(Cl)c(Cl)c4)n[nH]c3C2(C)C)CC1

>  <Name>  (440) 
nan

>  <Pocket>  (440) 
nan

>  <ATP_Site>  (440) 
nan

>  <Peripheral>  (440) 
nan

>  <Num_H_Atoms_ProtBoundConf>  (440) 
nan

>  <Num_Resolved_Atoms>  (440) 
nan

>  <Num_Not_Resolved_Atoms>  (440) 
nan

$$$$
CHEMBL3662873
     RDKit          3D

  0  0  0  0  0  0  0  0  0  0999 V3000
M  V30 BEGIN CTAB
M  V30 COUNTS 61 64 0 0 0
M  V30 BEGIN ATOM
M  V30 1 C 4.369258 0.428645 4.043346 0
M  V30 2 C 3.764240 -0.934650 4.142186 0
M  V30 3 N 3.018515 -1.342784 2.990259 0
M  V30 4 C 3.809633 -1.572201 1.804724 0
M  V30 5 C 2.913891 -2.439255 0.903824 0 CFG=2
M  V30 6 C 3.673586 -3.049854 -0.211578 0
M  V30 7 N 1.777397 -1.646186 0.602220 0
M  V30 8 C 1.317921 -1.061159 -0.571124 0
M  V30 9 O 2.297951 -1.507060 -1.204141 0
M  V30 10 N 0.337667 -0.286773 -1.221860 0
M  V30 11 C -0.910247 0.422571 -0.964398 0
M  V30 12 C -1.812912 -0.134940 -1.995544 0
M  V30 13 C -3.123594 -0.507663 -2.304853 0
M  V30 14 N -4.181525 -0.369993 -1.360740 0
M  V30 15 C -4.540345 -1.387338 -0.433421 0
M  V30 16 O -3.879218 -2.459545 -0.460855 0
M  V30 17 C -5.633927 -1.198176 0.516411 0
M  V30 18 C -5.931661 -2.219723 1.394339 0
M  V30 19 N -6.927244 -2.157081 2.324196 0
M  V30 20 C -7.674436 -1.017907 2.392247 0
M  V30 21 C -7.383789 0.008776 1.518153 0
M  V30 22 N -6.391918 -0.066320 0.599054 0
M  V30 23 N -3.042613 -0.956052 -3.569876 0
M  V30 24 N -1.817676 -0.883028 -4.030959 0
M  V30 25 C -1.007267 -0.375649 -3.085244 0
M  V30 26 C 0.345144 0.064322 -2.609312 0
M  V30 27 C 1.419862 -0.631352 -3.422114 0
M  V30 28 C 0.460861 1.540175 -2.884090 0
M  V30 29 C 0.947446 -1.405357 1.794690 0
M  V30 30 C 1.825879 -0.602078 2.751904 0 CFG=1
M  V30 31 C 1.041076 -0.502315 4.038822 0
M  V30 32 H 3.979134 1.012014 3.185869 0
M  V30 33 H 4.221574 1.018254 4.977140 0
M  V30 34 H 5.474731 0.374052 3.895546 0
M  V30 35 H 4.530057 -1.725023 4.330249 0
M  V30 36 H 3.055050 -1.005402 5.012207 0
M  V30 37 H 4.702105 -2.133308 2.109665 0
M  V30 38 H 4.120136 -0.671637 1.268586 0
M  V30 39 H 2.577649 -3.262466 1.585696 0
M  V30 40 H 4.345587 -2.385081 -0.776865 0
M  V30 41 H 2.985471 -3.649691 -0.840595 0
M  V30 42 H 4.352089 -3.831456 0.272353 0
M  V30 43 H -0.691599 1.513801 -1.111057 0
M  V30 44 H -1.282692 0.287094 0.052059 0
M  V30 45 H -4.700536 0.550907 -1.383575 0
M  V30 46 H -5.403263 -3.181217 1.435266 0
M  V30 47 H -8.458499 -0.988763 3.135878 0
M  V30 48 H -7.976527 0.920293 1.567334 0
M  V30 49 H -1.469991 -1.160193 -4.974024 0
M  V30 50 H 1.354541 -1.727920 -3.297301 0
M  V30 51 H 2.408864 -0.267966 -3.147225 0
M  V30 52 H 1.243587 -0.466533 -4.520156 0
M  V30 53 H -0.554176 1.981663 -3.069124 0
M  V30 54 H 0.975986 1.667790 -3.879669 0
M  V30 55 H 0.984026 2.101424 -2.095583 0
M  V30 56 H 0.004456 -0.921164 1.587663 0
M  V30 57 H 0.802322 -2.401645 2.266864 0
M  V30 58 H 1.995102 0.421986 2.369064 0
M  V30 59 H -0.026241 -0.306781 3.733976 0
M  V30 60 H 1.004542 -1.492934 4.563013 0
M  V30 61 H 1.356743 0.319237 4.695910 0
M  V30 END ATOM
M  V30 BEGIN BOND
M  V30 1 1 1 2
M  V30 2 1 2 3
M  V30 3 1 3 4
M  V30 4 1 4 5
M  V30 5 1 5 6
M  V30 6 1 5 7
M  V30 7 1 7 8
M  V30 8 2 8 9
M  V30 9 1 8 10
M  V30 10 1 10 11
M  V30 11 1 11 12
M  V30 12 1 12 13
M  V30 13 1 13 14
M  V30 14 1 14 15
M  V30 15 2 15 16
M  V30 16 1 15 17
M  V30 17 2 17 18
M  V30 18 1 18 19
M  V30 19 2 19 20
M  V30 20 1 20 21
M  V30 21 2 21 22
M  V30 22 2 13 23
M  V30 23 1 23 24
M  V30 24 1 24 25
M  V30 25 1 25 26
M  V30 26 1 26 27
M  V30 27 1 26 28
M  V30 28 1 7 29
M  V30 29 1 29 30
M  V30 30 1 30 31
M  V30 31 1 30 3
M  V30 32 1 26 10
M  V30 33 2 25 12
M  V30 34 1 22 17
M  V30 35 1 1 32
M  V30 36 1 1 33
M  V30 37 1 1 34
M  V30 38 1 2 35
M  V30 39 1 2 36
M  V30 40 1 4 37
M  V30 41 1 4 38
M  V30 42 1 5 39 CFG=1
M  V30 43 1 6 40
M  V30 44 1 6 41
M  V30 45 1 6 42
M  V30 46 1 11 43
M  V30 47 1 11 44
M  V30 48 1 14 45
M  V30 49 1 18 46
M  V30 50 1 20 47
M  V30 51 1 21 48
M  V30 52 1 24 49
M  V30 53 1 27 50
M  V30 54 1 27 51
M  V30 55 1 27 52
M  V30 56 1 28 53
M  V30 57 1 28 54
M  V30 58 1 28 55
M  V30 59 1 29 56
M  V30 60 1 29 57
M  V30 61 1 30 58 CFG=3
M  V30 62 1 31 59
M  V30 63 1 31 60
M  V30 64 1 31 61
M  V30 END BOND
M  V30 END CTAB
M  END
>  <Dataset>  (441) 
ChEMBL_Kinases

>  <Ligand_Instance>  (441) 
nan

>  <PDB_ID>  (441) 
nan

>  <Standardized_SMILES>  (441) 
CCN1C[C@H](C)N(C(=O)N2Cc3c(NC(=O)c4cnccn4)n[nH]c3C2(C)C)C[C@H]1C

>  <Name>  (441) 
nan

>  <Pocket>  (441) 
nan

>  <ATP_Site>  (441) 
nan

>  <Peripheral>  (441) 
nan

>  <Num_H_Atoms_ProtBoundConf>  (441) 
nan

>  <Num_Resolved_Atoms>  (441) 
nan

>  <Num_Not_Resolved_Atoms>  (441) 
nan

$$$$
CHEMBL3662874
     RDKit          3D

  0  0  0  0  0  0  0  0  0  0999 V3000
M  V30 BEGIN CTAB
M  V30 COUNTS 62 65 0 0 0
M  V30 BEGIN ATOM
M  V30 1 C 3.339716 -0.154841 8.065053 0
M  V30 2 C 3.380900 -0.578008 6.625962 0
M  V30 3 N 3.691898 -1.810873 6.188640 0
M  V30 4 C 3.622067 -1.807530 4.829229 0
M  V30 5 C 3.878871 -2.918171 3.907808 0
M  V30 6 C 3.257374 -0.526752 4.468544 0
M  V30 7 C 3.067365 -0.089270 3.077583 0
M  V30 8 O 3.198611 -0.871495 2.126702 0
M  V30 9 N 2.723591 1.262140 2.792581 0
M  V30 10 C 2.591615 1.442939 1.365092 0
M  V30 11 N 3.520995 1.772489 0.452600 0
M  V30 12 N 2.978182 1.844841 -0.750998 0
M  V30 13 C 1.688626 1.554990 -0.581241 0
M  V30 14 C 1.376976 1.289718 0.738490 0
M  V30 15 C -0.066067 0.985364 0.790122 0
M  V30 16 N -0.452546 0.786175 -0.610720 0
M  V30 17 C -1.583160 0.034507 -0.886144 0
M  V30 18 O -1.778646 -0.170360 0.336658 0
M  V30 19 N -2.709824 -0.714522 -1.160816 0
M  V30 20 C -3.562219 -1.370384 -0.191323 0
M  V30 21 C -3.653680 -2.864023 -0.406175 0 CFG=1
M  V30 22 C -5.012329 -3.379113 0.094761 0
M  V30 23 N -3.512839 -3.265076 -1.750886 0
M  V30 24 C -2.596975 -4.296935 -2.058566 0
M  V30 25 C -3.762532 -2.298239 -2.743050 0
M  V30 26 C -3.215184 -0.939806 -2.499218 0 CFG=2
M  V30 27 C -2.216718 -0.602625 -3.582987 0
M  V30 28 C 0.482235 1.443230 -1.483051 0
M  V30 29 C 0.832569 0.527937 -2.664123 0
M  V30 30 C 0.108694 2.817071 -1.913719 0
M  V30 31 O 3.124792 0.167480 5.553752 0
M  V30 32 H 2.323802 -0.351164 8.511743 0
M  V30 33 H 4.105680 -0.690025 8.660516 0
M  V30 34 H 3.460033 0.953972 8.080883 0
M  V30 35 H 2.910918 -3.324127 3.549523 0
M  V30 36 H 4.451801 -2.635779 3.003164 0
M  V30 37 H 4.382517 -3.771059 4.448675 0
M  V30 38 H 2.596020 1.982867 3.542733 0
M  V30 39 H 3.540282 2.089147 -1.591645 0
M  V30 40 H -0.674939 1.833057 1.160181 0
M  V30 41 H -0.251598 0.079220 1.414096 0
M  V30 42 H -3.310494 -1.134883 0.858159 0
M  V30 43 H -4.609258 -0.982552 -0.372675 0
M  V30 44 H -2.897590 -3.343519 0.246441 0
M  V30 45 H -4.908592 -4.445236 0.373845 0
M  V30 46 H -5.696176 -3.378856 -0.789915 0
M  V30 47 H -5.411583 -2.743215 0.902423 0
M  V30 48 H -3.193014 -5.189077 -2.405783 0
M  V30 49 H -2.031130 -4.635772 -1.180695 0
M  V30 50 H -1.927259 -4.073746 -2.917445 0
M  V30 51 H -4.877784 -2.235960 -2.912937 0
M  V30 52 H -3.380075 -2.718097 -3.716588 0
M  V30 53 H -4.035785 -0.170247 -2.622531 0
M  V30 54 H -2.734041 -0.827952 -4.555169 0
M  V30 55 H -1.958869 0.464261 -3.600076 0
M  V30 56 H -1.377250 -1.304802 -3.535036 0
M  V30 57 H 0.381667 0.928129 -3.582262 0
M  V30 58 H 1.960671 0.555693 -2.746489 0
M  V30 59 H 0.585658 -0.521479 -2.435329 0
M  V30 60 H 0.567805 2.990129 -2.931381 0
M  V30 61 H -1.007519 2.886998 -2.052430 0
M  V30 62 H 0.472560 3.620978 -1.250851 0
M  V30 END ATOM
M  V30 BEGIN BOND
M  V30 1 1 1 2
M  V30 2 2 2 3
M  V30 3 1 3 4
M  V30 4 1 4 5
M  V30 5 2 4 6
M  V30 6 1 6 7
M  V30 7 2 7 8
M  V30 8 1 7 9
M  V30 9 1 9 10
M  V30 10 2 10 11
M  V30 11 1 11 12
M  V30 12 1 12 13
M  V30 13 2 13 14
M  V30 14 1 14 15
M  V30 15 1 15 16
M  V30 16 1 16 17
M  V30 17 2 17 18
M  V30 18 1 17 19
M  V30 19 1 19 20
M  V30 20 1 20 21
M  V30 21 1 21 22
M  V30 22 1 21 23
M  V30 23 1 23 24
M  V30 24 1 23 25
M  V30 25 1 25 26
M  V30 26 1 26 27
M  V30 27 1 16 28
M  V30 28 1 28 29
M  V30 29 1 28 30
M  V30 30 1 6 31
M  V30 31 1 31 2
M  V30 32 1 14 10
M  V30 33 1 26 19
M  V30 34 1 28 13
M  V30 35 1 1 32
M  V30 36 1 1 33
M  V30 37 1 1 34
M  V30 38 1 5 35
M  V30 39 1 5 36
M  V30 40 1 5 37
M  V30 41 1 9 38
M  V30 42 1 12 39
M  V30 43 1 15 40
M  V30 44 1 15 41
M  V30 45 1 20 42
M  V30 46 1 20 43
M  V30 47 1 21 44 CFG=1
M  V30 48 1 22 45
M  V30 49 1 22 46
M  V30 50 1 22 47
M  V30 51 1 24 48
M  V30 52 1 24 49
M  V30 53 1 24 50
M  V30 54 1 25 51
M  V30 55 1 25 52
M  V30 56 1 26 53 CFG=3
M  V30 57 1 27 54
M  V30 58 1 27 55
M  V30 59 1 27 56
M  V30 60 1 29 57
M  V30 61 1 29 58
M  V30 62 1 29 59
M  V30 63 1 30 60
M  V30 64 1 30 61
M  V30 65 1 30 62
M  V30 END BOND
M  V30 END CTAB
M  END
>  <Dataset>  (442) 
ChEMBL_Kinases

>  <Ligand_Instance>  (442) 
nan

>  <PDB_ID>  (442) 
nan

>  <Standardized_SMILES>  (442) 
Cc1nc(C)c(C(=O)Nc2n[nH]c3c2CN(C(=O)N2C[C@@H](C)N(C)C[C@@H]2C)C3(C)C)o1

>  <Name>  (442) 
nan

>  <Pocket>  (442) 
nan

>  <ATP_Site>  (442) 
nan

>  <Peripheral>  (442) 
nan

>  <Num_H_Atoms_ProtBoundConf>  (442) 
nan

>  <Num_Resolved_Atoms>  (442) 
nan

>  <Num_Not_Resolved_Atoms>  (442) 
nan

$$$$
CHEMBL3662875
     RDKit          3D

  0  0  0  0  0  0  0  0  0  0999 V3000
M  V30 BEGIN CTAB
M  V30 COUNTS 59 62 0 0 0
M  V30 BEGIN ATOM
M  V30 1 C 3.870775 -7.516451 4.257172 0
M  V30 2 C 3.689311 -5.989798 3.990270 0
M  V30 3 N 3.728829 -5.279104 3.090784 0
M  V30 4 C 3.539403 -3.979920 3.084656 0
M  V30 5 C 3.618356 -3.191036 1.859631 0
M  V30 6 O 3.861014 -3.628079 0.700223 0
M  V30 7 N 3.424323 -1.787371 1.823166 0
M  V30 8 C 3.506958 -1.034040 0.603933 0
M  V30 9 N 4.481596 -0.404718 -0.043007 0
M  V30 10 N 4.021619 0.146959 -1.153179 0
M  V30 11 C 2.705416 -0.105281 -1.276182 0
M  V30 12 C 2.362112 -0.848504 -0.178881 0
M  V30 13 C 0.910238 -1.133094 -0.314518 0
M  V30 14 N 0.441700 0.065220 -0.993100 0
M  V30 15 C -0.589515 1.025486 -0.832222 0
M  V30 16 O -0.597394 1.916301 -1.716142 0
M  V30 17 N -1.681270 1.380604 -0.000242 0
M  V30 18 C -2.045296 0.592174 1.190236 0
M  V30 19 C -3.391036 -0.025390 0.901383 0 CFG=1
M  V30 20 C -3.728841 -1.147233 1.830392 0
M  V30 21 N -4.372637 1.048632 0.906517 0
M  V30 22 C -5.719367 0.540632 0.817236 0
M  V30 23 C -4.061703 1.917761 -0.214962 0
M  V30 24 C -2.646567 2.439834 -0.035815 0 CFG=2
M  V30 25 C -2.334532 3.474769 -1.065274 0
M  V30 26 C 1.430039 0.045334 -2.048005 0
M  V30 27 C 1.480027 1.302189 -2.886079 0
M  V30 28 C 1.180706 -1.161315 -2.916607 0
M  V30 29 C 3.259018 -3.397556 4.305300 0
M  V30 30 S 3.301466 -4.921358 5.438196 0
M  V30 31 H 4.697080 -7.606336 4.989490 0
M  V30 32 H 4.105888 -7.883780 3.260933 0
M  V30 33 H 2.910395 -7.916269 4.633741 0
M  V30 34 H 3.210155 -1.275092 2.730520 0
M  V30 35 H 4.576626 0.695514 -1.838755 0
M  V30 36 H 0.437798 -1.331740 0.654128 0
M  V30 37 H 0.801017 -2.044354 -0.980523 0
M  V30 38 H -1.291386 -0.128993 1.488824 0
M  V30 39 H -2.158991 1.314066 2.048559 0
M  V30 40 H -3.369428 -0.471864 -0.133435 0
M  V30 41 H -4.281854 -1.974628 1.313698 0
M  V30 42 H -2.748868 -1.606622 2.142832 0
M  V30 43 H -4.255610 -0.825823 2.736210 0
M  V30 44 H -6.284354 0.944352 -0.045662 0
M  V30 45 H -6.257067 0.769307 1.769085 0
M  V30 46 H -5.670518 -0.565429 0.734555 0
M  V30 47 H -4.714557 2.808692 -0.133722 0
M  V30 48 H -4.238346 1.455876 -1.190226 0
M  V30 49 H -2.639064 2.987105 0.952577 0
M  V30 50 H -3.015325 4.371506 -0.904643 0
M  V30 51 H -1.323183 3.878278 -0.872338 0
M  V30 52 H -2.470748 3.105528 -2.094919 0
M  V30 53 H 0.624242 1.324440 -3.550661 0
M  V30 54 H 2.376151 1.160027 -3.548367 0
M  V30 55 H 1.603282 2.177196 -2.258936 0
M  V30 56 H 1.284815 -0.895852 -4.011237 0
M  V30 57 H 1.891086 -1.970805 -2.664329 0
M  V30 58 H 0.157721 -1.571907 -2.820495 0
M  V30 59 H 3.067164 -2.282980 4.477766 0
M  V30 END ATOM
M  V30 BEGIN BOND
M  V30 1 1 1 2
M  V30 2 2 2 3
M  V30 3 1 3 4
M  V30 4 1 4 5
M  V30 5 2 5 6
M  V30 6 1 5 7
M  V30 7 1 7 8
M  V30 8 2 8 9
M  V30 9 1 9 10
M  V30 10 1 10 11
M  V30 11 2 11 12
M  V30 12 1 12 13
M  V30 13 1 13 14
M  V30 14 1 14 15
M  V30 15 2 15 16
M  V30 16 1 15 17
M  V30 17 1 17 18
M  V30 18 1 18 19
M  V30 19 1 19 20
M  V30 20 1 19 21
M  V30 21 1 21 22
M  V30 22 1 21 23
M  V30 23 1 23 24
M  V30 24 1 24 25
M  V30 25 1 14 26
M  V30 26 1 26 27
M  V30 27 1 26 28
M  V30 28 2 4 29
M  V30 29 1 29 30
M  V30 30 1 30 2
M  V30 31 1 12 8
M  V30 32 1 24 17
M  V30 33 1 26 11
M  V30 34 1 1 31
M  V30 35 1 1 32
M  V30 36 1 1 33
M  V30 37 1 7 34
M  V30 38 1 10 35
M  V30 39 1 13 36
M  V30 40 1 13 37
M  V30 41 1 18 38
M  V30 42 1 18 39
M  V30 43 1 19 40 CFG=3
M  V30 44 1 20 41
M  V30 45 1 20 42
M  V30 46 1 20 43
M  V30 47 1 22 44
M  V30 48 1 22 45
M  V30 49 1 22 46
M  V30 50 1 23 47
M  V30 51 1 23 48
M  V30 52 1 24 49 CFG=1
M  V30 53 1 25 50
M  V30 54 1 25 51
M  V30 55 1 25 52
M  V30 56 1 27 53
M  V30 57 1 27 54
M  V30 58 1 27 55
M  V30 59 1 28 56
M  V30 60 1 28 57
M  V30 61 1 28 58
M  V30 62 1 29 59
M  V30 END BOND
M  V30 END CTAB
M  END
>  <Dataset>  (443) 
ChEMBL_Kinases

>  <Ligand_Instance>  (443) 
nan

>  <PDB_ID>  (443) 
nan

>  <Standardized_SMILES>  (443) 
Cc1nc(C(=O)Nc2n[nH]c3c2CN(C(=O)N2C[C@@H](C)N(C)C[C@@H]2C)C3(C)C)cs1

>  <Name>  (443) 
nan

>  <Pocket>  (443) 
nan

>  <ATP_Site>  (443) 
nan

>  <Peripheral>  (443) 
nan

>  <Num_H_Atoms_ProtBoundConf>  (443) 
nan

>  <Num_Resolved_Atoms>  (443) 
nan

>  <Num_Not_Resolved_Atoms>  (443) 
nan

$$$$
CHEMBL3662876
     RDKit          3D

  0  0  0  0  0  0  0  0  0  0999 V3000
M  V30 BEGIN CTAB
M  V30 COUNTS 59 62 0 0 0
M  V30 BEGIN ATOM
M  V30 1 C 1.672482 3.375691 4.824026 0
M  V30 2 C 1.903906 2.012920 5.356405 0
M  V30 3 N 1.776923 1.545393 6.612216 0
M  V30 4 C 2.115439 0.244036 6.510026 0
M  V30 5 O 2.422480 -0.041057 5.276827 0
M  V30 6 C 2.310385 1.029648 4.495628 0
M  V30 7 C 2.625596 0.828994 3.112338 0
M  V30 8 O 3.000985 -0.253263 2.541513 0
M  V30 9 N 2.581993 1.809481 2.087386 0
M  V30 10 C 2.966508 1.233990 0.822202 0
M  V30 11 N 4.202423 1.132891 0.251537 0
M  V30 12 N 4.060004 0.526093 -0.919255 0
M  V30 13 C 2.778395 0.211556 -1.166117 0
M  V30 14 C 2.086674 0.657878 -0.067226 0
M  V30 15 C 0.647651 0.347847 -0.251328 0
M  V30 16 N 0.597234 -0.517948 -1.420329 0
M  V30 17 C -0.430313 -1.389458 -1.939986 0
M  V30 18 O -0.194388 -2.072146 -3.001993 0
M  V30 19 N -1.740645 -1.575214 -1.363346 0
M  V30 20 C -2.362576 -0.942968 -0.193534 0
M  V30 21 C -2.432357 -1.920239 0.961281 0 CFG=1
M  V30 22 C -3.503721 -1.434043 1.901175 0
M  V30 23 N -2.729760 -3.212278 0.373865 0
M  V30 24 C -3.258663 -4.147542 1.322021 0
M  V30 25 C -3.513159 -3.082921 -0.814769 0
M  V30 26 C -2.655474 -2.529796 -1.959363 0 CFG=2
M  V30 27 C -2.002280 -3.705014 -2.601692 0
M  V30 28 C 1.861201 -0.411473 -2.141662 0
M  V30 29 C 1.762570 0.520398 -3.317374 0
M  V30 30 C 2.301178 -1.795222 -2.545724 0
M  V30 31 H 0.861095 3.378221 4.059914 0
M  V30 32 H 2.597164 3.802464 4.397091 0
M  V30 33 H 1.363782 4.037369 5.669433 0
M  V30 34 H 2.116329 -0.425377 7.358179 0
M  V30 35 H 2.303836 2.779862 2.295083 0
M  V30 36 H 4.887834 0.334995 -1.548120 0
M  V30 37 H 0.332282 -0.169292 0.679352 0
M  V30 38 H 0.054251 1.248395 -0.488742 0
M  V30 39 H -3.411066 -0.665598 -0.520553 0
M  V30 40 H -1.909174 0.026061 0.065368 0
M  V30 41 H -1.486248 -1.955932 1.501161 0
M  V30 42 H -3.390420 -0.313277 1.923320 0
M  V30 43 H -4.518164 -1.725398 1.613434 0
M  V30 44 H -3.352327 -1.757301 2.940499 0
M  V30 45 H -4.011731 -4.787015 0.829897 0
M  V30 46 H -2.423722 -4.782283 1.678612 0
M  V30 47 H -3.677736 -3.665046 2.228111 0
M  V30 48 H -4.385067 -2.419780 -0.693964 0
M  V30 49 H -3.939124 -4.071716 -1.107487 0
M  V30 50 H -3.317123 -1.961774 -2.670573 0
M  V30 51 H -1.090268 -3.968956 -2.030310 0
M  V30 52 H -2.724556 -4.564980 -2.526480 0
M  V30 53 H -1.805474 -3.567502 -3.686440 0
M  V30 54 H 2.784916 0.881235 -3.553001 0
M  V30 55 H 1.061130 1.340121 -3.089728 0
M  V30 56 H 1.437659 -0.084608 -4.190654 0
M  V30 57 H 2.189551 -1.995745 -3.626473 0
M  V30 58 H 3.407939 -1.830018 -2.339117 0
M  V30 59 H 1.862610 -2.578293 -1.903012 0
M  V30 END ATOM
M  V30 BEGIN BOND
M  V30 1 1 1 2
M  V30 2 1 2 3
M  V30 3 2 3 4
M  V30 4 1 4 5
M  V30 5 1 5 6
M  V30 6 1 6 7
M  V30 7 2 7 8
M  V30 8 1 7 9
M  V30 9 1 9 10
M  V30 10 2 10 11
M  V30 11 1 11 12
M  V30 12 1 12 13
M  V30 13 2 13 14
M  V30 14 1 14 15
M  V30 15 1 15 16
M  V30 16 1 16 17
M  V30 17 2 17 18
M  V30 18 1 17 19
M  V30 19 1 19 20
M  V30 20 1 20 21
M  V30 21 1 21 22
M  V30 22 1 21 23
M  V30 23 1 23 24
M  V30 24 1 23 25
M  V30 25 1 25 26
M  V30 26 1 26 27
M  V30 27 1 16 28
M  V30 28 1 28 29
M  V30 29 1 28 30
M  V30 30 2 6 2
M  V30 31 1 14 10
M  V30 32 1 26 19
M  V30 33 1 28 13
M  V30 34 1 1 31
M  V30 35 1 1 32
M  V30 36 1 1 33
M  V30 37 1 4 34
M  V30 38 1 9 35
M  V30 39 1 12 36
M  V30 40 1 15 37
M  V30 41 1 15 38
M  V30 42 1 20 39
M  V30 43 1 20 40
M  V30 44 1 21 41 CFG=1
M  V30 45 1 22 42
M  V30 46 1 22 43
M  V30 47 1 22 44
M  V30 48 1 24 45
M  V30 49 1 24 46
M  V30 50 1 24 47
M  V30 51 1 25 48
M  V30 52 1 25 49
M  V30 53 1 26 50 CFG=3
M  V30 54 1 27 51
M  V30 55 1 27 52
M  V30 56 1 27 53
M  V30 57 1 29 54
M  V30 58 1 29 55
M  V30 59 1 29 56
M  V30 60 1 30 57
M  V30 61 1 30 58
M  V30 62 1 30 59
M  V30 END BOND
M  V30 END CTAB
M  END
>  <Dataset>  (444) 
ChEMBL_Kinases

>  <Ligand_Instance>  (444) 
nan

>  <PDB_ID>  (444) 
nan

>  <Standardized_SMILES>  (444) 
Cc1ncoc1C(=O)Nc1n[nH]c2c1CN(C(=O)N1C[C@@H](C)N(C)C[C@@H]1C)C2(C)C

>  <Name>  (444) 
nan

>  <Pocket>  (444) 
nan

>  <ATP_Site>  (444) 
nan

>  <Peripheral>  (444) 
nan

>  <Num_H_Atoms_ProtBoundConf>  (444) 
nan

>  <Num_Resolved_Atoms>  (444) 
nan

>  <Num_Not_Resolved_Atoms>  (444) 
nan

$$$$
CHEMBL3662877
     RDKit          3D

  0  0  0  0  0  0  0  0  0  0999 V3000
M  V30 BEGIN CTAB
M  V30 COUNTS 65 68 0 0 0
M  V30 BEGIN ATOM
M  V30 1 C 3.873430 -3.357257 4.578908 0
M  V30 2 C 4.881134 -2.253199 4.294044 0
M  V30 3 C 4.205386 -0.926189 4.319356 0
M  V30 4 N 4.016159 -0.084674 5.348811 0
M  V30 5 C 3.348924 0.967995 4.813350 0
M  V30 6 C 2.901216 2.187369 5.570323 0
M  V30 7 C 3.137730 0.759332 3.464995 0
M  V30 8 C 2.452748 1.678714 2.564450 0
M  V30 9 O 2.008558 2.757181 3.029925 0
M  V30 10 N 2.343276 1.272172 1.216154 0
M  V30 11 C 1.745059 1.924037 0.100975 0
M  V30 12 N 2.225246 2.769216 -0.796257 0
M  V30 13 N 1.310763 3.136850 -1.677167 0
M  V30 14 C 0.162138 2.521139 -1.372469 0
M  V30 15 C 0.403220 1.751232 -0.258755 0
M  V30 16 C -0.884974 1.080815 0.057601 0
M  V30 17 N -1.451180 0.847687 -1.279583 0
M  V30 18 C -1.993074 -0.194239 -2.103886 0
M  V30 19 O -2.379936 0.132465 -3.280286 0
M  V30 20 N -2.154891 -1.586614 -1.754915 0
M  V30 21 C -1.758658 -2.107938 -0.462305 0
M  V30 22 C -2.051807 -3.584633 -0.449898 0 CFG=1
M  V30 23 C -1.675251 -4.235813 0.856300 0
M  V30 24 N -3.438391 -3.787905 -0.783727 0
M  V30 25 C -4.349261 -3.026219 0.038357 0
M  V30 26 C -3.658730 -3.509407 -2.180781 0
M  V30 27 C -2.734578 -2.476323 -2.733293 0 CFG=2
M  V30 28 C -1.616419 -3.078852 -3.543444 0
M  V30 29 C -1.296216 2.238447 -1.639962 0
M  V30 30 C -2.077120 3.186914 -0.783712 0
M  V30 31 C -1.599254 2.519128 -3.100830 0
M  V30 32 O 3.680076 -0.396827 3.246408 0
M  V30 33 H 2.871076 -3.052255 4.173543 0
M  V30 34 H 3.829869 -3.633968 5.649654 0
M  V30 35 H 4.167117 -4.275855 4.030366 0
M  V30 36 H 5.322003 -2.464316 3.301671 0
M  V30 37 H 5.647844 -2.335495 5.101527 0
M  V30 38 H 3.500834 3.074438 5.310264 0
M  V30 39 H 3.032259 1.999328 6.652713 0
M  V30 40 H 1.823330 2.320280 5.362306 0
M  V30 41 H 2.727168 0.359763 0.856703 0
M  V30 42 H 1.391336 3.782919 -2.488161 0
M  V30 43 H -0.650800 0.162244 0.600656 0
M  V30 44 H -1.562041 1.757963 0.638890 0
M  V30 45 H -2.255733 -1.572463 0.370212 0
M  V30 46 H -0.663327 -2.017761 -0.297186 0
M  V30 47 H -1.447456 -4.053998 -1.251374 0
M  V30 48 H -2.299443 -5.128095 1.081845 0
M  V30 49 H -0.621489 -4.605037 0.833304 0
M  V30 50 H -1.717132 -3.523164 1.717540 0
M  V30 51 H -4.122675 -3.160887 1.102751 0
M  V30 52 H -5.361608 -3.497594 -0.110225 0
M  V30 53 H -4.473162 -1.975341 -0.277168 0
M  V30 54 H -3.499587 -4.455979 -2.738103 0
M  V30 55 H -4.727699 -3.240350 -2.307681 0
M  V30 56 H -3.339286 -1.842131 -3.432586 0
M  V30 57 H -0.604294 -2.833832 -3.128889 0
M  V30 58 H -1.621658 -2.707441 -4.600068 0
M  V30 59 H -1.691181 -4.181676 -3.628282 0
M  V30 60 H -2.413734 4.038898 -1.445791 0
M  V30 61 H -2.999573 2.734968 -0.402962 0
M  V30 62 H -1.442591 3.672278 0.003695 0
M  V30 63 H -1.005167 1.901274 -3.799441 0
M  V30 64 H -2.686201 2.414694 -3.253755 0
M  V30 65 H -1.363385 3.606177 -3.319864 0
M  V30 END ATOM
M  V30 BEGIN BOND
M  V30 1 1 1 2
M  V30 2 1 2 3
M  V30 3 2 3 4
M  V30 4 1 4 5
M  V30 5 1 5 6
M  V30 6 2 5 7
M  V30 7 1 7 8
M  V30 8 2 8 9
M  V30 9 1 8 10
M  V30 10 1 10 11
M  V30 11 2 11 12
M  V30 12 1 12 13
M  V30 13 1 13 14
M  V30 14 2 14 15
M  V30 15 1 15 16
M  V30 16 1 16 17
M  V30 17 1 17 18
M  V30 18 2 18 19
M  V30 19 1 18 20
M  V30 20 1 20 21
M  V30 21 1 21 22
M  V30 22 1 22 23
M  V30 23 1 22 24
M  V30 24 1 24 25
M  V30 25 1 24 26
M  V30 26 1 26 27
M  V30 27 1 27 28
M  V30 28 1 17 29
M  V30 29 1 29 30
M  V30 30 1 29 31
M  V30 31 1 7 32
M  V30 32 1 32 3
M  V30 33 1 15 11
M  V30 34 1 27 20
M  V30 35 1 29 14
M  V30 36 1 1 33
M  V30 37 1 1 34
M  V30 38 1 1 35
M  V30 39 1 2 36
M  V30 40 1 2 37
M  V30 41 1 6 38
M  V30 42 1 6 39
M  V30 43 1 6 40
M  V30 44 1 10 41
M  V30 45 1 13 42
M  V30 46 1 16 43
M  V30 47 1 16 44
M  V30 48 1 21 45
M  V30 49 1 21 46
M  V30 50 1 22 47 CFG=3
M  V30 51 1 23 48
M  V30 52 1 23 49
M  V30 53 1 23 50
M  V30 54 1 25 51
M  V30 55 1 25 52
M  V30 56 1 25 53
M  V30 57 1 26 54
M  V30 58 1 26 55
M  V30 59 1 27 56 CFG=3
M  V30 60 1 28 57
M  V30 61 1 28 58
M  V30 62 1 28 59
M  V30 63 1 30 60
M  V30 64 1 30 61
M  V30 65 1 30 62
M  V30 66 1 31 63
M  V30 67 1 31 64
M  V30 68 1 31 65
M  V30 END BOND
M  V30 END CTAB
M  END
>  <Dataset>  (445) 
ChEMBL_Kinases

>  <Ligand_Instance>  (445) 
nan

>  <PDB_ID>  (445) 
nan

>  <Standardized_SMILES>  (445) 
CCc1nc(C)c(C(=O)Nc2n[nH]c3c2CN(C(=O)N2C[C@@H](C)N(C)C[C@@H]2C)C3(C)C)o1

>  <Name>  (445) 
nan

>  <Pocket>  (445) 
nan

>  <ATP_Site>  (445) 
nan

>  <Peripheral>  (445) 
nan

>  <Num_H_Atoms_ProtBoundConf>  (445) 
nan

>  <Num_Resolved_Atoms>  (445) 
nan

>  <Num_Not_Resolved_Atoms>  (445) 
nan

$$$$
CHEMBL3662878
     RDKit          3D

  0  0  0  0  0  0  0  0  0  0999 V3000
M  V30 BEGIN CTAB
M  V30 COUNTS 62 65 0 0 0
M  V30 BEGIN ATOM
M  V30 1 C 2.890548 -0.497538 -3.170768 0
M  V30 2 C 4.052324 0.385211 -2.835502 0
M  V30 3 C 4.832279 -0.053068 -1.658011 0
M  V30 4 O 6.015801 -0.663262 -1.695405 0
M  V30 5 C 6.445029 -0.920772 -0.503216 0
M  V30 6 N 5.528905 -0.473528 0.373251 0
M  V30 7 C 4.516128 0.070505 -0.323695 0
M  V30 8 C 3.322402 0.672604 0.254038 0
M  V30 9 O 2.386645 1.180350 -0.413187 0
M  V30 10 N 3.150686 0.716626 1.666377 0
M  V30 11 C 2.018927 1.283506 2.320987 0
M  V30 12 N 1.744070 2.512451 2.764289 0
M  V30 13 N 0.534729 2.545184 3.316383 0
M  V30 14 C -0.004488 1.309184 3.237261 0
M  V30 15 C 0.900355 0.496799 2.619048 0
M  V30 16 C 0.282993 -0.854034 2.544745 0
M  V30 17 N -1.134271 -0.533630 2.508546 0
M  V30 18 C -2.288187 -0.908395 1.809958 0
M  V30 19 O -3.450493 -0.449221 1.989117 0
M  V30 20 N -2.526094 -1.836193 0.768584 0
M  V30 21 C -3.883406 -1.969474 0.280670 0
M  V30 22 C -3.901622 -1.610545 -1.167655 0 CFG=1
M  V30 23 C -3.742433 -0.142438 -1.428384 0
M  V30 24 N -2.990170 -2.422932 -1.885575 0
M  V30 25 C -2.376245 -1.847106 -3.027353 0
M  V30 26 C -2.216551 -3.331082 -1.121050 0
M  V30 27 C -1.557719 -2.710104 0.092129 0 CFG=2
M  V30 28 C -1.257515 -3.845389 1.048166 0
M  V30 29 C -1.199315 0.474680 3.557845 0
M  V30 30 C -1.012539 -0.141784 4.917797 0
M  V30 31 C -2.459223 1.273691 3.551072 0
M  V30 32 H 1.923508 -0.093230 -2.793832 0
M  V30 33 H 3.062239 -1.554457 -2.884466 0
M  V30 34 H 2.770363 -0.497510 -4.283187 0
M  V30 35 H 3.684734 1.432513 -2.728766 0
M  V30 36 H 4.726887 0.418302 -3.721686 0
M  V30 37 H 7.361593 -1.404616 -0.176986 0
M  V30 38 H 3.913001 0.301583 2.268674 0
M  V30 39 H 0.090896 3.392307 3.736266 0
M  V30 40 H 0.634932 -1.433442 1.689188 0
M  V30 41 H 0.521103 -1.408439 3.500424 0
M  V30 42 H -4.642461 -1.449869 0.883159 0
M  V30 43 H -4.140901 -3.069166 0.326321 0
M  V30 44 H -4.943111 -1.864009 -1.526797 0
M  V30 45 H -2.798251 0.287258 -1.043350 0
M  V30 46 H -4.562430 0.448700 -0.998999 0
M  V30 47 H -3.788801 0.037726 -2.525853 0
M  V30 48 H -3.125969 -1.581563 -3.813088 0
M  V30 49 H -1.720809 -2.621225 -3.481212 0
M  V30 50 H -1.765584 -0.953241 -2.862543 0
M  V30 51 H -2.829149 -4.219249 -0.834918 0
M  V30 52 H -1.386467 -3.727696 -1.750265 0
M  V30 53 H -0.633285 -2.207788 -0.183987 0
M  V30 54 H -0.709413 -4.638256 0.496617 0
M  V30 55 H -0.664141 -3.521825 1.924831 0
M  V30 56 H -2.216619 -4.306761 1.400922 0
M  V30 57 H -1.321198 -1.196476 4.906389 0
M  V30 58 H -1.625675 0.432666 5.639673 0
M  V30 59 H 0.048685 -0.020531 5.270044 0
M  V30 60 H -2.755222 1.696450 2.591146 0
M  V30 61 H -3.252309 0.643140 4.041344 0
M  V30 62 H -2.278877 2.146167 4.228184 0
M  V30 END ATOM
M  V30 BEGIN BOND
M  V30 1 1 1 2
M  V30 2 1 2 3
M  V30 3 1 3 4
M  V30 4 1 4 5
M  V30 5 2 5 6
M  V30 6 1 6 7
M  V30 7 1 7 8
M  V30 8 2 8 9
M  V30 9 1 8 10
M  V30 10 1 10 11
M  V30 11 2 11 12
M  V30 12 1 12 13
M  V30 13 1 13 14
M  V30 14 2 14 15
M  V30 15 1 15 16
M  V30 16 1 16 17
M  V30 17 1 17 18
M  V30 18 2 18 19
M  V30 19 1 18 20
M  V30 20 1 20 21
M  V30 21 1 21 22
M  V30 22 1 22 23
M  V30 23 1 22 24
M  V30 24 1 24 25
M  V30 25 1 24 26
M  V30 26 1 26 27
M  V30 27 1 27 28
M  V30 28 1 17 29
M  V30 29 1 29 30
M  V30 30 1 29 31
M  V30 31 2 7 3
M  V30 32 1 15 11
M  V30 33 1 27 20
M  V30 34 1 29 14
M  V30 35 1 1 32
M  V30 36 1 1 33
M  V30 37 1 1 34
M  V30 38 1 2 35
M  V30 39 1 2 36
M  V30 40 1 5 37
M  V30 41 1 10 38
M  V30 42 1 13 39
M  V30 43 1 16 40
M  V30 44 1 16 41
M  V30 45 1 21 42
M  V30 46 1 21 43
M  V30 47 1 22 44 CFG=3
M  V30 48 1 23 45
M  V30 49 1 23 46
M  V30 50 1 23 47
M  V30 51 1 25 48
M  V30 52 1 25 49
M  V30 53 1 25 50
M  V30 54 1 26 51
M  V30 55 1 26 52
M  V30 56 1 27 53 CFG=3
M  V30 57 1 28 54
M  V30 58 1 28 55
M  V30 59 1 28 56
M  V30 60 1 30 57
M  V30 61 1 30 58
M  V30 62 1 30 59
M  V30 63 1 31 60
M  V30 64 1 31 61
M  V30 65 1 31 62
M  V30 END BOND
M  V30 END CTAB
M  END
>  <Dataset>  (446) 
ChEMBL_Kinases

>  <Ligand_Instance>  (446) 
nan

>  <PDB_ID>  (446) 
nan

>  <Standardized_SMILES>  (446) 
CCc1ocnc1C(=O)Nc1n[nH]c2c1CN(C(=O)N1C[C@@H](C)N(C)C[C@@H]1C)C2(C)C

>  <Name>  (446) 
nan

>  <Pocket>  (446) 
nan

>  <ATP_Site>  (446) 
nan

>  <Peripheral>  (446) 
nan

>  <Num_H_Atoms_ProtBoundConf>  (446) 
nan

>  <Num_Resolved_Atoms>  (446) 
nan

>  <Num_Not_Resolved_Atoms>  (446) 
nan

$$$$
CHEMBL3662879
     RDKit          3D

  0  0  0  0  0  0  0  0  0  0999 V3000
M  V30 BEGIN CTAB
M  V30 COUNTS 63 67 0 0 0
M  V30 BEGIN ATOM
M  V30 1 C -0.989073 -1.655831 1.797343 0
M  V30 2 C 0.123924 -2.114311 2.742678 0 CFG=2
M  V30 3 C 1.359706 -2.485339 1.953899 0
M  V30 4 N 0.908272 -3.361233 0.876994 0
M  V30 5 C 0.781547 -3.245472 -0.554241 0
M  V30 6 O 0.342615 -4.314789 -1.114772 0
M  V30 7 N 1.086206 -2.098912 -1.377757 0
M  V30 8 C 1.566575 -0.718682 -1.229931 0
M  V30 9 C 0.805661 0.066997 -2.243196 0
M  V30 10 C 0.316024 1.298934 -2.626470 0
M  V30 11 N 0.526400 2.485699 -1.830530 0
M  V30 12 C -0.540215 2.635669 -0.907381 0
M  V30 13 O -1.373255 1.677197 -1.051564 0
M  V30 14 C -0.599780 3.753244 0.036187 0
M  V30 15 C 0.158530 4.858997 0.360926 0
M  V30 16 O -0.447493 5.503236 1.329151 0
M  V30 17 C -1.554758 4.895868 1.664329 0
M  V30 18 C -2.548018 5.271046 2.704177 0
M  V30 19 C -3.214241 4.110423 3.390496 0
M  V30 20 C -3.989240 5.008565 2.473189 0
M  V30 21 N -1.679593 3.794189 0.871884 0
M  V30 22 N -0.338270 1.167164 -3.791681 0
M  V30 23 N -0.267241 -0.117667 -4.142415 0
M  V30 24 C 0.423167 -0.817674 -3.221200 0
M  V30 25 C 0.955374 -2.133345 -2.800216 0
M  V30 26 C 0.002129 -3.191423 -3.312292 0
M  V30 27 C 2.296274 -2.306912 -3.479007 0
M  V30 28 C 0.524823 -4.585905 1.543621 0 CFG=1
M  V30 29 C 1.774990 -5.322434 2.037493 0
M  V30 30 C -0.475726 -4.437410 2.630124 0
M  V30 31 N -0.282446 -3.282015 3.468867 0
M  V30 32 C -1.530961 -3.067722 4.193635 0
M  V30 33 H -0.799626 -0.604432 1.512142 0
M  V30 34 H -0.976079 -2.338729 0.919428 0
M  V30 35 H -1.966135 -1.777622 2.300432 0
M  V30 36 H 0.317139 -1.304898 3.468659 0
M  V30 37 H 1.922829 -1.614195 1.567368 0
M  V30 38 H 2.054478 -3.000409 2.657777 0
M  V30 39 H 2.641682 -0.615880 -1.422722 0
M  V30 40 H 1.246389 -0.299341 -0.236487 0
M  V30 41 H 1.320099 3.192593 -1.859108 0
M  V30 42 H 1.068874 4.996759 -0.205152 0
M  V30 43 H -2.313923 6.189657 3.277860 0
M  V30 44 H -3.026250 3.095040 2.995642 0
M  V30 45 H -3.410332 4.114681 4.475833 0
M  V30 46 H -4.724321 5.675799 2.949478 0
M  V30 47 H -4.322996 4.654003 1.472207 0
M  V30 48 H -0.668658 -0.575822 -4.995778 0
M  V30 49 H -0.332817 -2.820613 -4.316022 0
M  V30 50 H -0.911034 -3.145765 -2.685235 0
M  V30 51 H 0.434416 -4.182347 -3.432566 0
M  V30 52 H 2.107960 -2.528842 -4.548467 0
M  V30 53 H 2.753785 -3.220655 -3.031531 0
M  V30 54 H 2.956111 -1.467221 -3.277547 0
M  V30 55 H 0.080045 -5.253022 0.779013 0
M  V30 56 H 1.955579 -5.040035 3.113352 0
M  V30 57 H 1.662965 -6.412739 2.016421 0
M  V30 58 H 2.664675 -5.069062 1.429423 0
M  V30 59 H -0.384336 -5.325659 3.288961 0
M  V30 60 H -1.539128 -4.441838 2.277330 0
M  V30 61 H -2.396276 -3.496187 3.641787 0
M  V30 62 H -1.468152 -3.593698 5.163380 0
M  V30 63 H -1.724335 -1.992241 4.332079 0
M  V30 END ATOM
M  V30 BEGIN BOND
M  V30 1 1 1 2
M  V30 2 1 2 3
M  V30 3 1 3 4
M  V30 4 1 4 5
M  V30 5 2 5 6
M  V30 6 1 5 7
M  V30 7 1 7 8
M  V30 8 1 8 9
M  V30 9 1 9 10
M  V30 10 1 10 11
M  V30 11 1 11 12
M  V30 12 2 12 13
M  V30 13 1 12 14
M  V30 14 2 14 15
M  V30 15 1 15 16
M  V30 16 1 16 17
M  V30 17 1 17 18
M  V30 18 1 18 19
M  V30 19 1 19 20
M  V30 20 2 17 21
M  V30 21 2 10 22
M  V30 22 1 22 23
M  V30 23 1 23 24
M  V30 24 1 24 25
M  V30 25 1 25 26
M  V30 26 1 25 27
M  V30 27 1 4 28
M  V30 28 1 28 29
M  V30 29 1 28 30
M  V30 30 1 30 31
M  V30 31 1 31 32
M  V30 32 1 31 2
M  V30 33 1 25 7
M  V30 34 2 24 9
M  V30 35 1 21 14
M  V30 36 1 20 18
M  V30 37 1 1 33
M  V30 38 1 1 34
M  V30 39 1 1 35
M  V30 40 1 2 36 CFG=1
M  V30 41 1 3 37
M  V30 42 1 3 38
M  V30 43 1 8 39
M  V30 44 1 8 40
M  V30 45 1 11 41
M  V30 46 1 15 42
M  V30 47 1 18 43
M  V30 48 1 19 44
M  V30 49 1 19 45
M  V30 50 1 20 46
M  V30 51 1 20 47
M  V30 52 1 23 48
M  V30 53 1 26 49
M  V30 54 1 26 50
M  V30 55 1 26 51
M  V30 56 1 27 52
M  V30 57 1 27 53
M  V30 58 1 27 54
M  V30 59 1 28 55 CFG=3
M  V30 60 1 29 56
M  V30 61 1 29 57
M  V30 62 1 29 58
M  V30 63 1 30 59
M  V30 64 1 30 60
M  V30 65 1 32 61
M  V30 66 1 32 62
M  V30 67 1 32 63
M  V30 END BOND
M  V30 END CTAB
M  END
>  <Dataset>  (447) 
ChEMBL_Kinases

>  <Ligand_Instance>  (447) 
nan

>  <PDB_ID>  (447) 
nan

>  <Standardized_SMILES>  (447) 
C[C@@H]1CN(C(=O)N2Cc3c(NC(=O)c4coc(C5CC5)n4)n[nH]c3C2(C)C)[C@@H](C)CN1C

>  <Name>  (447) 
nan

>  <Pocket>  (447) 
nan

>  <ATP_Site>  (447) 
nan

>  <Peripheral>  (447) 
nan

>  <Num_H_Atoms_ProtBoundConf>  (447) 
nan

>  <Num_Resolved_Atoms>  (447) 
nan

>  <Num_Not_Resolved_Atoms>  (447) 
nan

$$$$
CHEMBL3662889
     RDKit          3D

  0  0  0  0  0  0  0  0  0  0999 V3000
M  V30 BEGIN CTAB
M  V30 COUNTS 63 67 0 0 0
M  V30 BEGIN ATOM
M  V30 1 C 2.269487 -0.860655 7.786445 0
M  V30 2 C 2.586751 -0.727027 6.330945 0
M  V30 3 N 3.458270 -1.580431 5.717237 0
M  V30 4 C 3.530253 -1.202523 4.422546 0
M  V30 5 C 4.356119 -1.839220 3.364186 0
M  V30 6 C 2.698217 -0.119785 4.265070 0
M  V30 7 C 2.473528 0.609380 3.010673 0
M  V30 8 O 3.100948 0.197573 2.001978 0
M  V30 9 N 1.584012 1.719529 2.979741 0
M  V30 10 C 1.522221 2.274070 1.650465 0
M  V30 11 N 2.290843 3.243571 1.120650 0
M  V30 12 N 1.913725 3.462489 -0.128102 0
M  V30 13 C 0.897168 2.673029 -0.497842 0
M  V30 14 C 0.660280 1.931412 0.627221 0
M  V30 15 C -0.467765 0.968527 0.403502 0
M  V30 16 N -0.636921 1.054158 -1.044763 0
M  V30 17 C -1.272418 0.191577 -2.025671 0
M  V30 18 O -1.257128 0.515728 -3.272751 0
M  V30 19 N -1.957884 -1.056268 -1.755237 0
M  V30 20 C -2.129759 -1.616515 -0.428581 0
M  V30 21 C -3.176373 -2.655858 -0.295675 0 CFG=2
M  V30 22 C -2.677685 -3.698491 0.708005 0
M  V30 23 C -2.853911 -5.032186 0.022492 0
M  V30 24 C -2.789685 -4.626785 -1.454289 0
M  V30 25 N -3.523275 -3.405729 -1.439794 0
M  V30 26 C -3.596550 -2.681780 -2.657752 0
M  V30 27 C -2.476488 -1.754031 -2.919494 0 CFG=2
M  V30 28 C -1.329066 -2.404868 -3.674289 0
M  V30 29 C -0.033644 2.289827 -1.575389 0
M  V30 30 C -1.114415 3.319876 -1.778475 0
M  V30 31 C 0.757387 2.027781 -2.837062 0
M  V30 32 O 2.160838 0.117704 5.444618 0
M  V30 33 H 1.728613 -1.805082 7.990475 0
M  V30 34 H 3.160924 -0.684619 8.390781 0
M  V30 35 H 1.540021 -0.034282 8.000907 0
M  V30 36 H 3.808996 -1.991046 2.412664 0
M  V30 37 H 4.637164 -2.841368 3.714713 0
M  V30 38 H 5.318667 -1.284241 3.237120 0
M  V30 39 H 1.112035 1.980563 3.876149 0
M  V30 40 H 2.405421 4.195143 -0.711702 0
M  V30 41 H -0.176831 -0.045029 0.749700 0
M  V30 42 H -1.363940 1.276698 0.944072 0
M  V30 43 H -1.140869 -2.020499 -0.121101 0
M  V30 44 H -2.349407 -0.743903 0.228007 0
M  V30 45 H -4.067029 -2.194311 0.199794 0
M  V30 46 H -1.579722 -3.577275 0.878342 0
M  V30 47 H -3.206973 -3.670890 1.661229 0
M  V30 48 H -3.859320 -5.436885 0.259881 0
M  V30 49 H -2.053330 -5.752884 0.270883 0
M  V30 50 H -1.719099 -4.485536 -1.706117 0
M  V30 51 H -3.290136 -5.413435 -2.026079 0
M  V30 52 H -3.584176 -3.452053 -3.484369 0
M  V30 53 H -4.614104 -2.213741 -2.731751 0
M  V30 54 H -2.879038 -0.945923 -3.601727 0
M  V30 55 H -1.148940 -1.913155 -4.651827 0
M  V30 56 H -1.568248 -3.475616 -3.873400 0
M  V30 57 H -0.369585 -2.351985 -3.125811 0
M  V30 58 H -0.929179 3.900298 -2.684991 0
M  V30 59 H -1.137592 3.967011 -0.873442 0
M  V30 60 H -2.097120 2.796924 -1.912584 0
M  V30 61 H 0.135480 2.323471 -3.705160 0
M  V30 62 H 1.674347 2.663228 -2.764775 0
M  V30 63 H 0.990423 0.963773 -2.890199 0
M  V30 END ATOM
M  V30 BEGIN BOND
M  V30 1 1 1 2
M  V30 2 2 2 3
M  V30 3 1 3 4
M  V30 4 1 4 5
M  V30 5 2 4 6
M  V30 6 1 6 7
M  V30 7 2 7 8
M  V30 8 1 7 9
M  V30 9 1 9 10
M  V30 10 2 10 11
M  V30 11 1 11 12
M  V30 12 1 12 13
M  V30 13 2 13 14
M  V30 14 1 14 15
M  V30 15 1 15 16
M  V30 16 1 16 17
M  V30 17 2 17 18
M  V30 18 1 17 19
M  V30 19 1 19 20
M  V30 20 1 20 21
M  V30 21 1 21 22
M  V30 22 1 22 23
M  V30 23 1 23 24
M  V30 24 1 24 25
M  V30 25 1 25 26
M  V30 26 1 26 27
M  V30 27 1 27 28
M  V30 28 1 16 29
M  V30 29 1 29 30
M  V30 30 1 29 31
M  V30 31 1 6 32
M  V30 32 1 32 2
M  V30 33 1 14 10
M  V30 34 1 27 19
M  V30 35 1 29 13
M  V30 36 1 25 21
M  V30 37 1 1 33
M  V30 38 1 1 34
M  V30 39 1 1 35
M  V30 40 1 5 36
M  V30 41 1 5 37
M  V30 42 1 5 38
M  V30 43 1 9 39
M  V30 44 1 12 40
M  V30 45 1 15 41
M  V30 46 1 15 42
M  V30 47 1 20 43
M  V30 48 1 20 44
M  V30 49 1 21 45 CFG=1
M  V30 50 1 22 46
M  V30 51 1 22 47
M  V30 52 1 23 48
M  V30 53 1 23 49
M  V30 54 1 24 50
M  V30 55 1 24 51
M  V30 56 1 26 52
M  V30 57 1 26 53
M  V30 58 1 27 54 CFG=3
M  V30 59 1 28 55
M  V30 60 1 28 56
M  V30 61 1 28 57
M  V30 62 1 30 58
M  V30 63 1 30 59
M  V30 64 1 30 60
M  V30 65 1 31 61
M  V30 66 1 31 62
M  V30 67 1 31 63
M  V30 END BOND
M  V30 END CTAB
M  END
>  <Dataset>  (448) 
ChEMBL_Kinases

>  <Ligand_Instance>  (448) 
nan

>  <PDB_ID>  (448) 
nan

>  <Standardized_SMILES>  (448) 
Cc1nc(C)c(C(=O)Nc2n[nH]c3c2CN(C(=O)N2C[C@@H]4CCCN4C[C@@H]2C)C3(C)C)o1

>  <Name>  (448) 
nan

>  <Pocket>  (448) 
nan

>  <ATP_Site>  (448) 
nan

>  <Peripheral>  (448) 
nan

>  <Num_H_Atoms_ProtBoundConf>  (448) 
nan

>  <Num_Resolved_Atoms>  (448) 
nan

>  <Num_Not_Resolved_Atoms>  (448) 
nan

$$$$
CHEMBL3662881
     RDKit          3D

  0  0  0  0  0  0  0  0  0  0999 V3000
M  V30 BEGIN CTAB
M  V30 COUNTS 62 66 0 0 0
M  V30 BEGIN ATOM
M  V30 1 C 6.482311 4.021252 6.412639 0
M  V30 2 C 5.905835 3.159986 5.336020 0
M  V30 3 C 5.130033 2.071157 5.698124 0
M  V30 4 N 4.583122 1.257112 4.759090 0
M  V30 5 C 4.790107 1.499748 3.431048 0
M  V30 6 C 4.259552 0.702531 2.330064 0
M  V30 7 O 4.470178 0.955464 1.115678 0
M  V30 8 N 3.466945 -0.408991 2.746958 0
M  V30 9 C 2.777419 -1.417841 2.010275 0
M  V30 10 N 3.288534 -2.612755 1.620604 0
M  V30 11 N 2.394168 -3.323580 0.953853 0
M  V30 12 C 1.274884 -2.580255 0.905407 0
M  V30 13 C 1.478224 -1.381903 1.556019 0
M  V30 14 C 0.242969 -0.555994 1.504032 0
M  V30 15 N -0.591889 -1.329496 0.571315 0
M  V30 16 C -1.705583 -0.613044 0.061644 0
M  V30 17 O -1.403984 0.395000 0.707457 0
M  V30 18 N -2.752639 -0.930328 -0.836496 0
M  V30 19 C -3.033227 -2.169577 -1.556246 0
M  V30 20 C -4.514956 -2.134137 -1.873209 0 CFG=2
M  V30 21 C -4.900260 -3.378530 -2.639008 0
M  V30 22 C -4.562583 -3.035500 -4.078737 0
M  V30 23 C -4.682570 -1.546935 -4.126784 0
M  V30 24 N -4.847825 -1.075027 -2.787592 0
M  V30 25 C -4.009111 0.097343 -2.587199 0
M  V30 26 C -3.695188 0.135392 -1.084542 0 CFG=2
M  V30 27 C -3.213651 1.498375 -0.685625 0
M  V30 28 C -0.117395 -2.701336 0.341716 0
M  V30 29 C -0.020618 -3.058728 -1.104030 0
M  V30 30 C -0.961400 -3.615785 1.170142 0
M  V30 31 C 5.566712 2.590997 3.101457 0
M  V30 32 N 6.108326 3.396877 4.024357 0
M  V30 33 H 7.398590 3.505924 6.821970 0
M  V30 34 H 6.693864 5.044993 6.099362 0
M  V30 35 H 5.742134 3.994439 7.257229 0
M  V30 36 H 4.911438 1.800502 6.725738 0
M  V30 37 H 3.280065 -0.636492 3.766052 0
M  V30 38 H 2.681468 -4.246068 0.614292 0
M  V30 39 H -0.265145 -0.454557 2.462643 0
M  V30 40 H 0.466353 0.465730 1.086981 0
M  V30 41 H -2.906762 -3.067843 -0.897656 0
M  V30 42 H -2.470821 -2.263021 -2.496672 0
M  V30 43 H -5.050751 -2.076877 -0.918816 0
M  V30 44 H -5.975681 -3.630876 -2.504880 0
M  V30 45 H -4.271653 -4.240331 -2.285000 0
M  V30 46 H -5.270265 -3.492268 -4.798672 0
M  V30 47 H -3.539183 -3.366476 -4.318211 0
M  V30 48 H -5.566111 -1.224090 -4.731398 0
M  V30 49 H -3.782200 -1.082540 -4.584257 0
M  V30 50 H -4.536824 1.024517 -2.870917 0
M  V30 51 H -3.064854 -0.055798 -3.139419 0
M  V30 52 H -4.671650 -0.040516 -0.545110 0
M  V30 53 H -3.299423 1.702394 0.381907 0
M  V30 54 H -3.839506 2.242302 -1.267023 0
M  V30 55 H -2.186440 1.656915 -1.081435 0
M  V30 56 H 0.996233 -3.452967 -1.303943 0
M  V30 57 H -0.141044 -2.167763 -1.749820 0
M  V30 58 H -0.707767 -3.890402 -1.380906 0
M  V30 59 H -1.529942 -4.364996 0.578101 0
M  V30 60 H -1.599721 -3.047287 1.868839 0
M  V30 61 H -0.270216 -4.207125 1.836986 0
M  V30 62 H 5.768194 2.836847 2.059308 0
M  V30 END ATOM
M  V30 BEGIN BOND
M  V30 1 1 1 2
M  V30 2 2 2 3
M  V30 3 1 3 4
M  V30 4 2 4 5
M  V30 5 1 5 6
M  V30 6 2 6 7
M  V30 7 1 6 8
M  V30 8 1 8 9
M  V30 9 2 9 10
M  V30 10 1 10 11
M  V30 11 1 11 12
M  V30 12 2 12 13
M  V30 13 1 13 14
M  V30 14 1 14 15
M  V30 15 1 15 16
M  V30 16 2 16 17
M  V30 17 1 16 18
M  V30 18 1 18 19
M  V30 19 1 19 20
M  V30 20 1 20 21
M  V30 21 1 21 22
M  V30 22 1 22 23
M  V30 23 1 23 24
M  V30 24 1 24 25
M  V30 25 1 25 26
M  V30 26 1 26 27
M  V30 27 1 15 28
M  V30 28 1 28 29
M  V30 29 1 28 30
M  V30 30 1 5 31
M  V30 31 2 31 32
M  V30 32 1 32 2
M  V30 33 1 13 9
M  V30 34 1 26 18
M  V30 35 1 28 12
M  V30 36 1 24 20
M  V30 37 1 1 33
M  V30 38 1 1 34
M  V30 39 1 1 35
M  V30 40 1 3 36
M  V30 41 1 8 37
M  V30 42 1 11 38
M  V30 43 1 14 39
M  V30 44 1 14 40
M  V30 45 1 19 41
M  V30 46 1 19 42
M  V30 47 1 20 43 CFG=1
M  V30 48 1 21 44
M  V30 49 1 21 45
M  V30 50 1 22 46
M  V30 51 1 22 47
M  V30 52 1 23 48
M  V30 53 1 23 49
M  V30 54 1 25 50
M  V30 55 1 25 51
M  V30 56 1 26 52 CFG=1
M  V30 57 1 27 53
M  V30 58 1 27 54
M  V30 59 1 27 55
M  V30 60 1 29 56
M  V30 61 1 29 57
M  V30 62 1 29 58
M  V30 63 1 30 59
M  V30 64 1 30 60
M  V30 65 1 30 61
M  V30 66 1 31 62
M  V30 END BOND
M  V30 END CTAB
M  END
>  <Dataset>  (449) 
ChEMBL_Kinases

>  <Ligand_Instance>  (449) 
nan

>  <PDB_ID>  (449) 
nan

>  <Standardized_SMILES>  (449) 
Cc1cnc(C(=O)Nc2n[nH]c3c2CN(C(=O)N2C[C@@H]4CCCN4C[C@@H]2C)C3(C)C)cn1

>  <Name>  (449) 
nan

>  <Pocket>  (449) 
nan

>  <ATP_Site>  (449) 
nan

>  <Peripheral>  (449) 
nan

>  <Num_H_Atoms_ProtBoundConf>  (449) 
nan

>  <Num_Resolved_Atoms>  (449) 
nan

>  <Num_Not_Resolved_Atoms>  (449) 
nan

$$$$
CHEMBL3662882
     RDKit          3D

  0  0  0  0  0  0  0  0  0  0999 V3000
M  V30 BEGIN CTAB
M  V30 COUNTS 66 71 0 0 0
M  V30 BEGIN ATOM
M  V30 1 C 3.756090 2.525312 2.619957 0
M  V30 2 C 3.501512 1.468598 1.536551 0 CFG=1
M  V30 3 C 4.559642 0.457946 1.610289 0
M  V30 4 N 4.296334 -0.781833 0.913543 0
M  V30 5 C 4.749435 -1.932089 1.615220 0
M  V30 6 C 3.618797 -2.937673 1.639537 0
M  V30 7 C 2.739076 -2.442316 0.494119 0
M  V30 8 C 2.916070 -0.964699 0.612832 0 CFG=1
M  V30 9 C 2.172572 -0.429653 1.847661 0
M  V30 10 N 2.134253 1.015099 1.662127 0
M  V30 11 C 1.254935 2.145999 1.561640 0
M  V30 12 O 1.668680 3.348532 1.381500 0
M  V30 13 N -0.189563 2.100737 1.646466 0
M  V30 14 C -1.262068 1.110769 1.833672 0
M  V30 15 C -2.213585 1.425830 0.757142 0
M  V30 16 C -3.152479 0.921180 -0.148317 0
M  V30 17 N -3.544918 -0.435863 -0.307208 0
M  V30 18 C -2.860197 -1.275300 -1.212700 0
M  V30 19 O -1.906030 -0.752912 -1.850204 0
M  V30 20 C -3.260650 -2.672984 -1.380064 0
M  V30 21 C -2.565489 -3.459041 -2.275867 0
M  V30 22 C -2.841749 -4.771272 -2.520113 0
M  V30 23 C -2.174323 -5.584268 -3.402020 0
M  V30 24 C -2.506215 -6.902809 -3.600435 0
M  V30 25 C -3.572067 -7.413368 -2.860889 0
M  V30 26 C -4.260348 -6.628534 -1.971202 0
M  V30 27 C -3.888397 -5.309838 -1.807586 0
M  V30 28 C -4.593472 -4.529925 -0.905437 0
M  V30 29 N -4.273348 -3.245745 -0.709810 0
M  V30 30 N -3.611071 1.979505 -0.840043 0
M  V30 31 N -3.037694 3.081175 -0.438802 0
M  V30 32 C -2.170266 2.782064 0.544053 0
M  V30 33 C -1.141304 3.176034 1.566069 0
M  V30 34 C -1.899864 3.406543 2.867004 0
M  V30 35 C -0.527349 4.513077 1.188138 0
M  V30 36 H 4.054202 3.492425 2.220914 0
M  V30 37 H 4.590159 2.188450 3.288827 0
M  V30 38 H 2.857534 2.644176 3.260123 0
M  V30 39 H 3.563415 2.025162 0.564980 0
M  V30 40 H 4.824969 0.181187 2.652990 0
M  V30 41 H 5.500441 0.853707 1.158990 0
M  V30 42 H 5.188125 -1.729923 2.599355 0
M  V30 43 H 5.563468 -2.427287 1.018678 0
M  V30 44 H 3.975097 -3.971409 1.459669 0
M  V30 45 H 3.094807 -2.948259 2.612876 0
M  V30 46 H 1.690334 -2.776607 0.621217 0
M  V30 47 H 3.187022 -2.775811 -0.453558 0
M  V30 48 H 2.569782 -0.405677 -0.279409 0
M  V30 49 H 1.216124 -0.931679 1.847900 0
M  V30 50 H 2.784616 -0.617325 2.753752 0
M  V30 51 H -0.858908 0.080676 1.749485 0
M  V30 52 H -1.723207 1.270674 2.847409 0
M  V30 53 H -4.343843 -0.807230 0.250752 0
M  V30 54 H -1.737502 -3.001624 -2.828102 0
M  V30 55 H -1.346546 -5.126271 -3.953266 0
M  V30 56 H -1.955735 -7.527704 -4.310924 0
M  V30 57 H -3.789665 -8.464151 -3.060409 0
M  V30 58 H -5.070130 -7.058088 -1.425005 0
M  V30 59 H -5.429966 -4.900932 -0.314055 0
M  V30 60 H -3.164607 4.084936 -0.766198 0
M  V30 61 H -1.310989 3.049872 3.715951 0
M  V30 62 H -2.892493 2.916061 2.878013 0
M  V30 63 H -2.134840 4.508129 2.979304 0
M  V30 64 H 0.014401 4.453789 0.227892 0
M  V30 65 H -1.385284 5.214935 0.975117 0
M  V30 66 H 0.111050 4.943218 1.957146 0
M  V30 END ATOM
M  V30 BEGIN BOND
M  V30 1 1 1 2
M  V30 2 1 2 3
M  V30 3 1 3 4
M  V30 4 1 4 5
M  V30 5 1 5 6
M  V30 6 1 6 7
M  V30 7 1 7 8
M  V30 8 1 8 9
M  V30 9 1 9 10
M  V30 10 1 10 11
M  V30 11 2 11 12
M  V30 12 1 11 13
M  V30 13 1 13 14
M  V30 14 1 14 15
M  V30 15 1 15 16
M  V30 16 1 16 17
M  V30 17 1 17 18
M  V30 18 2 18 19
M  V30 19 1 18 20
M  V30 20 2 20 21
M  V30 21 1 21 22
M  V30 22 2 22 23
M  V30 23 1 23 24
M  V30 24 2 24 25
M  V30 25 1 25 26
M  V30 26 2 26 27
M  V30 27 1 27 28
M  V30 28 2 28 29
M  V30 29 2 16 30
M  V30 30 1 30 31
M  V30 31 1 31 32
M  V30 32 1 32 33
M  V30 33 1 33 34
M  V30 34 1 33 35
M  V30 35 1 10 2
M  V30 36 1 33 13
M  V30 37 1 8 4
M  V30 38 2 32 15
M  V30 39 1 29 20
M  V30 40 1 27 22
M  V30 41 1 1 36
M  V30 42 1 1 37
M  V30 43 1 1 38
M  V30 44 1 2 39 CFG=3
M  V30 45 1 3 40
M  V30 46 1 3 41
M  V30 47 1 5 42
M  V30 48 1 5 43
M  V30 49 1 6 44
M  V30 50 1 6 45
M  V30 51 1 7 46
M  V30 52 1 7 47
M  V30 53 1 8 48 CFG=3
M  V30 54 1 9 49
M  V30 55 1 9 50
M  V30 56 1 14 51
M  V30 57 1 14 52
M  V30 58 1 17 53
M  V30 59 1 21 54
M  V30 60 1 23 55
M  V30 61 1 24 56
M  V30 62 1 25 57
M  V30 63 1 26 58
M  V30 64 1 28 59
M  V30 65 1 31 60
M  V30 66 1 34 61
M  V30 67 1 34 62
M  V30 68 1 34 63
M  V30 69 1 35 64
M  V30 70 1 35 65
M  V30 71 1 35 66
M  V30 END BOND
M  V30 END CTAB
M  END
>  <Dataset>  (450) 
ChEMBL_Kinases

>  <Ligand_Instance>  (450) 
nan

>  <PDB_ID>  (450) 
nan

>  <Standardized_SMILES>  (450) 
C[C@H]1CN2CCC[C@H]2CN1C(=O)N1Cc2c(NC(=O)c3cc4ccccc4cn3)n[nH]c2C1(C)C

>  <Name>  (450) 
nan

>  <Pocket>  (450) 
nan

>  <ATP_Site>  (450) 
nan

>  <Peripheral>  (450) 
nan

>  <Num_H_Atoms_ProtBoundConf>  (450) 
nan

>  <Num_Resolved_Atoms>  (450) 
nan

>  <Num_Not_Resolved_Atoms>  (450) 
nan

$$$$
CHEMBL3662883
     RDKit          3D

  0  0  0  0  0  0  0  0  0  0999 V3000
M  V30 BEGIN CTAB
M  V30 COUNTS 65 70 0 0 0
M  V30 BEGIN ATOM
M  V30 1 C 3.527406 2.118329 3.391040 0
M  V30 2 C 3.507073 1.440570 2.012857 0 CFG=1
M  V30 3 C 4.517988 0.383096 1.924459 0
M  V30 4 N 4.221366 -0.795413 1.182828 0
M  V30 5 C 4.773367 -1.995685 1.715782 0
M  V30 6 C 3.601583 -2.953958 1.922737 0
M  V30 7 C 2.620894 -2.476551 0.890791 0
M  V30 8 C 2.840931 -0.994055 0.871978 0 CFG=1
M  V30 9 C 2.059299 -0.401698 2.050654 0
M  V30 10 N 2.123052 1.039706 1.820141 0
M  V30 11 C 1.229337 2.119620 1.464718 0
M  V30 12 O 1.728082 3.288929 1.375562 0
M  V30 13 N -0.180021 2.019388 1.196474 0
M  V30 14 C -1.275027 1.065768 1.126140 0
M  V30 15 C -1.825984 1.283191 -0.240310 0
M  V30 16 C -2.412536 0.780892 -1.406311 0
M  V30 17 N -2.707817 -0.606242 -1.552897 0
M  V30 18 C -3.939046 -1.217004 -1.176786 0
M  V30 19 O -4.877764 -0.517717 -0.667676 0
M  V30 20 C -4.110884 -2.656576 -1.382736 0
M  V30 21 C -5.293596 -3.269682 -1.026645 0
M  V30 22 C -5.404401 -4.640712 -1.244212 0
M  V30 23 C -4.378967 -5.378083 -1.795343 0
M  V30 24 C -4.438525 -6.735883 -2.030876 0
M  V30 25 N -3.404705 -7.419374 -2.575040 0
M  V30 26 C -2.267711 -6.744176 -2.900934 0
M  V30 27 C -2.127141 -5.385380 -2.697664 0
M  V30 28 C -3.211676 -4.716431 -2.136002 0
M  V30 29 N -3.109546 -3.395392 -1.924522 0
M  V30 30 N -2.592127 1.841262 -2.235898 0
M  V30 31 N -2.148834 2.946067 -1.637077 0
M  V30 32 C -1.674507 2.637935 -0.416305 0
M  V30 33 C -1.041896 3.134503 0.854831 0
M  V30 34 C -2.150234 3.371214 1.837569 0
M  V30 35 C -0.283768 4.420182 0.585710 0
M  V30 36 H 4.575772 2.202404 3.760422 0
M  V30 37 H 2.931773 1.465947 4.049513 0
M  V30 38 H 3.049669 3.113898 3.293568 0
M  V30 39 H 3.731188 2.253127 1.290720 0
M  V30 40 H 4.838885 0.079579 2.943605 0
M  V30 41 H 5.466311 0.798338 1.470237 0
M  V30 42 H 5.325565 -1.870485 2.680126 0
M  V30 43 H 5.469786 -2.509904 1.013578 0
M  V30 44 H 3.156518 -2.815876 2.939741 0
M  V30 45 H 3.865097 -4.003567 1.745558 0
M  V30 46 H 2.803138 -2.955549 -0.093009 0
M  V30 47 H 1.558139 -2.702321 1.149355 0
M  V30 48 H 2.486070 -0.491780 -0.037472 0
M  V30 49 H 1.057375 -0.818564 2.040540 0
M  V30 50 H 2.611797 -0.629443 2.990883 0
M  V30 51 H -0.956147 0.013345 1.265830 0
M  V30 52 H -2.109200 1.314254 1.829293 0
M  V30 53 H -1.929283 -1.186302 -1.974957 0
M  V30 54 H -6.129166 -2.736495 -0.590759 0
M  V30 55 H -6.326274 -5.164983 -0.975569 0
M  V30 56 H -5.351790 -7.246269 -1.763113 0
M  V30 57 H -1.396766 -7.248780 -3.345675 0
M  V30 58 H -1.211466 -4.877576 -2.967104 0
M  V30 59 H -2.160424 3.913215 -2.040538 0
M  V30 60 H -2.287115 4.483964 1.913148 0
M  V30 61 H -3.133321 3.009761 1.456800 0
M  V30 62 H -1.936399 3.040569 2.859319 0
M  V30 63 H 0.448265 4.358269 -0.216492 0
M  V30 64 H 0.059253 4.875568 1.525795 0
M  V30 65 H -1.081984 5.137212 0.214409 0
M  V30 END ATOM
M  V30 BEGIN BOND
M  V30 1 1 1 2
M  V30 2 1 2 3
M  V30 3 1 3 4
M  V30 4 1 4 5
M  V30 5 1 5 6
M  V30 6 1 6 7
M  V30 7 1 7 8
M  V30 8 1 8 9
M  V30 9 1 9 10
M  V30 10 1 10 11
M  V30 11 2 11 12
M  V30 12 1 11 13
M  V30 13 1 13 14
M  V30 14 1 14 15
M  V30 15 1 15 16
M  V30 16 1 16 17
M  V30 17 1 17 18
M  V30 18 2 18 19
M  V30 19 1 18 20
M  V30 20 2 20 21
M  V30 21 1 21 22
M  V30 22 2 22 23
M  V30 23 1 23 24
M  V30 24 2 24 25
M  V30 25 1 25 26
M  V30 26 2 26 27
M  V30 27 1 27 28
M  V30 28 2 28 29
M  V30 29 2 16 30
M  V30 30 1 30 31
M  V30 31 1 31 32
M  V30 32 1 32 33
M  V30 33 1 33 34
M  V30 34 1 33 35
M  V30 35 1 10 2
M  V30 36 1 33 13
M  V30 37 1 8 4
M  V30 38 2 32 15
M  V30 39 1 29 20
M  V30 40 1 28 23
M  V30 41 1 1 36
M  V30 42 1 1 37
M  V30 43 1 1 38
M  V30 44 1 2 39 CFG=3
M  V30 45 1 3 40
M  V30 46 1 3 41
M  V30 47 1 5 42
M  V30 48 1 5 43
M  V30 49 1 6 44
M  V30 50 1 6 45
M  V30 51 1 7 46
M  V30 52 1 7 47
M  V30 53 1 8 48 CFG=3
M  V30 54 1 9 49
M  V30 55 1 9 50
M  V30 56 1 14 51
M  V30 57 1 14 52
M  V30 58 1 17 53
M  V30 59 1 21 54
M  V30 60 1 22 55
M  V30 61 1 24 56
M  V30 62 1 26 57
M  V30 63 1 27 58
M  V30 64 1 31 59
M  V30 65 1 34 60
M  V30 66 1 34 61
M  V30 67 1 34 62
M  V30 68 1 35 63
M  V30 69 1 35 64
M  V30 70 1 35 65
M  V30 END BOND
M  V30 END CTAB
M  END
>  <Dataset>  (451) 
ChEMBL_Kinases

>  <Ligand_Instance>  (451) 
nan

>  <PDB_ID>  (451) 
nan

>  <Standardized_SMILES>  (451) 
C[C@H]1CN2CCC[C@H]2CN1C(=O)N1Cc2c(NC(=O)c3ccc4cnccc4n3)n[nH]c2C1(C)C

>  <Name>  (451) 
nan

>  <Pocket>  (451) 
nan

>  <ATP_Site>  (451) 
nan

>  <Peripheral>  (451) 
nan

>  <Num_H_Atoms_ProtBoundConf>  (451) 
nan

>  <Num_Resolved_Atoms>  (451) 
nan

>  <Num_Not_Resolved_Atoms>  (451) 
nan

$$$$
CHEMBL3662884
     RDKit          3D

  0  0  0  0  0  0  0  0  0  0999 V3000
M  V30 BEGIN CTAB
M  V30 COUNTS 65 70 0 0 0
M  V30 BEGIN ATOM
M  V30 1 C 2.916625 0.117786 -2.190413 0
M  V30 2 C 2.227421 0.159146 -0.834343 0 CFG=1
M  V30 3 C 3.188289 -0.451415 0.165444 0
M  V30 4 N 4.454809 0.203310 -0.027921 0
M  V30 5 C 5.458742 -0.131615 0.950609 0
M  V30 6 C 6.446899 1.016960 0.726628 0
M  V30 7 C 5.609297 2.162576 0.142493 0
M  V30 8 C 4.225314 1.612340 0.330987 0 CFG=1
M  V30 9 C 3.191692 2.234557 -0.579976 0
M  V30 10 N 1.951712 1.527884 -0.428192 0
M  V30 11 C 0.837568 2.275581 0.044712 0
M  V30 12 O 1.291508 3.459466 0.210092 0
M  V30 13 N -0.478967 1.739497 0.262049 0
M  V30 14 C -1.065599 0.404094 0.098121 0
M  V30 15 C -2.373784 0.576166 0.772626 0
M  V30 16 C -3.502784 -0.100874 1.190942 0
M  V30 17 N -3.757756 -1.509948 1.032913 0
M  V30 18 C -3.357523 -2.443676 2.018987 0
M  V30 19 O -2.765635 -2.127747 3.079426 0
M  V30 20 C -3.702326 -3.843318 1.686083 0
M  V30 21 C -4.341084 -4.405807 0.598250 0
M  V30 22 C -4.402208 -5.778513 0.798735 0
M  V30 23 C -5.017485 -6.726340 -0.154142 0
M  V30 24 C -4.079636 -7.927253 -0.507908 0
M  V30 25 C -5.389810 -8.096670 0.179539 0
M  V30 26 N -3.818670 -6.029793 1.969224 0
M  V30 27 N -3.398851 -4.876133 2.503161 0
M  V30 28 N -4.333308 0.775308 1.773639 0
M  V30 29 N -3.801567 1.995645 1.756903 0
M  V30 30 C -2.608078 1.881790 1.148663 0
M  V30 31 C -1.452372 2.726567 0.750358 0
M  V30 32 C -1.805802 3.637923 -0.408860 0
M  V30 33 C -0.970760 3.464667 1.947859 0
M  V30 34 H 4.006833 0.292557 -2.085678 0
M  V30 35 H 2.816791 -0.925681 -2.562482 0
M  V30 36 H 2.439885 0.788083 -2.906585 0
M  V30 37 H 1.312471 -0.453272 -0.954776 0
M  V30 38 H 2.853451 -0.160966 1.201962 0
M  V30 39 H 3.238265 -1.550570 0.058435 0
M  V30 40 H 5.049746 -0.080704 1.996272 0
M  V30 41 H 5.876487 -1.113535 0.700750 0
M  V30 42 H 6.900353 1.379301 1.657448 0
M  V30 43 H 7.173334 0.660635 -0.012294 0
M  V30 44 H 5.794941 3.103053 0.700488 0
M  V30 45 H 5.773353 2.274695 -0.947255 0
M  V30 46 H 3.877982 1.626257 1.368128 0
M  V30 47 H 3.569489 2.230220 -1.627502 0
M  V30 48 H 3.133146 3.298493 -0.286853 0
M  V30 49 H -0.415228 -0.304128 0.690802 0
M  V30 50 H -1.111501 0.062406 -0.930692 0
M  V30 51 H -4.250852 -1.736963 0.141176 0
M  V30 52 H -4.698175 -3.783797 -0.226163 0
M  V30 53 H -5.439534 -6.237449 -1.048732 0
M  V30 54 H -3.958520 -8.163973 -1.563730 0
M  V30 55 H -3.155047 -8.029993 0.078746 0
M  V30 56 H -6.205454 -8.560623 -0.409849 0
M  V30 57 H -5.397792 -8.397251 1.242826 0
M  V30 58 H -2.908767 -4.883153 3.439092 0
M  V30 59 H -4.237201 2.873086 2.146168 0
M  V30 60 H -1.951603 2.979355 -1.298090 0
M  V30 61 H -2.699001 4.235958 -0.208961 0
M  V30 62 H -0.918624 4.302803 -0.543156 0
M  V30 63 H -0.685589 4.506974 1.647664 0
M  V30 64 H -0.072109 3.029435 2.419491 0
M  V30 65 H -1.768465 3.608779 2.721451 0
M  V30 END ATOM
M  V30 BEGIN BOND
M  V30 1 1 1 2
M  V30 2 1 2 3
M  V30 3 1 3 4
M  V30 4 1 4 5
M  V30 5 1 5 6
M  V30 6 1 6 7
M  V30 7 1 7 8
M  V30 8 1 8 9
M  V30 9 1 9 10
M  V30 10 1 10 11
M  V30 11 2 11 12
M  V30 12 1 11 13
M  V30 13 1 13 14
M  V30 14 1 14 15
M  V30 15 1 15 16
M  V30 16 1 16 17
M  V30 17 1 17 18
M  V30 18 2 18 19
M  V30 19 1 18 20
M  V30 20 2 20 21
M  V30 21 1 21 22
M  V30 22 1 22 23
M  V30 23 1 23 24
M  V30 24 1 24 25
M  V30 25 2 22 26
M  V30 26 1 26 27
M  V30 27 2 16 28
M  V30 28 1 28 29
M  V30 29 1 29 30
M  V30 30 1 30 31
M  V30 31 1 31 32
M  V30 32 1 31 33
M  V30 33 1 10 2
M  V30 34 1 31 13
M  V30 35 1 8 4
M  V30 36 2 30 15
M  V30 37 1 27 20
M  V30 38 1 25 23
M  V30 39 1 1 34
M  V30 40 1 1 35
M  V30 41 1 1 36
M  V30 42 1 2 37 CFG=3
M  V30 43 1 3 38
M  V30 44 1 3 39
M  V30 45 1 5 40
M  V30 46 1 5 41
M  V30 47 1 6 42
M  V30 48 1 6 43
M  V30 49 1 7 44
M  V30 50 1 7 45
M  V30 51 1 8 46 CFG=1
M  V30 52 1 9 47
M  V30 53 1 9 48
M  V30 54 1 14 49
M  V30 55 1 14 50
M  V30 56 1 17 51
M  V30 57 1 21 52
M  V30 58 1 23 53
M  V30 59 1 24 54
M  V30 60 1 24 55
M  V30 61 1 25 56
M  V30 62 1 25 57
M  V30 63 1 27 58
M  V30 64 1 29 59
M  V30 65 1 32 60
M  V30 66 1 32 61
M  V30 67 1 32 62
M  V30 68 1 33 63
M  V30 69 1 33 64
M  V30 70 1 33 65
M  V30 END BOND
M  V30 END CTAB
M  END
>  <Dataset>  (452) 
ChEMBL_Kinases

>  <Ligand_Instance>  (452) 
nan

>  <PDB_ID>  (452) 
nan

>  <Standardized_SMILES>  (452) 
C[C@H]1CN2CCC[C@H]2CN1C(=O)N1Cc2c(NC(=O)c3cc(C4CC4)n[nH]3)n[nH]c2C1(C)C

>  <Name>  (452) 
nan

>  <Pocket>  (452) 
nan

>  <ATP_Site>  (452) 
nan

>  <Peripheral>  (452) 
nan

>  <Num_H_Atoms_ProtBoundConf>  (452) 
nan

>  <Num_Resolved_Atoms>  (452) 
nan

>  <Num_Not_Resolved_Atoms>  (452) 
nan

$$$$
CHEMBL3662885
     RDKit          3D

  0  0  0  0  0  0  0  0  0  0999 V3000
M  V30 BEGIN CTAB
M  V30 COUNTS 65 70 0 0 0
M  V30 BEGIN ATOM
M  V30 1 C 3.812689 2.169738 3.002367 0
M  V30 2 C 3.628073 1.449074 1.659460 0 CFG=1
M  V30 3 C 4.621064 0.382702 1.556753 0
M  V30 4 N 4.245817 -0.865838 0.967666 0
M  V30 5 C 4.730779 -2.012351 1.665689 0
M  V30 6 C 3.778349 -3.129930 1.297627 0
M  V30 7 C 2.563258 -2.477707 0.714062 0
M  V30 8 C 2.857655 -1.025524 0.741660 0 CFG=1
M  V30 9 C 2.171928 -0.351302 1.939242 0
M  V30 10 N 2.229820 1.069408 1.635097 0
M  V30 11 C 1.321388 2.153161 1.323846 0
M  V30 12 O 1.845479 3.308104 1.129411 0
M  V30 13 N -0.091754 2.130287 1.198623 0
M  V30 14 C -1.213157 1.181178 1.286500 0
M  V30 15 C -1.926762 1.429852 0.000967 0
M  V30 16 C -2.672905 0.887530 -1.052536 0
M  V30 17 N -3.043025 -0.496382 -1.168195 0
M  V30 18 C -4.194877 -1.135712 -0.685350 0
M  V30 19 O -5.087084 -0.518091 -0.055533 0
M  V30 20 C -4.306281 -2.564953 -0.952982 0
M  V30 21 C -5.431606 -3.244864 -0.492869 0
M  V30 22 N -5.552411 -4.566422 -0.730468 0
M  V30 23 C -4.627757 -5.275035 -1.399759 0
M  V30 24 C -4.758971 -6.615931 -1.636221 0
M  V30 25 C -3.774805 -7.279340 -2.327921 0
M  V30 26 C -2.633741 -6.657022 -2.809878 0
M  V30 27 C -2.532243 -5.292951 -2.551759 0
M  V30 28 C -3.510409 -4.604212 -1.857535 0
M  V30 29 N -3.397499 -3.285213 -1.616242 0
M  V30 30 N -2.947857 1.907106 -1.885683 0
M  V30 31 N -2.433428 3.039259 -1.436021 0
M  V30 32 C -1.802309 2.768246 -0.278578 0
M  V30 33 C -0.997382 3.219728 0.908264 0
M  V30 34 C -2.003130 3.468330 2.015848 0
M  V30 35 C -0.294175 4.521591 0.601300 0
M  V30 36 H 4.907836 2.255993 3.152908 0
M  V30 37 H 3.347203 1.466143 3.743912 0
M  V30 38 H 3.323536 3.141170 2.933990 0
M  V30 39 H 3.765313 2.249135 0.902004 0
M  V30 40 H 5.120031 0.152937 2.521891 0
M  V30 41 H 5.470915 0.765725 0.915748 0
M  V30 42 H 5.742558 -2.309194 1.309056 0
M  V30 43 H 4.754516 -1.882296 2.769826 0
M  V30 44 H 4.193417 -3.814841 0.532383 0
M  V30 45 H 3.498424 -3.752092 2.195841 0
M  V30 46 H 1.617283 -2.760092 1.216928 0
M  V30 47 H 2.405800 -2.763961 -0.359327 0
M  V30 48 H 2.593484 -0.488135 -0.191474 0
M  V30 49 H 1.183233 -0.785640 1.979392 0
M  V30 50 H 2.770379 -0.519420 2.856083 0
M  V30 51 H -0.817152 0.142654 1.322714 0
M  V30 52 H -1.876357 1.383099 2.131741 0
M  V30 53 H -2.284918 -1.015438 -1.702108 0
M  V30 54 H -6.197668 -2.689172 0.054513 0
M  V30 55 H -5.612593 -7.157706 -1.293253 0
M  V30 56 H -3.894526 -8.332653 -2.504365 0
M  V30 57 H -1.848956 -7.147642 -3.352598 0
M  V30 58 H -1.658624 -4.783674 -2.913185 0
M  V30 59 H -2.466839 4.001265 -1.843132 0
M  V30 60 H -2.196653 4.575358 2.021097 0
M  V30 61 H -2.986177 3.019013 1.770215 0
M  V30 62 H -1.618517 3.181143 3.023244 0
M  V30 63 H 0.406672 4.449412 -0.226360 0
M  V30 64 H -1.107100 5.265551 0.417067 0
M  V30 65 H 0.211685 4.859038 1.513188 0
M  V30 END ATOM
M  V30 BEGIN BOND
M  V30 1 1 1 2
M  V30 2 1 2 3
M  V30 3 1 3 4
M  V30 4 1 4 5
M  V30 5 1 5 6
M  V30 6 1 6 7
M  V30 7 1 7 8
M  V30 8 1 8 9
M  V30 9 1 9 10
M  V30 10 1 10 11
M  V30 11 2 11 12
M  V30 12 1 11 13
M  V30 13 1 13 14
M  V30 14 1 14 15
M  V30 15 1 15 16
M  V30 16 1 16 17
M  V30 17 1 17 18
M  V30 18 2 18 19
M  V30 19 1 18 20
M  V30 20 2 20 21
M  V30 21 1 21 22
M  V30 22 2 22 23
M  V30 23 1 23 24
M  V30 24 2 24 25
M  V30 25 1 25 26
M  V30 26 2 26 27
M  V30 27 1 27 28
M  V30 28 2 28 29
M  V30 29 2 16 30
M  V30 30 1 30 31
M  V30 31 1 31 32
M  V30 32 1 32 33
M  V30 33 1 33 34
M  V30 34 1 33 35
M  V30 35 1 10 2
M  V30 36 1 33 13
M  V30 37 1 8 4
M  V30 38 2 32 15
M  V30 39 1 29 20
M  V30 40 1 28 23
M  V30 41 1 1 36
M  V30 42 1 1 37
M  V30 43 1 1 38
M  V30 44 1 2 39 CFG=3
M  V30 45 1 3 40
M  V30 46 1 3 41
M  V30 47 1 5 42
M  V30 48 1 5 43
M  V30 49 1 6 44
M  V30 50 1 6 45
M  V30 51 1 7 46
M  V30 52 1 7 47
M  V30 53 1 8 48 CFG=3
M  V30 54 1 9 49
M  V30 55 1 9 50
M  V30 56 1 14 51
M  V30 57 1 14 52
M  V30 58 1 17 53
M  V30 59 1 21 54
M  V30 60 1 24 55
M  V30 61 1 25 56
M  V30 62 1 26 57
M  V30 63 1 27 58
M  V30 64 1 31 59
M  V30 65 1 34 60
M  V30 66 1 34 61
M  V30 67 1 34 62
M  V30 68 1 35 63
M  V30 69 1 35 64
M  V30 70 1 35 65
M  V30 END BOND
M  V30 END CTAB
M  END
>  <Dataset>  (453) 
ChEMBL_Kinases

>  <Ligand_Instance>  (453) 
nan

>  <PDB_ID>  (453) 
nan

>  <Standardized_SMILES>  (453) 
C[C@H]1CN2CCC[C@H]2CN1C(=O)N1Cc2c(NC(=O)c3cnc4ccccc4n3)n[nH]c2C1(C)C

>  <Name>  (453) 
nan

>  <Pocket>  (453) 
nan

>  <ATP_Site>  (453) 
nan

>  <Peripheral>  (453) 
nan

>  <Num_H_Atoms_ProtBoundConf>  (453) 
nan

>  <Num_Resolved_Atoms>  (453) 
nan

>  <Num_Not_Resolved_Atoms>  (453) 
nan

$$$$
CHEMBL3662886
     RDKit          3D

  0  0  0  0  0  0  0  0  0  0999 V3000
M  V30 BEGIN CTAB
M  V30 COUNTS 61 65 0 0 0
M  V30 BEGIN ATOM
M  V30 1 C 1.822001 -2.099908 4.375513 0
M  V30 2 C 1.485117 -2.656294 2.985940 0 CFG=1
M  V30 3 C 0.315583 -3.555832 3.077782 0
M  V30 4 N -0.962646 -2.964589 2.949152 0
M  V30 5 C -1.894960 -3.153850 3.997008 0
M  V30 6 C -2.222746 -1.756325 4.478720 0
M  V30 7 C -2.185385 -0.979787 3.179399 0
M  V30 8 C -1.023322 -1.637948 2.467850 0 CFG=1
M  V30 9 C 0.191929 -0.806055 2.677219 0
M  V30 10 N 1.321866 -1.524641 2.068309 0
M  V30 11 C 2.204363 -1.415196 0.931343 0
M  V30 12 O 3.074031 -2.357229 0.865702 0
M  V30 13 N 2.231049 -0.426356 -0.093020 0
M  V30 14 C 1.513680 0.779480 -0.482828 0
M  V30 15 C 1.211090 0.470725 -1.926566 0
M  V30 16 C 0.342191 0.605116 -3.004732 0
M  V30 17 N -0.890250 1.332764 -2.919306 0
M  V30 18 C -1.961903 0.467832 -2.516326 0
M  V30 19 O -1.571431 -0.706314 -2.336318 0
M  V30 20 C -3.319237 0.976267 -2.357934 0
M  V30 21 C -3.729873 2.270828 -2.559907 0
M  V30 22 C -5.079421 2.239049 -2.284714 0
M  V30 23 N -5.437065 1.000342 -1.942263 0
M  V30 24 N -4.355313 0.209288 -1.983980 0
M  V30 25 C -4.405070 -1.207304 -1.663852 0
M  V30 26 N 0.904697 -0.058027 -4.038498 0
M  V30 27 N 2.057515 -0.588301 -3.665974 0
M  V30 28 C 2.275758 -0.279539 -2.365645 0
M  V30 29 C 3.178646 -0.400222 -1.187836 0
M  V30 30 C 4.038695 -1.637111 -1.283560 0
M  V30 31 C 4.098856 0.797670 -1.121084 0
M  V30 32 H 0.873790 -2.135354 4.954669 0
M  V30 33 H 2.471662 -2.872699 4.871497 0
M  V30 34 H 2.297293 -1.113566 4.332066 0
M  V30 35 H 2.366732 -3.222494 2.659567 0
M  V30 36 H 0.405323 -4.386743 2.345042 0
M  V30 37 H 0.357959 -4.049528 4.086153 0
M  V30 38 H -2.857190 -3.537964 3.547488 0
M  V30 39 H -1.585431 -3.842837 4.807932 0
M  V30 40 H -1.408515 -1.430494 5.139033 0
M  V30 41 H -3.219555 -1.709366 4.961042 0
M  V30 42 H -3.120052 -1.196108 2.634617 0
M  V30 43 H -2.018195 0.103726 3.336349 0
M  V30 44 H -1.296071 -1.671392 1.394154 0
M  V30 45 H 0.380544 -0.571880 3.743675 0
M  V30 46 H 0.003855 0.175449 2.199907 0
M  V30 47 H 0.575754 0.945193 0.077585 0
M  V30 48 H 2.214912 1.630405 -0.395360 0
M  V30 49 H -1.050426 2.348934 -3.110496 0
M  V30 50 H -3.129011 3.132065 -2.867991 0
M  V30 51 H -5.764636 3.096811 -2.336477 0
M  V30 52 H -4.749486 -1.812264 -2.507025 0
M  V30 53 H -5.157647 -1.352650 -0.838207 0
M  V30 54 H -3.447642 -1.597005 -1.259461 0
M  V30 55 H 2.703620 -1.156667 -4.272193 0
M  V30 56 H 4.620097 -1.511509 -2.229020 0
M  V30 57 H 3.495021 -2.571677 -1.394499 0
M  V30 58 H 4.787140 -1.585530 -0.480075 0
M  V30 59 H 5.135923 0.532074 -1.418344 0
M  V30 60 H 3.697418 1.598330 -1.772365 0
M  V30 61 H 4.160556 1.165590 -0.093430 0
M  V30 END ATOM
M  V30 BEGIN BOND
M  V30 1 1 1 2
M  V30 2 1 2 3
M  V30 3 1 3 4
M  V30 4 1 4 5
M  V30 5 1 5 6
M  V30 6 1 6 7
M  V30 7 1 7 8
M  V30 8 1 8 9
M  V30 9 1 9 10
M  V30 10 1 10 11
M  V30 11 2 11 12
M  V30 12 1 11 13
M  V30 13 1 13 14
M  V30 14 1 14 15
M  V30 15 1 15 16
M  V30 16 1 16 17
M  V30 17 1 17 18
M  V30 18 2 18 19
M  V30 19 1 18 20
M  V30 20 2 20 21
M  V30 21 1 21 22
M  V30 22 2 22 23
M  V30 23 1 23 24
M  V30 24 1 24 25
M  V30 25 2 16 26
M  V30 26 1 26 27
M  V30 27 1 27 28
M  V30 28 1 28 29
M  V30 29 1 29 30
M  V30 30 1 29 31
M  V30 31 1 10 2
M  V30 32 1 29 13
M  V30 33 1 8 4
M  V30 34 2 28 15
M  V30 35 1 24 20
M  V30 36 1 1 32
M  V30 37 1 1 33
M  V30 38 1 1 34
M  V30 39 1 2 35 CFG=3
M  V30 40 1 3 36
M  V30 41 1 3 37
M  V30 42 1 5 38
M  V30 43 1 5 39
M  V30 44 1 6 40
M  V30 45 1 6 41
M  V30 46 1 7 42
M  V30 47 1 7 43
M  V30 48 1 8 44 CFG=3
M  V30 49 1 9 45
M  V30 50 1 9 46
M  V30 51 1 14 47
M  V30 52 1 14 48
M  V30 53 1 17 49
M  V30 54 1 21 50
M  V30 55 1 22 51
M  V30 56 1 25 52
M  V30 57 1 25 53
M  V30 58 1 25 54
M  V30 59 1 27 55
M  V30 60 1 30 56
M  V30 61 1 30 57
M  V30 62 1 30 58
M  V30 63 1 31 59
M  V30 64 1 31 60
M  V30 65 1 31 61
M  V30 END BOND
M  V30 END CTAB
M  END
>  <Dataset>  (454) 
ChEMBL_Kinases

>  <Ligand_Instance>  (454) 
nan

>  <PDB_ID>  (454) 
nan

>  <Standardized_SMILES>  (454) 
C[C@H]1CN2CCC[C@H]2CN1C(=O)N1Cc2c(NC(=O)c3ccnn3C)n[nH]c2C1(C)C

>  <Name>  (454) 
nan

>  <Pocket>  (454) 
nan

>  <ATP_Site>  (454) 
nan

>  <Peripheral>  (454) 
nan

>  <Num_H_Atoms_ProtBoundConf>  (454) 
nan

>  <Num_Resolved_Atoms>  (454) 
nan

>  <Num_Not_Resolved_Atoms>  (454) 
nan

$$$$
CHEMBL3662887
     RDKit          3D

  0  0  0  0  0  0  0  0  0  0999 V3000
M  V30 BEGIN CTAB
M  V30 COUNTS 60 64 0 0 0
M  V30 BEGIN ATOM
M  V30 1 C -1.298068 3.329048 7.037271 0
M  V30 2 C -0.848487 1.976267 6.496993 0
M  V30 3 N -0.114103 1.716268 5.655899 0
M  V30 4 C 0.253861 0.526456 5.212283 0
M  V30 5 C 1.196197 0.269684 4.134608 0
M  V30 6 O 1.521425 -0.878452 3.740912 0
M  V30 7 N 1.860944 1.285338 3.399050 0
M  V30 8 C 2.752254 0.825250 2.375259 0
M  V30 9 N 4.075778 0.525831 2.418925 0
M  V30 10 N 4.473238 0.136195 1.210315 0
M  V30 11 C 3.420564 0.174195 0.359768 0
M  V30 12 C 2.325578 0.604663 1.068492 0
M  V30 13 C 1.258963 0.599367 0.026976 0
M  V30 14 N 1.548545 -0.563066 -0.823365 0
M  V30 15 C 1.007946 -1.764977 -1.371101 0
M  V30 16 O 1.798979 -2.442663 -2.109976 0
M  V30 17 N -0.317729 -2.314249 -1.198229 0
M  V30 18 C -1.537394 -1.919395 -0.474360 0
M  V30 19 C -2.601952 -1.716065 -1.503769 0 CFG=2
M  V30 20 C -4.001494 -1.634144 -0.929979 0
M  V30 21 C -4.778718 -1.694767 -2.254434 0
M  V30 22 C -3.827221 -2.390748 -3.237710 0
M  V30 23 N -2.794971 -2.863159 -2.374007 0
M  V30 24 C -1.558282 -3.227030 -3.018525 0
M  V30 25 C -0.610393 -3.576234 -1.871795 0 CFG=2
M  V30 26 C -1.290321 -4.545998 -0.929523 0
M  V30 27 C 2.872416 -0.035752 -1.018483 0
M  V30 28 C 2.922961 1.288881 -1.716442 0
M  V30 29 C 3.810311 -1.008344 -1.729119 0
M  V30 30 C -0.362166 -0.556243 5.890559 0
M  V30 31 S -1.403842 0.258585 7.092920 0
M  V30 32 H -1.827866 3.151386 8.017395 0
M  V30 33 H -1.963787 3.834444 6.319150 0
M  V30 34 H -0.381138 3.857133 7.294294 0
M  V30 35 H 1.662694 2.301055 3.645566 0
M  V30 36 H 5.442069 -0.160762 0.925278 0
M  V30 37 H 1.249819 1.546082 -0.557043 0
M  V30 38 H 0.292173 0.532283 0.541530 0
M  V30 39 H -1.423356 -0.976948 0.068280 0
M  V30 40 H -1.871245 -2.754364 0.198567 0
M  V30 41 H -2.471202 -0.786996 -2.093438 0
M  V30 42 H -4.247414 -2.583034 -0.413647 0
M  V30 43 H -4.204709 -0.734796 -0.352715 0
M  V30 44 H -4.835293 -0.629081 -2.578977 0
M  V30 45 H -5.741756 -2.194682 -2.160374 0
M  V30 46 H -4.343005 -3.175850 -3.814971 0
M  V30 47 H -3.350089 -1.650017 -3.933770 0
M  V30 48 H -1.080989 -2.373522 -3.552802 0
M  V30 49 H -1.745889 -4.064612 -3.693403 0
M  V30 50 H 0.336108 -4.009568 -2.268018 0
M  V30 51 H -1.110093 -5.579179 -1.312680 0
M  V30 52 H -2.381996 -4.390954 -0.871030 0
M  V30 53 H -0.891287 -4.517712 0.101136 0
M  V30 54 H 3.829454 1.277822 -2.391124 0
M  V30 55 H 3.117652 2.151937 -1.032596 0
M  V30 56 H 2.077434 1.462395 -2.405919 0
M  V30 57 H 3.566621 -1.125248 -2.793569 0
M  V30 58 H 3.881880 -1.981931 -1.232859 0
M  V30 59 H 4.831185 -0.547065 -1.646903 0
M  V30 60 H -0.214121 -1.607923 5.700099 0
M  V30 END ATOM
M  V30 BEGIN BOND
M  V30 1 1 1 2
M  V30 2 2 2 3
M  V30 3 1 3 4
M  V30 4 1 4 5
M  V30 5 2 5 6
M  V30 6 1 5 7
M  V30 7 1 7 8
M  V30 8 2 8 9
M  V30 9 1 9 10
M  V30 10 1 10 11
M  V30 11 2 11 12
M  V30 12 1 12 13
M  V30 13 1 13 14
M  V30 14 1 14 15
M  V30 15 2 15 16
M  V30 16 1 15 17
M  V30 17 1 17 18
M  V30 18 1 18 19
M  V30 19 1 19 20
M  V30 20 1 20 21
M  V30 21 1 21 22
M  V30 22 1 22 23
M  V30 23 1 23 24
M  V30 24 1 24 25
M  V30 25 1 25 26
M  V30 26 1 14 27
M  V30 27 1 27 28
M  V30 28 1 27 29
M  V30 29 2 4 30
M  V30 30 1 30 31
M  V30 31 1 31 2
M  V30 32 1 12 8
M  V30 33 1 25 17
M  V30 34 1 27 11
M  V30 35 1 23 19
M  V30 36 1 1 32
M  V30 37 1 1 33
M  V30 38 1 1 34
M  V30 39 1 7 35
M  V30 40 1 10 36
M  V30 41 1 13 37
M  V30 42 1 13 38
M  V30 43 1 18 39
M  V30 44 1 18 40
M  V30 45 1 19 41 CFG=3
M  V30 46 1 20 42
M  V30 47 1 20 43
M  V30 48 1 21 44
M  V30 49 1 21 45
M  V30 50 1 22 46
M  V30 51 1 22 47
M  V30 52 1 24 48
M  V30 53 1 24 49
M  V30 54 1 25 50 CFG=3
M  V30 55 1 26 51
M  V30 56 1 26 52
M  V30 57 1 26 53
M  V30 58 1 28 54
M  V30 59 1 28 55
M  V30 60 1 28 56
M  V30 61 1 29 57
M  V30 62 1 29 58
M  V30 63 1 29 59
M  V30 64 1 30 60
M  V30 END BOND
M  V30 END CTAB
M  END
>  <Dataset>  (455) 
ChEMBL_Kinases

>  <Ligand_Instance>  (455) 
nan

>  <PDB_ID>  (455) 
nan

>  <Standardized_SMILES>  (455) 
Cc1nc(C(=O)Nc2n[nH]c3c2CN(C(=O)N2C[C@@H]4CCCN4C[C@@H]2C)C3(C)C)cs1

>  <Name>  (455) 
nan

>  <Pocket>  (455) 
nan

>  <ATP_Site>  (455) 
nan

>  <Peripheral>  (455) 
nan

>  <Num_H_Atoms_ProtBoundConf>  (455) 
nan

>  <Num_Resolved_Atoms>  (455) 
nan

>  <Num_Not_Resolved_Atoms>  (455) 
nan

$$$$
CHEMBL3662888
     RDKit          3D

  0  0  0  0  0  0  0  0  0  0999 V3000
M  V30 BEGIN CTAB
M  V30 COUNTS 73 77 0 0 0
M  V30 BEGIN ATOM
M  V30 1 C 4.706002 2.508135 0.634760 0
M  V30 2 C 4.727930 1.361470 -0.347324 0 CFG=1
M  V30 3 C 5.718638 0.322414 -0.030238 0
M  V30 4 N 5.349429 -0.672041 0.934879 0
M  V30 5 C 5.646397 -0.400933 2.291870 0
M  V30 6 C 4.369055 -0.009919 2.970799 0
M  V30 7 C 3.287476 -0.473888 2.072942 0
M  V30 8 C 3.947370 -1.017619 0.852153 0 CFG=1
M  V30 9 C 3.355193 -0.529417 -0.452752 0
M  V30 10 N 3.365655 0.897611 -0.589282 0
M  V30 11 C 2.464535 1.996864 -0.881088 0
M  V30 12 O 2.901913 3.208006 -0.940464 0
M  V30 13 N 1.048434 1.810438 -1.119607 0
M  V30 14 C 0.231070 0.611685 -1.101989 0
M  V30 15 C -1.154752 1.095277 -1.229963 0
M  V30 16 C -2.433503 0.583080 -1.203043 0
M  V30 17 N -2.979616 -0.720760 -1.034692 0
M  V30 18 C -3.250606 -1.069336 0.336692 0
M  V30 19 O -2.961747 -0.165329 1.177588 0
M  V30 20 C -3.812966 -2.369006 0.689785 0
M  V30 21 C -4.154571 -3.401029 -0.160646 0
M  V30 22 C -4.637647 -4.398467 0.660481 0
M  V30 23 C -5.152870 -5.750891 0.266796 0
M  V30 24 C -3.978295 -6.702924 0.272195 0
M  V30 25 C -6.259494 -6.171747 1.206338 0
M  V30 26 C -5.706033 -5.720213 -1.147576 0
M  V30 27 N -4.570944 -3.947170 1.920956 0
M  V30 28 N -4.070467 -2.709445 1.965854 0
M  V30 29 C -3.855416 -1.906850 3.174429 0
M  V30 30 N -3.227538 1.673866 -1.390182 0
M  V30 31 N -2.465532 2.754934 -1.518632 0
M  V30 32 C -1.164964 2.452134 -1.427030 0
M  V30 33 C 0.212657 2.964130 -1.454041 0
M  V30 34 C 0.348697 4.067629 -0.459364 0
M  V30 35 C 0.619190 3.409580 -2.849550 0
M  V30 36 H 5.493388 2.287081 1.396454 0
M  V30 37 H 3.717564 2.567807 1.130013 0
M  V30 38 H 4.896949 3.494231 0.163518 0
M  V30 39 H 5.029105 1.821911 -1.335606 0
M  V30 40 H 6.081733 -0.225678 -0.939877 0
M  V30 41 H 6.625606 0.825390 0.377487 0
M  V30 42 H 6.460180 0.349474 2.391748 0
M  V30 43 H 6.041368 -1.338937 2.793222 0
M  V30 44 H 4.325634 -0.522754 3.972204 0
M  V30 45 H 4.369211 1.091680 3.136097 0
M  V30 46 H 2.564676 0.323479 1.786893 0
M  V30 47 H 2.698854 -1.262422 2.625270 0
M  V30 48 H 3.876793 -2.121913 0.877707 0
M  V30 49 H 3.987493 -1.000679 -1.252963 0
M  V30 50 H 2.347673 -0.925882 -0.536290 0
M  V30 51 H 0.510166 -0.156370 -1.808598 0
M  V30 52 H 0.385014 0.190844 -0.060463 0
M  V30 53 H -3.220603 -1.477449 -1.744898 0
M  V30 54 H -4.067036 -3.429943 -1.229954 0
M  V30 55 H -3.109012 -6.151104 -0.141593 0
M  V30 56 H -4.164691 -7.613570 -0.321345 0
M  V30 57 H -3.787436 -6.946503 1.349191 0
M  V30 58 H -7.003312 -6.740842 0.619633 0
M  V30 59 H -5.906342 -6.749160 2.071517 0
M  V30 60 H -6.748205 -5.240510 1.576487 0
M  V30 61 H -5.647342 -6.781529 -1.519643 0
M  V30 62 H -6.772949 -5.447856 -1.174320 0
M  V30 63 H -5.081786 -5.117349 -1.841095 0
M  V30 64 H -2.819631 -1.515309 3.228226 0
M  V30 65 H -4.530392 -1.019326 3.129965 0
M  V30 66 H -4.121491 -2.510249 4.041632 0
M  V30 67 H -2.844082 3.723952 -1.672864 0
M  V30 68 H -0.655636 4.500771 -0.275589 0
M  V30 69 H 0.758176 3.691648 0.495849 0
M  V30 70 H 0.981792 4.906389 -0.820193 0
M  V30 71 H -0.020523 4.242189 -3.211015 0
M  V30 72 H 0.446767 2.555840 -3.535291 0
M  V30 73 H 1.680383 3.636748 -2.869441 0
M  V30 END ATOM
M  V30 BEGIN BOND
M  V30 1 1 1 2
M  V30 2 1 2 3
M  V30 3 1 3 4
M  V30 4 1 4 5
M  V30 5 1 5 6
M  V30 6 1 6 7
M  V30 7 1 7 8
M  V30 8 1 8 9
M  V30 9 1 9 10
M  V30 10 1 10 11
M  V30 11 2 11 12
M  V30 12 1 11 13
M  V30 13 1 13 14
M  V30 14 1 14 15
M  V30 15 1 15 16
M  V30 16 1 16 17
M  V30 17 1 17 18
M  V30 18 2 18 19
M  V30 19 1 18 20
M  V30 20 2 20 21
M  V30 21 1 21 22
M  V30 22 1 22 23
M  V30 23 1 23 24
M  V30 24 1 23 25
M  V30 25 1 23 26
M  V30 26 2 22 27
M  V30 27 1 27 28
M  V30 28 1 28 29
M  V30 29 2 16 30
M  V30 30 1 30 31
M  V30 31 1 31 32
M  V30 32 1 32 33
M  V30 33 1 33 34
M  V30 34 1 33 35
M  V30 35 1 10 2
M  V30 36 1 33 13
M  V30 37 1 8 4
M  V30 38 2 32 15
M  V30 39 1 28 20
M  V30 40 1 1 36
M  V30 41 1 1 37
M  V30 42 1 1 38
M  V30 43 1 2 39 CFG=3
M  V30 44 1 3 40
M  V30 45 1 3 41
M  V30 46 1 5 42
M  V30 47 1 5 43
M  V30 48 1 6 44
M  V30 49 1 6 45
M  V30 50 1 7 46
M  V30 51 1 7 47
M  V30 52 1 8 48 CFG=3
M  V30 53 1 9 49
M  V30 54 1 9 50
M  V30 55 1 14 51
M  V30 56 1 14 52
M  V30 57 1 17 53
M  V30 58 1 21 54
M  V30 59 1 24 55
M  V30 60 1 24 56
M  V30 61 1 24 57
M  V30 62 1 25 58
M  V30 63 1 25 59
M  V30 64 1 25 60
M  V30 65 1 26 61
M  V30 66 1 26 62
M  V30 67 1 26 63
M  V30 68 1 29 64
M  V30 69 1 29 65
M  V30 70 1 29 66
M  V30 71 1 31 67
M  V30 72 1 34 68
M  V30 73 1 34 69
M  V30 74 1 34 70
M  V30 75 1 35 71
M  V30 76 1 35 72
M  V30 77 1 35 73
M  V30 END BOND
M  V30 END CTAB
M  END
>  <Dataset>  (456) 
ChEMBL_Kinases

>  <Ligand_Instance>  (456) 
nan

>  <PDB_ID>  (456) 
nan

>  <Standardized_SMILES>  (456) 
C[C@H]1CN2CCC[C@H]2CN1C(=O)N1Cc2c(NC(=O)c3cc(C(C)(C)C)nn3C)n[nH]c2C1(C)C

>  <Name>  (456) 
nan

>  <Pocket>  (456) 
nan

>  <ATP_Site>  (456) 
nan

>  <Peripheral>  (456) 
nan

>  <Num_H_Atoms_ProtBoundConf>  (456) 
nan

>  <Num_Resolved_Atoms>  (456) 
nan

>  <Num_Not_Resolved_Atoms>  (456) 
nan

$$$$
CHEMBL3662880
     RDKit          3D

  0  0  0  0  0  0  0  0  0  0999 V3000
M  V30 BEGIN CTAB
M  V30 COUNTS 63 67 0 0 0
M  V30 BEGIN ATOM
M  V30 1 C 6.760043 -0.402301 7.213487 0
M  V30 2 C 5.262655 -0.172553 7.149915 0
M  V30 3 C 4.832355 0.042436 5.734440 0
M  V30 4 C 4.448800 -1.033238 4.925634 0
M  V30 5 C 4.121416 -0.471171 3.706445 0
M  V30 6 C 3.659538 -1.196778 2.527992 0
M  V30 7 O 3.558120 -2.465732 2.649917 0
M  V30 8 N 3.350577 -0.497430 1.333488 0
M  V30 9 C 2.904259 -1.271228 0.219534 0
M  V30 10 N 3.570540 -1.860590 -0.790346 0
M  V30 11 N 2.710787 -2.480270 -1.601443 0
M  V30 12 C 1.460389 -2.304563 -1.131336 0
M  V30 13 C 1.564338 -1.543954 0.017172 0
M  V30 14 C 0.115539 -1.435970 0.417021 0
M  V30 15 N -0.580066 -1.415114 -0.851935 0
M  V30 16 C -1.499824 -0.493942 -1.327213 0
M  V30 17 O -1.297399 0.054341 -0.215586 0
M  V30 18 N -2.438671 0.407601 -1.864255 0
M  V30 19 C -2.896967 1.587590 -1.134364 0
M  V30 20 C -4.373380 1.782583 -1.170347 0 CFG=2
M  V30 21 C -4.899044 1.821772 0.251004 0
M  V30 22 C -5.533984 0.444828 0.429666 0
M  V30 23 C -5.821706 -0.039995 -0.971874 0
M  V30 24 N -5.137658 0.824709 -1.869285 0
M  V30 25 C -4.589541 0.265821 -3.040084 0
M  V30 26 C -3.093094 0.352779 -3.151772 0 CFG=2
M  V30 27 C -2.569704 -0.694917 -4.077089 0
M  V30 28 C 0.003449 -2.613771 -1.370859 0
M  V30 29 C -0.202064 -2.872002 -2.818643 0
M  V30 30 C -0.398994 -3.839794 -0.562581 0
M  V30 31 N 4.310278 0.856985 3.819548 0
M  V30 32 O 4.734413 1.147826 5.034874 0
M  V30 33 H 7.239297 -0.330196 6.217790 0
M  V30 34 H 7.038830 -1.398885 7.603496 0
M  V30 35 H 7.269627 0.326634 7.907692 0
M  V30 36 H 4.774992 -1.062695 7.574044 0
M  V30 37 H 5.005240 0.735841 7.731395 0
M  V30 38 H 4.410094 -2.080863 5.178734 0
M  V30 39 H 3.467617 0.531744 1.342368 0
M  V30 40 H 2.970746 -3.017182 -2.466075 0
M  V30 41 H -0.062627 -0.585483 1.068172 0
M  V30 42 H -0.120846 -2.350001 1.004158 0
M  V30 43 H -2.381467 2.472845 -1.612036 0
M  V30 44 H -2.506605 1.512955 -0.112168 0
M  V30 45 H -4.609331 2.789443 -1.596209 0
M  V30 46 H -4.054079 1.927854 0.962258 0
M  V30 47 H -5.678768 2.608589 0.380000 0
M  V30 48 H -6.457059 0.569701 1.046517 0
M  V30 49 H -4.865191 -0.211684 0.986981 0
M  V30 50 H -6.923895 0.154243 -1.123701 0
M  V30 51 H -5.702158 -1.112602 -1.124167 0
M  V30 52 H -4.851975 -0.832976 -3.047188 0
M  V30 53 H -5.103048 0.683180 -3.930663 0
M  V30 54 H -2.877181 1.340932 -3.655950 0
M  V30 55 H -2.943367 -0.403496 -5.105734 0
M  V30 56 H -1.480378 -0.649296 -4.159112 0
M  V30 57 H -3.004697 -1.691650 -3.910751 0
M  V30 58 H 0.283128 -2.060493 -3.374050 0
M  V30 59 H 0.335454 -3.841330 -3.037824 0
M  V30 60 H -1.247778 -3.064853 -3.052890 0
M  V30 61 H 0.397066 -4.131820 0.153731 0
M  V30 62 H -1.359057 -3.583911 -0.052396 0
M  V30 63 H -0.653449 -4.661067 -1.257251 0
M  V30 END ATOM
M  V30 BEGIN BOND
M  V30 1 1 1 2
M  V30 2 1 2 3
M  V30 3 2 3 4
M  V30 4 1 4 5
M  V30 5 1 5 6
M  V30 6 2 6 7
M  V30 7 1 6 8
M  V30 8 1 8 9
M  V30 9 2 9 10
M  V30 10 1 10 11
M  V30 11 1 11 12
M  V30 12 2 12 13
M  V30 13 1 13 14
M  V30 14 1 14 15
M  V30 15 1 15 16
M  V30 16 2 16 17
M  V30 17 1 16 18
M  V30 18 1 18 19
M  V30 19 1 19 20
M  V30 20 1 20 21
M  V30 21 1 21 22
M  V30 22 1 22 23
M  V30 23 1 23 24
M  V30 24 1 24 25
M  V30 25 1 25 26
M  V30 26 1 26 27
M  V30 27 1 15 28
M  V30 28 1 28 29
M  V30 29 1 28 30
M  V30 30 2 5 31
M  V30 31 1 31 32
M  V30 32 1 32 3
M  V30 33 1 13 9
M  V30 34 1 26 18
M  V30 35 1 28 12
M  V30 36 1 24 20
M  V30 37 1 1 33
M  V30 38 1 1 34
M  V30 39 1 1 35
M  V30 40 1 2 36
M  V30 41 1 2 37
M  V30 42 1 4 38
M  V30 43 1 8 39
M  V30 44 1 11 40
M  V30 45 1 14 41
M  V30 46 1 14 42
M  V30 47 1 19 43
M  V30 48 1 19 44
M  V30 49 1 20 45 CFG=3
M  V30 50 1 21 46
M  V30 51 1 21 47
M  V30 52 1 22 48
M  V30 53 1 22 49
M  V30 54 1 23 50
M  V30 55 1 23 51
M  V30 56 1 25 52
M  V30 57 1 25 53
M  V30 58 1 26 54 CFG=3
M  V30 59 1 27 55
M  V30 60 1 27 56
M  V30 61 1 27 57
M  V30 62 1 29 58
M  V30 63 1 29 59
M  V30 64 1 29 60
M  V30 65 1 30 61
M  V30 66 1 30 62
M  V30 67 1 30 63
M  V30 END BOND
M  V30 END CTAB
M  END
>  <Dataset>  (457) 
ChEMBL_Kinases

>  <Ligand_Instance>  (457) 
nan

>  <PDB_ID>  (457) 
nan

>  <Standardized_SMILES>  (457) 
CCc1cc(C(=O)Nc2n[nH]c3c2CN(C(=O)N2C[C@@H]4CCCN4C[C@@H]2C)C3(C)C)no1

>  <Name>  (457) 
nan

>  <Pocket>  (457) 
nan

>  <ATP_Site>  (457) 
nan

>  <Peripheral>  (457) 
nan

>  <Num_H_Atoms_ProtBoundConf>  (457) 
nan

>  <Num_Resolved_Atoms>  (457) 
nan

>  <Num_Not_Resolved_Atoms>  (457) 
nan

$$$$
CHEMBL3663096
     RDKit          3D

  0  0  0  0  0  0  0  0  0  0999 V3000
M  V30 BEGIN CTAB
M  V30 COUNTS 62 66 0 0 0
M  V30 BEGIN ATOM
M  V30 1 C 3.400037 1.211494 3.336177 0
M  V30 2 O 2.924070 2.334866 2.651515 0
M  V30 3 C 3.403695 2.672163 1.396567 0
M  V30 4 C 4.378856 1.901259 0.773196 0
M  V30 5 C 4.767306 2.344564 -0.468382 0
M  V30 6 C 4.264046 3.461438 -1.098669 0
M  V30 7 C 3.312691 4.161926 -0.422254 0
M  V30 8 F 2.823557 5.272527 -1.068204 0
M  V30 9 C 2.844345 3.804726 0.840408 0
M  V30 10 C 1.814228 4.619806 1.497626 0
M  V30 11 N 0.514714 4.092719 1.496071 0
M  V30 12 C -0.496834 4.848068 2.108978 0
M  V30 13 C -1.820781 4.123361 2.222663 0
M  V30 14 C -1.635736 2.665226 2.532362 0
M  V30 15 C -0.821031 2.028659 1.460374 0 CFG=1
M  V30 16 N -1.686025 1.391542 0.486678 0
M  V30 17 C -1.668167 -0.041630 0.342478 0
M  V30 18 O -0.892303 -0.749335 1.071184 0
M  V30 19 N -2.483794 -0.776549 -0.591458 0
M  V30 20 C -2.383483 -2.195973 -0.648558 0
M  V30 21 C -1.418140 -2.622688 -1.555990 0
M  V30 22 C -1.180838 -3.980357 -1.743028 0
M  V30 23 N -0.362178 -4.736265 -2.500521 0
M  V30 24 N -0.589483 -6.010552 -2.246924 0
M  V30 25 C -1.566233 -6.161354 -1.312452 0
M  V30 26 C -2.051008 -7.447442 -0.813128 0
M  V30 27 C -2.292181 -8.418574 -1.763419 0
M  V30 28 C -2.753709 -9.673041 -1.397766 0
M  V30 29 C -2.987896 -9.991157 -0.061068 0
M  V30 30 F -3.444361 -11.231371 0.299440 0
M  V30 31 C -2.735785 -8.990479 0.880142 0
M  V30 32 C -2.276591 -7.742078 0.517697 0
M  V30 33 C -1.941434 -4.863785 -0.993017 0
M  V30 34 C -2.893187 -4.418657 -0.099112 0
M  V30 35 N -3.110297 -3.100398 0.069843 0
M  V30 36 C 0.206015 2.915400 0.814130 0
M  V30 37 H 3.113487 0.247225 2.855013 0
M  V30 38 H 2.889588 1.187595 4.333721 0
M  V30 39 H 4.492519 1.291097 3.507505 0
M  V30 40 H 4.780302 1.032685 1.246351 0
M  V30 41 H 5.537553 1.732118 -0.955880 0
M  V30 42 H 4.640098 3.723415 -2.078946 0
M  V30 43 H 1.764823 5.622407 0.978094 0
M  V30 44 H 2.194839 4.904923 2.523427 0
M  V30 45 H -0.664697 5.780383 1.509035 0
M  V30 46 H -0.163063 5.190700 3.112093 0
M  V30 47 H -2.453663 4.618121 2.998357 0
M  V30 48 H -2.371687 4.193745 1.258693 0
M  V30 49 H -1.192269 2.517200 3.539122 0
M  V30 50 H -2.663631 2.218339 2.496478 0
M  V30 51 H -0.263750 1.172346 1.943069 0
M  V30 52 H -2.349984 1.886924 -0.149051 0
M  V30 53 H -3.101071 -0.172715 -1.166584 0
M  V30 54 H -0.804765 -1.975264 -2.158888 0
M  V30 55 H 0.326198 -4.320791 -3.167930 0
M  V30 56 H -2.124051 -8.216625 -2.816114 0
M  V30 57 H -2.927160 -10.398996 -2.182409 0
M  V30 58 H -2.917341 -9.234740 1.927285 0
M  V30 59 H -2.079889 -6.963402 1.245645 0
M  V30 60 H -3.489364 -5.111733 0.488702 0
M  V30 61 H -0.244919 3.201171 -0.182755 0
M  V30 62 H 1.108629 2.353577 0.566099 0
M  V30 END ATOM
M  V30 BEGIN BOND
M  V30 1 1 1 2
M  V30 2 1 2 3
M  V30 3 2 3 4
M  V30 4 1 4 5
M  V30 5 2 5 6
M  V30 6 1 6 7
M  V30 7 1 7 8
M  V30 8 2 7 9
M  V30 9 1 9 10
M  V30 10 1 10 11
M  V30 11 1 11 12
M  V30 12 1 12 13
M  V30 13 1 13 14
M  V30 14 1 14 15
M  V30 15 1 15 16
M  V30 16 1 16 17
M  V30 17 2 17 18
M  V30 18 1 17 19
M  V30 19 1 19 20
M  V30 20 2 20 21
M  V30 21 1 21 22
M  V30 22 1 22 23
M  V30 23 1 23 24
M  V30 24 2 24 25
M  V30 25 1 25 26
M  V30 26 2 26 27
M  V30 27 1 27 28
M  V30 28 2 28 29
M  V30 29 1 29 30
M  V30 30 1 29 31
M  V30 31 2 31 32
M  V30 32 1 25 33
M  V30 33 1 33 34
M  V30 34 2 34 35
M  V30 35 1 15 36
M  V30 36 1 9 3
M  V30 37 1 36 11
M  V30 38 1 35 20
M  V30 39 2 33 22
M  V30 40 1 32 26
M  V30 41 1 1 37
M  V30 42 1 1 38
M  V30 43 1 1 39
M  V30 44 1 4 40
M  V30 45 1 5 41
M  V30 46 1 6 42
M  V30 47 1 10 43
M  V30 48 1 10 44
M  V30 49 1 12 45
M  V30 50 1 12 46
M  V30 51 1 13 47
M  V30 52 1 13 48
M  V30 53 1 14 49
M  V30 54 1 14 50
M  V30 55 1 15 51 CFG=1
M  V30 56 1 16 52
M  V30 57 1 19 53
M  V30 58 1 21 54
M  V30 59 1 23 55
M  V30 60 1 27 56
M  V30 61 1 28 57
M  V30 62 1 31 58
M  V30 63 1 32 59
M  V30 64 1 34 60
M  V30 65 1 36 61
M  V30 66 1 36 62
M  V30 END BOND
M  V30 END CTAB
M  END
>  <Dataset>  (458) 
ChEMBL_Kinases

>  <Ligand_Instance>  (458) 
nan

>  <PDB_ID>  (458) 
nan

>  <Standardized_SMILES>  (458) 
COc1cccc(F)c1CN1CCC[C@@H](NC(=O)Nc2cc3[nH]nc(-c4ccc(F)cc4)c3cn2)C1

>  <Name>  (458) 
nan

>  <Pocket>  (458) 
nan

>  <ATP_Site>  (458) 
nan

>  <Peripheral>  (458) 
nan

>  <Num_H_Atoms_ProtBoundConf>  (458) 
nan

>  <Num_Resolved_Atoms>  (458) 
nan

>  <Num_Not_Resolved_Atoms>  (458) 
nan

$$$$
CHEMBL3663095
     RDKit          3D

  0  0  0  0  0  0  0  0  0  0999 V3000
M  V30 BEGIN CTAB
M  V30 COUNTS 49 52 0 0 0
M  V30 BEGIN ATOM
M  V30 1 C -0.149967 -6.340107 1.038013 0
M  V30 2 C -0.772952 -5.073341 1.567261 0 CFG=1
M  V30 3 N -0.983130 -4.097561 0.497569 0
M  V30 4 C -0.381995 -2.813974 0.477861 0
M  V30 5 O 0.390973 -2.430358 1.409925 0
M  V30 6 N -0.649671 -1.932379 -0.611548 0
M  V30 7 C -0.061275 -0.632328 -0.663894 0
M  V30 8 C 1.165876 -0.563914 -1.307703 0
M  V30 9 C 1.818471 0.649548 -1.411634 0
M  V30 10 N 2.941283 1.194522 -1.913045 0
M  V30 11 N 3.002720 2.496591 -1.686880 0
M  V30 12 C 1.887141 2.888722 -1.001893 0
M  V30 13 C 1.892572 4.319385 -0.670929 0
M  V30 14 C 3.136921 4.599331 0.211018 0
M  V30 15 C 2.865341 6.006491 0.697694 0
M  V30 16 C 1.392181 6.033798 0.922745 0
M  V30 17 C 0.847258 4.708804 0.382471 0
M  V30 18 C 1.168248 1.725639 -0.844640 0
M  V30 19 C -0.046132 1.686714 -0.202654 0
M  V30 20 N -0.641662 0.482519 -0.127339 0
M  V30 21 C -2.069335 -5.332933 2.246829 0
M  V30 22 C -2.171034 -5.377931 3.634929 0
M  V30 23 C -3.372652 -5.619116 4.295873 0
M  V30 24 C -4.489643 -5.817113 3.490488 0
M  V30 25 C -4.438853 -5.782073 2.116271 0
M  V30 26 C -3.222097 -5.538832 1.500209 0
M  V30 27 H 0.951609 -6.205247 1.056619 0
M  V30 28 H -0.455083 -6.548485 0.003719 0
M  V30 29 H -0.402722 -7.134446 1.770684 0
M  V30 30 H -0.087526 -4.640819 2.324176 0
M  V30 31 H -1.621799 -4.387680 -0.292847 0
M  V30 32 H -1.283172 -2.235644 -1.383844 0
M  V30 33 H 1.683360 -1.401390 -1.754689 0
M  V30 34 H 3.640917 0.594557 -2.412599 0
M  V30 35 H 1.833778 5.005059 -1.512830 0
M  V30 36 H 3.092389 3.859744 1.019908 0
M  V30 37 H 4.033947 4.511456 -0.401085 0
M  V30 38 H 3.125797 6.671634 -0.149922 0
M  V30 39 H 3.449190 6.241357 1.609173 0
M  V30 40 H 0.955460 6.900397 0.387156 0
M  V30 41 H 1.111923 6.152410 1.997753 0
M  V30 42 H 0.867278 3.988371 1.227522 0
M  V30 43 H -0.140739 4.879214 0.003297 0
M  V30 44 H -0.555842 2.530076 0.226008 0
M  V30 45 H -1.305893 -5.224472 4.253114 0
M  V30 46 H -3.421969 -5.648293 5.367825 0
M  V30 47 H -5.449258 -6.008976 3.977756 0
M  V30 48 H -5.300145 -5.934431 1.478166 0
M  V30 49 H -3.187186 -5.511945 0.403543 0
M  V30 END ATOM
M  V30 BEGIN BOND
M  V30 1 1 1 2
M  V30 2 1 2 3
M  V30 3 1 3 4
M  V30 4 2 4 5
M  V30 5 1 4 6
M  V30 6 1 6 7
M  V30 7 2 7 8
M  V30 8 1 8 9
M  V30 9 1 9 10
M  V30 10 1 10 11
M  V30 11 2 11 12
M  V30 12 1 12 13
M  V30 13 1 13 14
M  V30 14 1 14 15
M  V30 15 1 15 16
M  V30 16 1 16 17
M  V30 17 1 12 18
M  V30 18 1 18 19
M  V30 19 2 19 20
M  V30 20 1 2 21
M  V30 21 2 21 22
M  V30 22 1 22 23
M  V30 23 2 23 24
M  V30 24 1 24 25
M  V30 25 2 25 26
M  V30 26 1 20 7
M  V30 27 1 26 21
M  V30 28 2 18 9
M  V30 29 1 17 13
M  V30 30 1 1 27
M  V30 31 1 1 28
M  V30 32 1 1 29
M  V30 33 1 2 30 CFG=1
M  V30 34 1 3 31
M  V30 35 1 6 32
M  V30 36 1 8 33
M  V30 37 1 10 34
M  V30 38 1 13 35
M  V30 39 1 14 36
M  V30 40 1 14 37
M  V30 41 1 15 38
M  V30 42 1 15 39
M  V30 43 1 16 40
M  V30 44 1 16 41
M  V30 45 1 17 42
M  V30 46 1 17 43
M  V30 47 1 19 44
M  V30 48 1 22 45
M  V30 49 1 23 46
M  V30 50 1 24 47
M  V30 51 1 25 48
M  V30 52 1 26 49
M  V30 END BOND
M  V30 END CTAB
M  END
>  <Dataset>  (459) 
ChEMBL_Kinases

>  <Ligand_Instance>  (459) 
nan

>  <PDB_ID>  (459) 
nan

>  <Standardized_SMILES>  (459) 
C[C@@H](NC(=O)Nc1cc2[nH]nc(C3CCCC3)c2cn1)c1ccccc1

>  <Name>  (459) 
nan

>  <Pocket>  (459) 
nan

>  <ATP_Site>  (459) 
nan

>  <Peripheral>  (459) 
nan

>  <Num_H_Atoms_ProtBoundConf>  (459) 
nan

>  <Num_Resolved_Atoms>  (459) 
nan

>  <Num_Not_Resolved_Atoms>  (459) 
nan

$$$$
CHEMBL3663094
     RDKit          3D

  0  0  0  0  0  0  0  0  0  0999 V3000
M  V30 BEGIN CTAB
M  V30 COUNTS 51 55 0 0 0
M  V30 BEGIN ATOM
M  V30 1 C 5.173678 -6.481648 4.204626 0
M  V30 2 C 5.338119 -5.194285 3.450167 0
M  V30 3 N 6.400138 -4.782613 2.733731 0
M  V30 4 C 6.075870 -3.553834 2.240133 0
M  V30 5 C 6.724442 -2.632678 1.450372 0
M  V30 6 C 6.127127 -1.419516 1.093520 0
M  V30 7 C 4.838568 -1.121659 1.543438 0
M  V30 8 C 4.166455 0.133269 1.199853 0
M  V30 9 N 4.705591 1.386551 1.231724 0
M  V30 10 N 3.821137 2.286564 0.860636 0
M  V30 11 C 2.644492 1.690037 0.560418 0
M  V30 12 C 1.389744 2.134516 0.123729 0
M  V30 13 C 0.378507 1.210645 -0.089940 0
M  V30 14 N -0.912863 1.621451 -0.534373 0
M  V30 15 C -1.920498 0.673320 -0.744326 0
M  V30 16 O -1.650600 -0.555574 -0.528126 0
M  V30 17 N -3.217168 1.056132 -1.187422 0
M  V30 18 C -4.331098 0.164830 -1.436458 0 CFG=2
M  V30 19 C -4.691357 0.155167 -2.908763 0
M  V30 20 C -5.510068 0.465442 -0.588067 0
M  V30 21 C -5.921952 1.770906 -0.427375 0
M  V30 22 C -7.020623 2.048499 0.363518 0
M  V30 23 C -7.743909 1.053945 1.017269 0
M  V30 24 C -7.327285 -0.268842 0.854988 0
M  V30 25 C -6.221673 -0.546453 0.058902 0
M  V30 26 N 0.632465 -0.101642 0.130270 0
M  V30 27 C 1.839581 -0.520303 0.549418 0
M  V30 28 C 2.876652 0.346895 0.777203 0
M  V30 29 C 4.193164 -2.050165 2.335571 0
M  V30 30 C 4.798245 -3.245631 2.679461 0
M  V30 31 O 4.400973 -4.276840 3.408807 0
M  V30 32 H 4.088143 -6.745447 4.270623 0
M  V30 33 H 5.630150 -7.343741 3.665885 0
M  V30 34 H 5.550064 -6.387182 5.237435 0
M  V30 35 H 7.729228 -2.871622 1.103054 0
M  V30 36 H 6.650160 -0.691989 0.464682 0
M  V30 37 H 3.937368 3.322891 0.784885 0
M  V30 38 H 1.242617 3.179439 -0.034546 0
M  V30 39 H -1.078941 2.638861 -0.695584 0
M  V30 40 H -3.435844 2.074479 -1.365030 0
M  V30 41 H -3.942514 -0.865625 -1.204845 0
M  V30 42 H -3.770005 0.375772 -3.500645 0
M  V30 43 H -4.978954 -0.881892 -3.208716 0
M  V30 44 H -5.499435 0.890257 -3.133181 0
M  V30 45 H -5.370228 2.559604 -0.929453 0
M  V30 46 H -7.356506 3.075786 0.498776 0
M  V30 47 H -8.607199 1.257761 1.640339 0
M  V30 48 H -7.845648 -1.103022 1.337239 0
M  V30 49 H -5.911725 -1.569590 -0.057415 0
M  V30 50 H 1.957953 -1.577398 0.700095 0
M  V30 51 H 3.203165 -1.910534 2.728160 0
M  V30 END ATOM
M  V30 BEGIN BOND
M  V30 1 1 1 2
M  V30 2 2 2 3
M  V30 3 1 3 4
M  V30 4 2 4 5
M  V30 5 1 5 6
M  V30 6 2 6 7
M  V30 7 1 7 8
M  V30 8 2 8 9
M  V30 9 1 9 10
M  V30 10 1 10 11
M  V30 11 2 11 12
M  V30 12 1 12 13
M  V30 13 1 13 14
M  V30 14 1 14 15
M  V30 15 2 15 16
M  V30 16 1 15 17
M  V30 17 1 17 18
M  V30 18 1 18 19
M  V30 19 1 18 20
M  V30 20 2 20 21
M  V30 21 1 21 22
M  V30 22 2 22 23
M  V30 23 1 23 24
M  V30 24 2 24 25
M  V30 25 2 13 26
M  V30 26 1 26 27
M  V30 27 2 27 28
M  V30 28 1 7 29
M  V30 29 2 29 30
M  V30 30 1 30 31
M  V30 31 1 31 2
M  V30 32 1 30 4
M  V30 33 1 28 8
M  V30 34 1 28 11
M  V30 35 1 25 20
M  V30 36 1 1 32
M  V30 37 1 1 33
M  V30 38 1 1 34
M  V30 39 1 5 35
M  V30 40 1 6 36
M  V30 41 1 10 37
M  V30 42 1 12 38
M  V30 43 1 14 39
M  V30 44 1 17 40
M  V30 45 1 18 41 CFG=1
M  V30 46 1 19 42
M  V30 47 1 19 43
M  V30 48 1 19 44
M  V30 49 1 21 45
M  V30 50 1 22 46
M  V30 51 1 23 47
M  V30 52 1 24 48
M  V30 53 1 25 49
M  V30 54 1 27 50
M  V30 55 1 29 51
M  V30 END BOND
M  V30 END CTAB
M  END
>  <Dataset>  (460) 
ChEMBL_Kinases

>  <Ligand_Instance>  (460) 
nan

>  <PDB_ID>  (460) 
nan

>  <Standardized_SMILES>  (460) 
Cc1nc2ccc(-c3n[nH]c4cc(NC(=O)N[C@H](C)c5ccccc5)ncc34)cc2o1

>  <Name>  (460) 
nan

>  <Pocket>  (460) 
nan

>  <ATP_Site>  (460) 
nan

>  <Peripheral>  (460) 
nan

>  <Num_H_Atoms_ProtBoundConf>  (460) 
nan

>  <Num_Resolved_Atoms>  (460) 
nan

>  <Num_Not_Resolved_Atoms>  (460) 
nan

$$$$
CHEMBL3663093
     RDKit          3D

  0  0  0  0  0  0  0  0  0  0999 V3000
M  V30 BEGIN CTAB
M  V30 COUNTS 52 56 0 0 0
M  V30 BEGIN ATOM
M  V30 1 C 2.969659 -6.001234 1.270414 0
M  V30 2 C 2.391175 -5.064621 0.203671 0 CFG=1
M  V30 3 N 2.971237 -3.731742 0.409327 0
M  V30 4 C 2.082349 -2.647405 0.680022 0
M  V30 5 O 0.843405 -2.797429 0.745924 0
M  V30 6 N 2.610006 -1.337970 0.885415 0
M  V30 7 C 1.789086 -0.207117 1.159329 0
M  V30 8 C 2.379897 1.040336 1.348956 0
M  V30 9 C 1.627189 2.167592 1.616828 0
M  V30 10 N 1.885357 3.464965 1.840682 0
M  V30 11 N 0.723156 4.086345 2.044344 0
M  V30 12 C -0.294505 3.198903 1.954303 0
M  V30 13 C -1.700903 3.560454 2.127313 0
M  V30 14 C -2.108978 4.382660 3.168033 0
M  V30 15 C -3.448363 4.707227 3.305265 0
M  V30 16 C -4.423029 4.242896 2.437772 0
M  V30 17 N -5.752881 4.382735 2.322258 0
M  V30 18 N -6.213682 3.707905 1.283392 0
M  V30 19 C -7.573110 3.577668 0.788038 0
M  V30 20 C -5.147423 3.099025 0.690012 0
M  V30 21 C -4.006547 3.420223 1.398368 0
M  V30 22 C -2.674926 3.091089 1.252986 0
M  V30 23 C 0.264640 1.957530 1.679641 0
M  V30 24 C -0.316613 0.719756 1.491126 0
M  V30 25 N 0.451201 -0.367706 1.229577 0
M  V30 26 C 2.706829 -5.643358 -1.104612 0
M  V30 27 C 3.984097 -5.615949 -1.668053 0
M  V30 28 C 4.289659 -6.160375 -2.902690 0
M  V30 29 C 3.271350 -6.766630 -3.620087 0
M  V30 30 C 1.972141 -6.834440 -3.126717 0
M  V30 31 C 1.748949 -6.266602 -1.885175 0
M  V30 32 H 2.594800 -7.010067 1.069226 0
M  V30 33 H 2.659191 -5.634933 2.292118 0
M  V30 34 H 4.069389 -5.940920 1.284194 0
M  V30 35 H 1.303209 -4.970373 0.306599 0
M  V30 36 H 4.012435 -3.578262 0.358938 0
M  V30 37 H 3.648861 -1.228793 0.827080 0
M  V30 38 H 3.466956 1.123629 1.283050 0
M  V30 39 H 2.872527 3.808113 1.830968 0
M  V30 40 H -1.385270 4.782170 3.887745 0
M  V30 41 H -3.747765 5.357217 4.133353 0
M  V30 42 H -8.278030 3.525212 1.640359 0
M  V30 43 H -7.688095 2.623079 0.228670 0
M  V30 44 H -7.831322 4.423232 0.121450 0
M  V30 45 H -5.207021 2.470072 -0.192411 0
M  V30 46 H -2.420645 2.458897 0.438901 0
M  V30 47 H -1.395714 0.594231 1.548587 0
M  V30 48 H 4.762362 -5.134283 -1.083205 0
M  V30 49 H 5.293522 -6.118175 -3.304352 0
M  V30 50 H 3.434019 -7.207679 -4.579222 0
M  V30 51 H 1.160610 -7.302031 -3.667263 0
M  V30 52 H 0.739901 -6.301609 -1.466762 0
M  V30 END ATOM
M  V30 BEGIN BOND
M  V30 1 1 1 2
M  V30 2 1 2 3
M  V30 3 1 3 4
M  V30 4 2 4 5
M  V30 5 1 4 6
M  V30 6 1 6 7
M  V30 7 2 7 8
M  V30 8 1 8 9
M  V30 9 1 9 10
M  V30 10 1 10 11
M  V30 11 2 11 12
M  V30 12 1 12 13
M  V30 13 1 13 14
M  V30 14 2 14 15
M  V30 15 1 15 16
M  V30 16 2 16 17
M  V30 17 1 17 18
M  V30 18 1 18 19
M  V30 19 1 18 20
M  V30 20 2 20 21
M  V30 21 1 21 22
M  V30 22 1 12 23
M  V30 23 1 23 24
M  V30 24 2 24 25
M  V30 25 1 2 26
M  V30 26 2 26 27
M  V30 27 1 27 28
M  V30 28 2 28 29
M  V30 29 1 29 30
M  V30 30 2 30 31
M  V30 31 1 25 7
M  V30 32 1 31 26
M  V30 33 2 23 9
M  V30 34 2 22 13
M  V30 35 1 21 16
M  V30 36 1 1 32
M  V30 37 1 1 33
M  V30 38 1 1 34
M  V30 39 1 2 35 CFG=1
M  V30 40 1 3 36
M  V30 41 1 6 37
M  V30 42 1 8 38
M  V30 43 1 10 39
M  V30 44 1 14 40
M  V30 45 1 15 41
M  V30 46 1 19 42
M  V30 47 1 19 43
M  V30 48 1 19 44
M  V30 49 1 20 45
M  V30 50 1 22 46
M  V30 51 1 24 47
M  V30 52 1 27 48
M  V30 53 1 28 49
M  V30 54 1 29 50
M  V30 55 1 30 51
M  V30 56 1 31 52
M  V30 END BOND
M  V30 END CTAB
M  END
>  <Dataset>  (461) 
ChEMBL_Kinases

>  <Ligand_Instance>  (461) 
nan

>  <PDB_ID>  (461) 
nan

>  <Standardized_SMILES>  (461) 
C[C@@H](NC(=O)Nc1cc2[nH]nc(-c3ccc4nn(C)cc4c3)c2cn1)c1ccccc1

>  <Name>  (461) 
nan

>  <Pocket>  (461) 
nan

>  <ATP_Site>  (461) 
nan

>  <Peripheral>  (461) 
nan

>  <Num_H_Atoms_ProtBoundConf>  (461) 
nan

>  <Num_Resolved_Atoms>  (461) 
nan

>  <Num_Not_Resolved_Atoms>  (461) 
nan

$$$$
CHEMBL3663092
     RDKit          3D

  0  0  0  0  0  0  0  0  0  0999 V3000
M  V30 BEGIN CTAB
M  V30 COUNTS 49 52 0 0 0
M  V30 BEGIN ATOM
M  V30 1 C 1.466732 -9.454463 2.699622 0
M  V30 2 O 1.698091 -8.206174 2.389456 0
M  V30 3 C 2.040095 -7.018550 2.012840 0
M  V30 4 C 1.399524 -5.846183 2.364919 0
M  V30 5 C 1.873237 -4.651842 1.861665 0
M  V30 6 C 2.970145 -4.669344 1.019939 0
M  V30 7 C 3.336501 -3.326183 0.518347 0
M  V30 8 N 4.520123 -2.706411 0.394749 0
M  V30 9 N 4.386467 -1.484213 -0.093701 0
M  V30 10 C 3.076280 -1.269435 -0.307579 0
M  V30 11 C 2.446302 -0.151240 -0.784436 0
M  V30 12 C 1.089982 -0.144202 -0.902363 0
M  V30 13 N 0.019845 0.702146 -1.287333 0
M  V30 14 C -0.345267 1.582145 -0.196303 0
M  V30 15 O 0.366868 1.630858 0.884190 0
M  V30 16 N -1.522633 2.413794 -0.280713 0
M  V30 17 C -1.861475 3.294633 0.845817 0 CFG=2
M  V30 18 C -2.234227 2.452016 2.069410 0
M  V30 19 C -2.832214 4.322402 0.509905 0
M  V30 20 C -2.674653 5.176689 -0.550216 0
M  V30 21 C -3.573593 6.170843 -0.901678 0
M  V30 22 C -4.713178 6.371422 -0.173144 0
M  V30 23 C -4.920698 5.522411 0.927332 0
M  V30 24 C -4.005921 4.542822 1.240427 0
M  V30 25 N 0.375340 -1.256956 -0.543571 0
M  V30 26 C 1.004990 -2.378979 -0.068516 0
M  V30 27 C 2.379495 -2.405643 0.062899 0
M  V30 28 C 3.610680 -5.862254 0.675397 0
M  V30 29 N 3.137546 -7.047564 1.180430 0
M  V30 30 H 1.839986 -9.771395 3.742522 0
M  V30 31 H 0.363039 -9.679401 2.656982 0
M  V30 32 H 1.976137 -10.203325 2.041279 0
M  V30 33 H 0.551105 -6.010565 3.029742 0
M  V30 34 H 1.280435 -3.824504 2.247065 0
M  V30 35 H 5.154138 -0.809248 -0.292779 0
M  V30 36 H 2.840824 0.783516 -1.103373 0
M  V30 37 H -0.567261 0.691401 -2.193799 0
M  V30 38 H -2.061136 2.311233 -1.170820 0
M  V30 39 H -0.900018 3.782783 1.168077 0
M  V30 40 H -1.244291 2.029588 2.442488 0
M  V30 41 H -2.905218 1.616766 1.838102 0
M  V30 42 H -2.576126 3.099844 2.878899 0
M  V30 43 H -1.761355 5.088652 -1.198641 0
M  V30 44 H -3.300842 6.771188 -1.763388 0
M  V30 45 H -5.400667 7.165561 -0.466266 0
M  V30 46 H -5.839103 5.656004 1.507845 0
M  V30 47 H -4.248578 3.914653 2.107047 0
M  V30 48 H 0.428674 -3.287361 0.202168 0
M  V30 49 H 4.448775 -5.735386 0.004659 0
M  V30 END ATOM
M  V30 BEGIN BOND
M  V30 1 1 1 2
M  V30 2 1 2 3
M  V30 3 2 3 4
M  V30 4 1 4 5
M  V30 5 2 5 6
M  V30 6 1 6 7
M  V30 7 2 7 8
M  V30 8 1 8 9
M  V30 9 1 9 10
M  V30 10 2 10 11
M  V30 11 1 11 12
M  V30 12 1 12 13
M  V30 13 1 13 14
M  V30 14 2 14 15
M  V30 15 1 14 16
M  V30 16 1 16 17
M  V30 17 1 17 18
M  V30 18 1 17 19
M  V30 19 2 19 20
M  V30 20 1 20 21
M  V30 21 2 21 22
M  V30 22 1 22 23
M  V30 23 2 23 24
M  V30 24 2 12 25
M  V30 25 1 25 26
M  V30 26 2 26 27
M  V30 27 1 6 28
M  V30 28 2 28 29
M  V30 29 1 29 3
M  V30 30 1 27 7
M  V30 31 1 27 10
M  V30 32 1 24 19
M  V30 33 1 1 30
M  V30 34 1 1 31
M  V30 35 1 1 32
M  V30 36 1 4 33
M  V30 37 1 5 34
M  V30 38 1 9 35
M  V30 39 1 11 36
M  V30 40 1 13 37
M  V30 41 1 16 38
M  V30 42 1 17 39 CFG=1
M  V30 43 1 18 40
M  V30 44 1 18 41
M  V30 45 1 18 42
M  V30 46 1 20 43
M  V30 47 1 21 44
M  V30 48 1 22 45
M  V30 49 1 23 46
M  V30 50 1 24 47
M  V30 51 1 26 48
M  V30 52 1 28 49
M  V30 END BOND
M  V30 END CTAB
M  END
>  <Dataset>  (462) 
ChEMBL_Kinases

>  <Ligand_Instance>  (462) 
nan

>  <PDB_ID>  (462) 
nan

>  <Standardized_SMILES>  (462) 
COc1ccc(-c2n[nH]c3cc(NC(=O)N[C@H](C)c4ccccc4)ncc23)cn1

>  <Name>  (462) 
nan

>  <Pocket>  (462) 
nan

>  <ATP_Site>  (462) 
nan

>  <Peripheral>  (462) 
nan

>  <Num_H_Atoms_ProtBoundConf>  (462) 
nan

>  <Num_Resolved_Atoms>  (462) 
nan

>  <Num_Not_Resolved_Atoms>  (462) 
nan

$$$$
CHEMBL3663091
     RDKit          3D

  0  0  0  0  0  0  0  0  0  0999 V3000
M  V30 BEGIN CTAB
M  V30 COUNTS 61 65 0 0 0
M  V30 BEGIN ATOM
M  V30 1 C -0.673859 2.922680 1.159126 0
M  V30 2 O -0.007003 3.246819 -0.033551 0
M  V30 3 C 0.803456 4.354814 -0.095462 0
M  V30 4 C 1.116110 5.305496 0.883205 0
M  V30 5 C 1.975585 6.364330 0.597728 0
M  V30 6 C 2.521122 6.447455 -0.692567 0
M  V30 7 C 2.208614 5.512715 -1.635889 0
M  V30 8 F 2.813655 5.750983 -2.838933 0
M  V30 9 C 1.351494 4.454646 -1.372698 0
M  V30 10 C 1.084361 3.503152 -2.483193 0
M  V30 11 N 1.786074 2.306227 -2.254116 0
M  V30 12 C 3.189735 2.314205 -2.167018 0
M  V30 13 C 3.544868 1.380863 -0.991537 0
M  V30 14 C 2.389025 0.423108 -0.719388 0
M  V30 15 C 1.770014 -0.055131 -2.064276 0 CFG=1
M  V30 16 N 0.732098 -0.970024 -1.725586 0
M  V30 17 C 0.494200 -1.940198 -0.771286 0
M  V30 18 O 1.298866 -2.150639 0.135557 0
M  V30 19 N -0.625684 -2.766442 -0.713921 0
M  V30 20 C -1.172489 -3.692842 0.202615 0
M  V30 21 C -2.043710 -3.070906 1.097130 0
M  V30 22 C -2.689674 -3.817342 2.080226 0
M  V30 23 N -3.569860 -3.628430 3.097995 0
M  V30 24 N -3.826945 -4.781013 3.713263 0
M  V30 25 C -3.115339 -5.776932 3.112273 0
M  V30 26 C -3.204057 -7.158084 3.603157 0
M  V30 27 C -3.098237 -7.295529 5.001491 0
M  V30 28 C -3.180243 -8.608715 5.494299 0
M  V30 29 N -3.345586 -9.716800 4.737784 0
M  V30 30 C -3.440307 -9.558447 3.401949 0
M  V30 31 F -3.603540 -10.633069 2.536894 0
M  V30 32 C -3.375205 -8.311872 2.840872 0
M  V30 33 C -2.405177 -5.167991 2.091274 0
M  V30 34 C -1.548122 -5.784151 1.211289 0
M  V30 35 N -0.918722 -5.033981 0.251682 0
M  V30 36 C 1.269053 1.113859 -2.864980 0
M  V30 37 H -0.069189 2.199811 1.775105 0
M  V30 38 H -1.660412 2.412938 0.957745 0
M  V30 39 H -0.899067 3.837074 1.717985 0
M  V30 40 H 0.638750 5.111148 1.817926 0
M  V30 41 H 2.177374 7.054428 1.389957 0
M  V30 42 H 3.196121 7.288968 -0.828871 0
M  V30 43 H -0.010220 3.367287 -2.612046 0
M  V30 44 H 1.414618 3.993748 -3.427617 0
M  V30 45 H 3.650633 3.317220 -2.066006 0
M  V30 46 H 3.637641 1.805470 -3.068141 0
M  V30 47 H 4.484052 0.840999 -1.161154 0
M  V30 48 H 3.616997 2.048485 -0.092003 0
M  V30 49 H 1.618889 0.860109 -0.066431 0
M  V30 50 H 2.824889 -0.494311 -0.291980 0
M  V30 51 H 2.642013 -0.613184 -2.487887 0
M  V30 52 H -0.101671 -0.896609 -2.393999 0
M  V30 53 H -1.372325 -2.705156 -1.438722 0
M  V30 54 H -2.291575 -2.028637 1.118080 0
M  V30 55 H -3.937949 -2.651539 3.284469 0
M  V30 56 H -2.970353 -6.452543 5.641199 0
M  V30 57 H -3.088495 -8.648101 6.559662 0
M  V30 58 H -3.447890 -8.110701 1.755386 0
M  V30 59 H -1.336210 -6.842754 1.241087 0
M  V30 60 H 0.154968 1.187079 -2.806946 0
M  V30 61 H 1.596023 0.975344 -3.906774 0
M  V30 END ATOM
M  V30 BEGIN BOND
M  V30 1 1 1 2
M  V30 2 1 2 3
M  V30 3 2 3 4
M  V30 4 1 4 5
M  V30 5 2 5 6
M  V30 6 1 6 7
M  V30 7 1 7 8
M  V30 8 2 7 9
M  V30 9 1 9 10
M  V30 10 1 10 11
M  V30 11 1 11 12
M  V30 12 1 12 13
M  V30 13 1 13 14
M  V30 14 1 14 15
M  V30 15 1 15 16
M  V30 16 1 16 17
M  V30 17 2 17 18
M  V30 18 1 17 19
M  V30 19 1 19 20
M  V30 20 2 20 21
M  V30 21 1 21 22
M  V30 22 1 22 23
M  V30 23 1 23 24
M  V30 24 2 24 25
M  V30 25 1 25 26
M  V30 26 2 26 27
M  V30 27 1 27 28
M  V30 28 2 28 29
M  V30 29 1 29 30
M  V30 30 1 30 31
M  V30 31 2 30 32
M  V30 32 1 25 33
M  V30 33 1 33 34
M  V30 34 2 34 35
M  V30 35 1 15 36
M  V30 36 1 9 3
M  V30 37 1 36 11
M  V30 38 1 35 20
M  V30 39 2 33 22
M  V30 40 1 32 26
M  V30 41 1 1 37
M  V30 42 1 1 38
M  V30 43 1 1 39
M  V30 44 1 4 40
M  V30 45 1 5 41
M  V30 46 1 6 42
M  V30 47 1 10 43
M  V30 48 1 10 44
M  V30 49 1 12 45
M  V30 50 1 12 46
M  V30 51 1 13 47
M  V30 52 1 13 48
M  V30 53 1 14 49
M  V30 54 1 14 50
M  V30 55 1 15 51 CFG=3
M  V30 56 1 16 52
M  V30 57 1 19 53
M  V30 58 1 21 54
M  V30 59 1 23 55
M  V30 60 1 27 56
M  V30 61 1 28 57
M  V30 62 1 32 58
M  V30 63 1 34 59
M  V30 64 1 36 60
M  V30 65 1 36 61
M  V30 END BOND
M  V30 END CTAB
M  END
>  <Dataset>  (463) 
ChEMBL_Kinases

>  <Ligand_Instance>  (463) 
nan

>  <PDB_ID>  (463) 
nan

>  <Standardized_SMILES>  (463) 
COc1cccc(F)c1CN1CCC[C@@H](NC(=O)Nc2cc3[nH]nc(-c4ccnc(F)c4)c3cn2)C1

>  <Name>  (463) 
nan

>  <Pocket>  (463) 
nan

>  <ATP_Site>  (463) 
nan

>  <Peripheral>  (463) 
nan

>  <Num_H_Atoms_ProtBoundConf>  (463) 
nan

>  <Num_Resolved_Atoms>  (463) 
nan

>  <Num_Not_Resolved_Atoms>  (463) 
nan

$$$$
CHEMBL3663090
     RDKit          3D

  0  0  0  0  0  0  0  0  0  0999 V3000
M  V30 BEGIN CTAB
M  V30 COUNTS 59 63 0 0 0
M  V30 BEGIN ATOM
M  V30 1 C 5.626134 -2.492786 8.611275 0
M  V30 2 C 4.523583 -1.900995 7.824638 0
M  V30 3 C 4.794426 -1.400678 6.568165 0
M  V30 4 C 3.741887 -0.856867 5.865297 0
M  V30 5 C 3.940052 -0.303430 4.527697 0
M  V30 6 N 4.944449 0.521663 4.129476 0
M  V30 7 N 4.820059 0.830960 2.845888 0
M  V30 8 C 3.714752 0.189206 2.421021 0
M  V30 9 C 3.179784 0.207308 1.146950 0
M  V30 10 C 2.032223 -0.540425 0.966132 0
M  V30 11 N 1.273936 -0.696001 -0.255801 0
M  V30 12 C 0.263677 0.312431 -0.370011 0
M  V30 13 O -0.043585 1.260032 0.393445 0
M  V30 14 N -0.582056 0.313043 -1.516019 0
M  V30 15 C -1.654208 1.200895 -1.868839 0
M  V30 16 C -1.378073 2.002675 -3.109490 0
M  V30 17 C -2.664527 2.425459 -3.759211 0
M  V30 18 C -3.508964 1.274036 -4.257634 0
M  V30 19 C -3.228826 0.104511 -3.356069 0
M  V30 20 O -4.227500 -0.857869 -3.331206 0
M  V30 21 C -4.189155 -2.164086 -3.719017 0
M  V30 22 C -3.119411 -2.895963 -4.249096 0
M  V30 23 C -3.274760 -4.229070 -4.587848 0
M  V30 24 C -4.461820 -4.896491 -4.426721 0
M  V30 25 C -5.512933 -4.172811 -3.904427 0
M  V30 26 F -6.712846 -4.822626 -3.734606 0
M  V30 27 C -5.386325 -2.842496 -3.557982 0
M  V30 28 C -3.010983 0.615284 -1.960757 0
M  V30 29 N 1.446047 -1.253203 1.947663 0
M  V30 30 C 1.964463 -1.280114 3.212997 0
M  V30 31 C 3.111659 -0.542322 3.424552 0
M  V30 32 C 2.483038 -0.850346 6.470987 0
M  V30 33 C 2.261084 -1.363833 7.733237 0
M  V30 34 N 3.289414 -1.887245 8.401625 0
M  V30 35 H 6.130666 -1.734045 9.242580 0
M  V30 36 H 6.362542 -3.022551 7.976817 0
M  V30 37 H 5.203906 -3.252891 9.332108 0
M  V30 38 H 5.754714 -1.410169 6.117763 0
M  V30 39 H 5.452528 1.445977 2.286691 0
M  V30 40 H 3.527855 0.722153 0.268825 0
M  V30 41 H 1.427764 -1.430361 -0.961553 0
M  V30 42 H -0.487148 -0.413375 -2.288381 0
M  V30 43 H -1.692661 1.944905 -1.017189 0
M  V30 44 H -0.853640 2.944742 -2.844785 0
M  V30 45 H -0.690909 1.486653 -3.810531 0
M  V30 46 H -3.252416 2.963940 -2.973790 0
M  V30 47 H -2.500559 3.186551 -4.549940 0
M  V30 48 H -3.196037 1.078638 -5.304940 0
M  V30 49 H -4.598955 1.562328 -4.224984 0
M  V30 50 H -2.302478 -0.366290 -3.784913 0
M  V30 51 H -2.211819 -2.319153 -4.352905 0
M  V30 52 H -2.420385 -4.745887 -4.992124 0
M  V30 53 H -4.553320 -5.932196 -4.698020 0
M  V30 54 H -6.296037 -2.376426 -3.152981 0
M  V30 55 H -3.772761 1.406213 -1.774505 0
M  V30 56 H -3.243254 -0.141354 -1.183134 0
M  V30 57 H 1.526797 -1.838560 4.030938 0
M  V30 58 H 1.620437 -0.435957 5.968008 0
M  V30 59 H 1.279344 -1.345667 8.174179 0
M  V30 END ATOM
M  V30 BEGIN BOND
M  V30 1 1 1 2
M  V30 2 2 2 3
M  V30 3 1 3 4
M  V30 4 1 4 5
M  V30 5 2 5 6
M  V30 6 1 6 7
M  V30 7 1 7 8
M  V30 8 2 8 9
M  V30 9 1 9 10
M  V30 10 1 10 11
M  V30 11 1 11 12
M  V30 12 2 12 13
M  V30 13 1 12 14
M  V30 14 1 14 15
M  V30 15 1 15 16
M  V30 16 1 16 17
M  V30 17 1 17 18
M  V30 18 1 18 19
M  V30 19 1 19 20
M  V30 20 1 20 21
M  V30 21 2 21 22
M  V30 22 1 22 23
M  V30 23 2 23 24
M  V30 24 1 24 25
M  V30 25 1 25 26
M  V30 26 2 25 27
M  V30 27 1 19 28
M  V30 28 2 10 29
M  V30 29 1 29 30
M  V30 30 2 30 31
M  V30 31 2 4 32
M  V30 32 1 32 33
M  V30 33 2 33 34
M  V30 34 1 34 2
M  V30 35 1 31 5
M  V30 36 1 31 8
M  V30 37 1 28 15
M  V30 38 1 27 21
M  V30 39 1 1 35
M  V30 40 1 1 36
M  V30 41 1 1 37
M  V30 42 1 3 38
M  V30 43 1 7 39
M  V30 44 1 9 40
M  V30 45 1 11 41
M  V30 46 1 14 42
M  V30 47 1 15 43
M  V30 48 1 16 44
M  V30 49 1 16 45
M  V30 50 1 17 46
M  V30 51 1 17 47
M  V30 52 1 18 48
M  V30 53 1 18 49
M  V30 54 1 19 50
M  V30 55 1 22 51
M  V30 56 1 23 52
M  V30 57 1 24 53
M  V30 58 1 27 54
M  V30 59 1 28 55
M  V30 60 1 28 56
M  V30 61 1 30 57
M  V30 62 1 32 58
M  V30 63 1 33 59
M  V30 END BOND
M  V30 END CTAB
M  END
>  <Dataset>  (464) 
ChEMBL_Kinases

>  <Ligand_Instance>  (464) 
nan

>  <PDB_ID>  (464) 
nan

>  <Standardized_SMILES>  (464) 
Cc1cc(-c2n[nH]c3cc(NC(=O)NC4CCCC(Oc5cccc(F)c5)C4)ncc23)ccn1

>  <Name>  (464) 
nan

>  <Pocket>  (464) 
nan

>  <ATP_Site>  (464) 
nan

>  <Peripheral>  (464) 
nan

>  <Num_H_Atoms_ProtBoundConf>  (464) 
nan

>  <Num_Resolved_Atoms>  (464) 
nan

>  <Num_Not_Resolved_Atoms>  (464) 
nan

$$$$
CHEMBL3663089
     RDKit          3D

  0  0  0  0  0  0  0  0  0  0999 V3000
M  V30 BEGIN CTAB
M  V30 COUNTS 49 52 0 0 0
M  V30 BEGIN ATOM
M  V30 1 C 7.136277 -4.853739 3.179494 0
M  V30 2 O 6.569486 -3.684448 2.588962 0
M  V30 3 C 6.000990 -3.730429 1.318008 0
M  V30 4 O 6.040964 -4.861675 0.775685 0
M  V30 5 C 5.397200 -2.503659 0.678386 0
M  V30 6 C 6.319566 -1.293813 0.709859 0
M  V30 7 C 5.093134 -1.364191 1.540127 0
M  V30 8 C 3.967863 -0.431693 1.303035 0
M  V30 9 N 4.107953 0.828239 1.811930 0
M  V30 10 N 3.038947 1.544263 1.508249 0
M  V30 11 C 2.146780 0.828879 0.800202 0
M  V30 12 C 0.905046 0.982168 0.215898 0
M  V30 13 C 0.336871 -0.110104 -0.451656 0
M  V30 14 N -0.946725 0.056189 -1.053072 0
M  V30 15 C -2.013981 -0.271415 -0.146855 0
M  V30 16 O -1.908094 -0.669123 1.061791 0
M  V30 17 N -3.363407 -0.165041 -0.572424 0
M  V30 18 C -4.518338 -0.472374 0.265590 0 CFG=2
M  V30 19 C -5.185259 -1.702570 -0.346984 0
M  V30 20 C -5.457815 0.641152 0.408046 0
M  V30 21 C -4.906168 1.895282 0.663873 0
M  V30 22 C -5.797972 2.963781 0.801094 0
M  V30 23 C -7.163259 2.807450 0.692331 0
M  V30 24 C -7.709797 1.567212 0.439278 0
M  V30 25 C -6.839063 0.501339 0.301280 0
M  V30 26 N 0.978772 -1.313684 -0.536583 0
M  V30 27 C 2.196348 -1.493493 0.026045 0
M  V30 28 C 2.740789 -0.409568 0.677992 0
M  V30 29 H 7.789108 -4.538715 4.004182 0
M  V30 30 H 6.286796 -5.469557 3.545250 0
M  V30 31 H 7.669898 -5.466522 2.430867 0
M  V30 32 H 4.990067 -2.684487 -0.314712 0
M  V30 33 H 7.297317 -1.399607 1.201168 0
M  V30 34 H 6.274217 -0.570165 -0.115430 0
M  V30 35 H 5.276090 -1.526761 2.636920 0
M  V30 36 H 2.845773 2.557632 1.759431 0
M  V30 37 H 0.445235 1.937075 0.308752 0
M  V30 38 H -1.222324 0.366797 -2.011964 0
M  V30 39 H -3.631302 0.148942 -1.540726 0
M  V30 40 H -4.213640 -0.803022 1.286895 0
M  V30 41 H -5.875117 -1.365660 -1.120004 0
M  V30 42 H -5.611109 -2.378880 0.417500 0
M  V30 43 H -4.384181 -2.314560 -0.847526 0
M  V30 44 H -3.862495 2.123985 0.766454 0
M  V30 45 H -5.426280 3.965339 1.001311 0
M  V30 46 H -7.869589 3.611257 0.793456 0
M  V30 47 H -8.765810 1.365379 0.340758 0
M  V30 48 H -7.258393 -0.492219 0.099670 0
M  V30 49 H 2.671534 -2.458636 -0.056229 0
M  V30 END ATOM
M  V30 BEGIN BOND
M  V30 1 1 1 2
M  V30 2 1 2 3
M  V30 3 2 3 4
M  V30 4 1 3 5
M  V30 5 1 5 6
M  V30 6 1 6 7
M  V30 7 1 7 8
M  V30 8 2 8 9
M  V30 9 1 9 10
M  V30 10 1 10 11
M  V30 11 2 11 12
M  V30 12 1 12 13
M  V30 13 1 13 14
M  V30 14 1 14 15
M  V30 15 2 15 16
M  V30 16 1 15 17
M  V30 17 1 17 18
M  V30 18 1 18 19
M  V30 19 1 18 20
M  V30 20 2 20 21
M  V30 21 1 21 22
M  V30 22 2 22 23
M  V30 23 1 23 24
M  V30 24 2 24 25
M  V30 25 2 13 26
M  V30 26 1 26 27
M  V30 27 2 27 28
M  V30 28 1 7 5
M  V30 29 1 28 8
M  V30 30 1 28 11
M  V30 31 1 25 20
M  V30 32 1 1 29
M  V30 33 1 1 30
M  V30 34 1 1 31
M  V30 35 1 5 32
M  V30 36 1 6 33
M  V30 37 1 6 34
M  V30 38 1 7 35
M  V30 39 1 10 36
M  V30 40 1 12 37
M  V30 41 1 14 38
M  V30 42 1 17 39
M  V30 43 1 18 40 CFG=1
M  V30 44 1 19 41
M  V30 45 1 19 42
M  V30 46 1 19 43
M  V30 47 1 21 44
M  V30 48 1 22 45
M  V30 49 1 23 46
M  V30 50 1 24 47
M  V30 51 1 25 48
M  V30 52 1 27 49
M  V30 END BOND
M  V30 END CTAB
M  END
>  <Dataset>  (465) 
ChEMBL_Kinases

>  <Ligand_Instance>  (465) 
nan

>  <PDB_ID>  (465) 
nan

>  <Standardized_SMILES>  (465) 
COC(=O)C1CC1c1n[nH]c2cc(NC(=O)N[C@H](C)c3ccccc3)ncc12

>  <Name>  (465) 
nan

>  <Pocket>  (465) 
nan

>  <ATP_Site>  (465) 
nan

>  <Peripheral>  (465) 
nan

>  <Num_H_Atoms_ProtBoundConf>  (465) 
nan

>  <Num_Resolved_Atoms>  (465) 
nan

>  <Num_Not_Resolved_Atoms>  (465) 
nan

$$$$
CHEMBL3663088
     RDKit          3D

  0  0  0  0  0  0  0  0  0  0999 V3000
M  V30 BEGIN CTAB
M  V30 COUNTS 42 45 0 0 0
M  V30 BEGIN ATOM
M  V30 1 C -1.356609 -3.682780 3.992291 0
M  V30 2 C -0.120527 -3.037539 3.406789 0 CFG=1
M  V30 3 N -0.373158 -1.697979 2.939301 0
M  V30 4 C -0.209566 -1.262682 1.612113 0
M  V30 5 O 0.185371 -2.068540 0.731072 0
M  V30 6 N -0.511941 0.101757 1.351099 0
M  V30 7 C -0.368989 0.611896 0.027674 0
M  V30 8 C -0.649990 1.927589 -0.277294 0
M  V30 9 C -0.531710 2.481151 -1.536581 0
M  V30 10 N -0.732472 3.688791 -2.090188 0
M  V30 11 N -0.443517 3.620262 -3.386532 0
M  V30 12 C -0.046648 2.362828 -3.708523 0
M  V30 13 C 0.350656 1.908362 -5.037710 0
M  V30 14 C 0.023635 0.770915 -5.746997 0
M  V30 15 N 0.661295 0.837835 -6.929134 0
M  V30 16 O 1.348519 1.941814 -6.972665 0
M  V30 17 C 1.199558 2.629809 -5.857435 0
M  V30 18 C -0.093647 1.614786 -2.546110 0
M  V30 19 C 0.185284 0.309844 -2.244748 0
M  V30 20 N 0.048087 -0.174979 -0.980929 0
M  V30 21 C 1.004969 -3.030026 4.374752 0
M  V30 22 C 1.137195 -3.652195 5.593520 0
M  V30 23 C 2.277579 -3.506472 6.328730 0
M  V30 24 C 3.330784 -2.724722 5.860065 0
M  V30 25 C 3.215715 -2.102643 4.656514 0
M  V30 26 C 2.066662 -2.245285 3.908143 0
M  V30 27 H -1.053392 -4.685659 4.371951 0
M  V30 28 H -2.117795 -3.823520 3.201089 0
M  V30 29 H -1.798410 -3.061799 4.778008 0
M  V30 30 H 0.225653 -3.673142 2.547610 0
M  V30 31 H -0.693676 -1.115822 3.743226 0
M  V30 32 H -0.832386 0.738599 2.086980 0
M  V30 33 H -0.984380 2.564240 0.523963 0
M  V30 34 H -1.057511 4.449470 -1.487786 0
M  V30 35 H -0.641568 0.006134 -5.342596 0
M  V30 36 H 1.702103 3.574931 -5.724931 0
M  V30 37 H 0.518669 -0.296845 -3.078320 0
M  V30 38 H 0.269780 -4.224876 5.853641 0
M  V30 39 H 2.337149 -4.012706 7.278551 0
M  V30 40 H 4.221036 -2.643056 6.491094 0
M  V30 41 H 4.076289 -1.513456 4.360869 0
M  V30 42 H 2.096795 -1.696838 2.961149 0
M  V30 END ATOM
M  V30 BEGIN BOND
M  V30 1 1 1 2
M  V30 2 1 2 3
M  V30 3 1 3 4
M  V30 4 2 4 5
M  V30 5 1 4 6
M  V30 6 1 6 7
M  V30 7 2 7 8
M  V30 8 1 8 9
M  V30 9 1 9 10
M  V30 10 1 10 11
M  V30 11 2 11 12
M  V30 12 1 12 13
M  V30 13 1 13 14
M  V30 14 2 14 15
M  V30 15 1 15 16
M  V30 16 1 16 17
M  V30 17 1 12 18
M  V30 18 1 18 19
M  V30 19 2 19 20
M  V30 20 1 2 21
M  V30 21 2 21 22
M  V30 22 1 22 23
M  V30 23 2 23 24
M  V30 24 1 24 25
M  V30 25 2 25 26
M  V30 26 1 20 7
M  V30 27 1 26 21
M  V30 28 2 18 9
M  V30 29 2 17 13
M  V30 30 1 1 27
M  V30 31 1 1 28
M  V30 32 1 1 29
M  V30 33 1 2 30 CFG=3
M  V30 34 1 3 31
M  V30 35 1 6 32
M  V30 36 1 8 33
M  V30 37 1 10 34
M  V30 38 1 14 35
M  V30 39 1 17 36
M  V30 40 1 19 37
M  V30 41 1 22 38
M  V30 42 1 23 39
M  V30 43 1 24 40
M  V30 44 1 25 41
M  V30 45 1 26 42
M  V30 END BOND
M  V30 END CTAB
M  END
>  <Dataset>  (466) 
ChEMBL_Kinases

>  <Ligand_Instance>  (466) 
nan

>  <PDB_ID>  (466) 
nan

>  <Standardized_SMILES>  (466) 
C[C@@H](NC(=O)Nc1cc2[nH]nc(-c3cnoc3)c2cn1)c1ccccc1

>  <Name>  (466) 
nan

>  <Pocket>  (466) 
nan

>  <ATP_Site>  (466) 
nan

>  <Peripheral>  (466) 
nan

>  <Num_H_Atoms_ProtBoundConf>  (466) 
nan

>  <Num_Resolved_Atoms>  (466) 
nan

>  <Num_Not_Resolved_Atoms>  (466) 
nan

$$$$
CHEMBL3663087
     RDKit          3D

  0  0  0  0  0  0  0  0  0  0999 V3000
M  V30 BEGIN CTAB
M  V30 COUNTS 56 59 0 0 0
M  V30 BEGIN ATOM
M  V30 1 C 0.936395 -6.641264 -2.722876 0
M  V30 2 C 0.515734 -5.246549 -3.145097 0 CFG=1
M  V30 3 N 1.376057 -4.316658 -2.432480 0
M  V30 4 C 1.037976 -3.409112 -1.413358 0
M  V30 5 O -0.147141 -3.322468 -0.998940 0
M  V30 6 N 2.114203 -2.625866 -0.909918 0
M  V30 7 C 1.844794 -1.682545 0.128168 0
M  V30 8 C 2.869833 -0.886602 0.657592 0
M  V30 9 C 2.628224 0.030742 1.662440 0
M  V30 10 N 3.341084 0.922718 2.376459 0
M  V30 11 N 2.546083 1.560399 3.248783 0
M  V30 12 C 1.279316 1.071407 3.100307 0
M  V30 13 C 0.138705 1.530832 3.886394 0
M  V30 14 C 0.278701 1.692237 5.266339 0
M  V30 15 N -0.919029 2.115411 5.692209 0
M  V30 16 N -1.792061 2.234824 4.720665 0
M  V30 17 C -3.158364 2.662362 4.833851 0
M  V30 18 C -3.333070 4.156540 4.687581 0
M  V30 19 C -2.577155 4.931213 5.728020 0
M  V30 20 C -2.974107 4.642825 3.317840 0
M  V30 21 O -4.690032 4.412224 4.900277 0
M  V30 22 C -1.160428 1.878055 3.590109 0
M  V30 23 C 1.321422 0.108380 2.104276 0
M  V30 24 C 0.285553 -0.657606 1.608437 0
M  V30 25 N 0.604497 -1.526934 0.631198 0
M  V30 26 C 0.521507 -5.032389 -4.592349 0
M  V30 27 C 0.620027 -6.004030 -5.563373 0
M  V30 28 C 0.614053 -5.668714 -6.917512 0
M  V30 29 C 0.506636 -4.337646 -7.249265 0
M  V30 30 C 0.406540 -3.341732 -6.307518 0
M  V30 31 C 0.415212 -3.703830 -4.976615 0
M  V30 32 H 0.084263 -7.328832 -2.899506 0
M  V30 33 H 1.854933 -6.891661 -3.254142 0
M  V30 34 H 1.122592 -6.593702 -1.619226 0
M  V30 35 H -0.539125 -5.143860 -2.754035 0
M  V30 36 H 2.316204 -4.500053 -2.877907 0
M  V30 37 H 3.093071 -2.702544 -1.257568 0
M  V30 38 H 3.876553 -0.966353 0.296854 0
M  V30 39 H 4.369226 1.066680 2.238414 0
M  V30 40 H 1.139368 1.525472 5.891581 0
M  V30 41 H -3.589919 2.419187 5.848072 0
M  V30 42 H -3.841129 2.179616 4.102667 0
M  V30 43 H -2.905413 4.699413 6.751976 0
M  V30 44 H -1.478847 4.804861 5.639819 0
M  V30 45 H -2.774184 6.004524 5.543249 0
M  V30 46 H -3.353056 3.981087 2.514895 0
M  V30 47 H -3.432754 5.640570 3.141882 0
M  V30 48 H -1.865559 4.808871 3.230636 0
M  V30 49 H -5.235620 4.201343 4.101338 0
M  V30 50 H -1.514455 1.835537 2.580245 0
M  V30 51 H -0.715394 -0.543914 2.002312 0
M  V30 52 H 0.697055 -6.999180 -5.121474 0
M  V30 53 H 0.696484 -6.507273 -7.593862 0
M  V30 54 H 0.505721 -4.117932 -8.318158 0
M  V30 55 H 0.328401 -2.342212 -6.702369 0
M  V30 56 H 0.333922 -2.881737 -4.274491 0
M  V30 END ATOM
M  V30 BEGIN BOND
M  V30 1 1 1 2
M  V30 2 1 2 3
M  V30 3 1 3 4
M  V30 4 2 4 5
M  V30 5 1 4 6
M  V30 6 1 6 7
M  V30 7 2 7 8
M  V30 8 1 8 9
M  V30 9 1 9 10
M  V30 10 1 10 11
M  V30 11 2 11 12
M  V30 12 1 12 13
M  V30 13 1 13 14
M  V30 14 2 14 15
M  V30 15 1 15 16
M  V30 16 1 16 17
M  V30 17 1 17 18
M  V30 18 1 18 19
M  V30 19 1 18 20
M  V30 20 1 18 21
M  V30 21 1 16 22
M  V30 22 1 12 23
M  V30 23 1 23 24
M  V30 24 2 24 25
M  V30 25 1 2 26
M  V30 26 2 26 27
M  V30 27 1 27 28
M  V30 28 2 28 29
M  V30 29 1 29 30
M  V30 30 2 30 31
M  V30 31 1 25 7
M  V30 32 1 31 26
M  V30 33 2 23 9
M  V30 34 2 22 13
M  V30 35 1 1 32
M  V30 36 1 1 33
M  V30 37 1 1 34
M  V30 38 1 2 35 CFG=1
M  V30 39 1 3 36
M  V30 40 1 6 37
M  V30 41 1 8 38
M  V30 42 1 10 39
M  V30 43 1 14 40
M  V30 44 1 17 41
M  V30 45 1 17 42
M  V30 46 1 19 43
M  V30 47 1 19 44
M  V30 48 1 19 45
M  V30 49 1 20 46
M  V30 50 1 20 47
M  V30 51 1 20 48
M  V30 52 1 21 49
M  V30 53 1 22 50
M  V30 54 1 24 51
M  V30 55 1 27 52
M  V30 56 1 28 53
M  V30 57 1 29 54
M  V30 58 1 30 55
M  V30 59 1 31 56
M  V30 END BOND
M  V30 END CTAB
M  END
>  <Dataset>  (467) 
ChEMBL_Kinases

>  <Ligand_Instance>  (467) 
nan

>  <PDB_ID>  (467) 
nan

>  <Standardized_SMILES>  (467) 
C[C@@H](NC(=O)Nc1cc2[nH]nc(-c3cnn(CC(C)(C)O)c3)c2cn1)c1ccccc1

>  <Name>  (467) 
nan

>  <Pocket>  (467) 
nan

>  <ATP_Site>  (467) 
nan

>  <Peripheral>  (467) 
nan

>  <Num_H_Atoms_ProtBoundConf>  (467) 
nan

>  <Num_Resolved_Atoms>  (467) 
nan

>  <Num_Not_Resolved_Atoms>  (467) 
nan

$$$$
CHEMBL3663086
     RDKit          3D

  0  0  0  0  0  0  0  0  0  0999 V3000
M  V30 BEGIN CTAB
M  V30 COUNTS 51 55 0 0 0
M  V30 BEGIN ATOM
M  V30 1 C -0.310371 -4.451040 5.010342 0
M  V30 2 C -0.336070 -4.310845 3.515650 0 CFG=1
M  V30 3 N 0.847797 -3.682530 2.979844 0
M  V30 4 C 0.793506 -2.440596 2.270360 0
M  V30 5 O -0.297420 -1.842005 2.083908 0
M  V30 6 N 2.032572 -1.895049 1.774242 0
M  V30 7 C 2.021137 -0.641627 1.051766 0
M  V30 8 C 3.222590 -0.104478 0.565941 0
M  V30 9 C 3.137246 1.104914 -0.120362 0
M  V30 10 N 4.074246 1.897714 -0.715296 0
M  V30 11 N 3.453649 2.964582 -1.241093 0
M  V30 12 C 2.131781 2.879579 -0.998909 0
M  V30 13 C 1.063215 3.809340 -1.380073 0
M  V30 14 C 1.236678 4.984046 -2.084238 0
M  V30 15 C 0.006892 5.585762 -2.252301 0
M  V30 16 N -0.890593 4.780016 -1.655581 0
M  V30 17 C -2.327665 4.783773 -1.447810 0
M  V30 18 C -2.943779 3.481395 -1.961405 0
M  V30 19 O -4.056959 4.221951 -2.341943 0
M  V30 20 C -3.173660 5.306244 -2.551874 0
M  V30 21 N -0.260839 3.731983 -1.141952 0
M  V30 22 C 1.906051 1.711878 -0.291239 0
M  V30 23 C 0.718048 1.156802 0.202982 0
M  V30 24 N 0.843376 -0.013871 0.861072 0
M  V30 25 C -0.612396 -5.614624 2.844992 0
M  V30 26 C -1.866865 -5.987542 2.419870 0
M  V30 27 C -2.076924 -7.203926 1.803643 0
M  V30 28 C -1.010806 -8.054218 1.613623 0
M  V30 29 C 0.242749 -7.685964 2.036361 0
M  V30 30 C 0.460688 -6.465153 2.656244 0
M  V30 31 H -1.272711 -4.162160 5.486483 0
M  V30 32 H 0.479506 -3.837940 5.473525 0
M  V30 33 H -0.134261 -5.510608 5.351477 0
M  V30 34 H -1.212991 -3.672862 3.275085 0
M  V30 35 H 1.725285 -4.218581 3.161367 0
M  V30 36 H 2.937772 -2.367172 1.914776 0
M  V30 37 H 4.156724 -0.599444 0.715493 0
M  V30 38 H 5.081402 1.643606 -0.715573 0
M  V30 39 H 2.133864 5.431951 -2.474125 0
M  V30 40 H -0.348873 6.490758 -2.723298 0
M  V30 41 H -2.648900 5.029102 -0.418653 0
M  V30 42 H -2.415847 3.132120 -2.873323 0
M  V30 43 H -3.078126 2.738296 -1.168988 0
M  V30 44 H -2.703859 5.221317 -3.531788 0
M  V30 45 H -3.687072 6.263967 -2.317696 0
M  V30 46 H -0.231820 1.654215 0.054316 0
M  V30 47 H -2.633328 -5.230805 2.625171 0
M  V30 48 H -3.095951 -7.400545 1.508517 0
M  V30 49 H -1.287485 -8.981734 1.120617 0
M  V30 50 H 0.982441 -8.465557 1.814950 0
M  V30 51 H 1.474059 -6.291144 2.939563 0
M  V30 END ATOM
M  V30 BEGIN BOND
M  V30 1 1 1 2
M  V30 2 1 2 3
M  V30 3 1 3 4
M  V30 4 2 4 5
M  V30 5 1 4 6
M  V30 6 1 6 7
M  V30 7 2 7 8
M  V30 8 1 8 9
M  V30 9 1 9 10
M  V30 10 1 10 11
M  V30 11 2 11 12
M  V30 12 1 12 13
M  V30 13 1 13 14
M  V30 14 2 14 15
M  V30 15 1 15 16
M  V30 16 1 16 17
M  V30 17 1 17 18
M  V30 18 1 18 19
M  V30 19 1 19 20
M  V30 20 1 16 21
M  V30 21 1 12 22
M  V30 22 1 22 23
M  V30 23 2 23 24
M  V30 24 1 2 25
M  V30 25 2 25 26
M  V30 26 1 26 27
M  V30 27 2 27 28
M  V30 28 1 28 29
M  V30 29 2 29 30
M  V30 30 1 24 7
M  V30 31 1 30 25
M  V30 32 2 22 9
M  V30 33 2 21 13
M  V30 34 1 20 17
M  V30 35 1 1 31
M  V30 36 1 1 32
M  V30 37 1 1 33
M  V30 38 1 2 34 CFG=1
M  V30 39 1 3 35
M  V30 40 1 6 36
M  V30 41 1 8 37
M  V30 42 1 10 38
M  V30 43 1 14 39
M  V30 44 1 15 40
M  V30 45 1 17 41
M  V30 46 1 18 42
M  V30 47 1 18 43
M  V30 48 1 20 44
M  V30 49 1 20 45
M  V30 50 1 23 46
M  V30 51 1 26 47
M  V30 52 1 27 48
M  V30 53 1 28 49
M  V30 54 1 29 50
M  V30 55 1 30 51
M  V30 END BOND
M  V30 END CTAB
M  END
>  <Dataset>  (468) 
ChEMBL_Kinases

>  <Ligand_Instance>  (468) 
nan

>  <PDB_ID>  (468) 
nan

>  <Standardized_SMILES>  (468) 
C[C@@H](NC(=O)Nc1cc2[nH]nc(-c3ccn(C4COC4)n3)c2cn1)c1ccccc1

>  <Name>  (468) 
nan

>  <Pocket>  (468) 
nan

>  <ATP_Site>  (468) 
nan

>  <Peripheral>  (468) 
nan

>  <Num_H_Atoms_ProtBoundConf>  (468) 
nan

>  <Num_Resolved_Atoms>  (468) 
nan

>  <Num_Not_Resolved_Atoms>  (468) 
nan

$$$$
CHEMBL3663085
     RDKit          3D

  0  0  0  0  0  0  0  0  0  0999 V3000
M  V30 BEGIN CTAB
M  V30 COUNTS 39 41 0 0 0
M  V30 BEGIN ATOM
M  V30 1 C -1.633902 -6.987900 3.387009 0
M  V30 2 C -0.547510 -5.989333 3.081954 0
M  V30 3 N 0.763487 -6.151689 3.366995 0
M  V30 4 N 1.453298 -5.091086 2.968513 0
M  V30 5 C 0.586396 -4.238288 2.423500 0
M  V30 6 C 0.643335 -2.972721 1.827484 0
M  V30 7 C -0.510254 -2.340894 1.343177 0
M  V30 8 N -0.414185 -1.058140 0.746471 0
M  V30 9 C -0.429359 0.336731 0.882543 0
M  V30 10 O -0.609160 0.248626 2.098393 0
M  V30 11 N -0.258023 1.146080 -0.257398 0
M  V30 12 C -0.284833 2.570937 -0.012661 0 CFG=2
M  V30 13 C -1.461097 3.234017 -0.702618 0
M  V30 14 C 0.993736 3.212404 -0.434818 0
M  V30 15 C 1.464780 2.811618 -1.667432 0
M  V30 16 C 2.624083 3.282101 -2.237826 0
M  V30 17 C 3.342035 4.212287 -1.511475 0
M  V30 18 C 2.903398 4.645314 -0.262688 0
M  V30 19 C 1.734303 4.129267 0.242604 0
M  V30 20 N -1.703762 -2.953428 1.447424 0
M  V30 21 C -1.857484 -4.186259 2.012623 0
M  V30 22 C -0.696414 -4.744836 2.463067 0
M  V30 23 H -2.579384 -6.378303 3.490522 0
M  V30 24 H -1.787891 -7.643627 2.512617 0
M  V30 25 H -1.424200 -7.505164 4.326145 0
M  V30 26 H 2.490365 -4.907826 3.044983 0
M  V30 27 H 1.616477 -2.484322 1.747945 0
M  V30 28 H -0.270295 -1.456190 -0.231430 0
M  V30 29 H -0.124425 0.720719 -1.193295 0
M  V30 30 H -0.414297 2.795356 1.064207 0
M  V30 31 H -1.545545 3.001900 -1.768884 0
M  V30 32 H -1.309600 4.332350 -0.557386 0
M  V30 33 H -2.363458 2.999208 -0.098946 0
M  V30 34 H 0.937654 2.083418 -2.277566 0
M  V30 35 H 2.991181 2.973330 -3.192560 0
M  V30 36 H 4.260035 4.609863 -1.920552 0
M  V30 37 H 3.479641 5.368744 0.281619 0
M  V30 38 H 1.335555 4.424255 1.210728 0
M  V30 39 H -2.807717 -4.689324 2.103127 0
M  V30 END ATOM
M  V30 BEGIN BOND
M  V30 1 1 1 2
M  V30 2 2 2 3
M  V30 3 1 3 4
M  V30 4 1 4 5
M  V30 5 2 5 6
M  V30 6 1 6 7
M  V30 7 1 7 8
M  V30 8 1 8 9
M  V30 9 2 9 10
M  V30 10 1 9 11
M  V30 11 1 11 12
M  V30 12 1 12 13
M  V30 13 1 12 14
M  V30 14 2 14 15
M  V30 15 1 15 16
M  V30 16 2 16 17
M  V30 17 1 17 18
M  V30 18 2 18 19
M  V30 19 2 7 20
M  V30 20 1 20 21
M  V30 21 2 21 22
M  V30 22 1 22 2
M  V30 23 1 22 5
M  V30 24 1 19 14
M  V30 25 1 1 23
M  V30 26 1 1 24
M  V30 27 1 1 25
M  V30 28 1 4 26
M  V30 29 1 6 27
M  V30 30 1 8 28
M  V30 31 1 11 29
M  V30 32 1 12 30 CFG=1
M  V30 33 1 13 31
M  V30 34 1 13 32
M  V30 35 1 13 33
M  V30 36 1 15 34
M  V30 37 1 16 35
M  V30 38 1 17 36
M  V30 39 1 18 37
M  V30 40 1 19 38
M  V30 41 1 21 39
M  V30 END BOND
M  V30 END CTAB
M  END
>  <Dataset>  (469) 
ChEMBL_Kinases

>  <Ligand_Instance>  (469) 
nan

>  <PDB_ID>  (469) 
nan

>  <Standardized_SMILES>  (469) 
Cc1n[nH]c2cc(NC(=O)N[C@H](C)c3ccccc3)ncc12

>  <Name>  (469) 
nan

>  <Pocket>  (469) 
nan

>  <ATP_Site>  (469) 
nan

>  <Peripheral>  (469) 
nan

>  <Num_H_Atoms_ProtBoundConf>  (469) 
nan

>  <Num_Resolved_Atoms>  (469) 
nan

>  <Num_Not_Resolved_Atoms>  (469) 
nan

$$$$
CHEMBL3663084
     RDKit          3D

  0  0  0  0  0  0  0  0  0  0999 V3000
M  V30 BEGIN CTAB
M  V30 COUNTS 45 48 0 0 0
M  V30 BEGIN ATOM
M  V30 1 C 0.638917 -4.568833 3.785672 0
M  V30 2 C 0.430775 -4.206938 2.340716 0 CFG=1
M  V30 3 N 1.273428 -3.045594 2.013113 0
M  V30 4 C 0.746061 -1.777373 1.643709 0
M  V30 5 O -0.509381 -1.700105 1.611360 0
M  V30 6 N 1.674383 -0.734519 1.350906 0
M  V30 7 C 1.116646 0.524310 0.983953 0
M  V30 8 C 0.907339 0.669757 -0.372158 0
M  V30 9 C 0.365554 1.863984 -0.835213 0
M  V30 10 N 0.052616 2.293247 -2.073516 0
M  V30 11 N -0.435542 3.514072 -1.951124 0
M  V30 12 C -0.445432 3.886017 -0.654794 0
M  V30 13 C -0.919495 5.173897 -0.154685 0
M  V30 14 C -0.287460 5.971030 0.781569 0
M  V30 15 C -0.918282 7.172018 1.120128 0
M  V30 16 N -2.087045 7.535175 0.560202 0
M  V30 17 C -2.728888 6.765267 -0.365338 0
M  V30 18 F -3.917741 7.174665 -0.909387 0
M  V30 19 C -2.131995 5.576535 -0.719058 0
M  V30 20 C 0.063325 2.851907 0.105401 0
M  V30 21 C 0.282868 2.681807 1.462470 0
M  V30 22 N 0.808342 1.513526 1.874283 0
M  V30 23 C 0.713885 -5.328174 1.407658 0
M  V30 24 C 2.038113 -5.628039 1.127786 0
M  V30 25 C 2.326954 -6.670511 0.259644 0
M  V30 26 C 1.277283 -7.383832 -0.304088 0
M  V30 27 C -0.054841 -7.113224 -0.048193 0
M  V30 28 C -0.288711 -6.067597 0.821220 0
M  V30 29 H 1.412758 -5.354501 3.910432 0
M  V30 30 H 0.882832 -3.671461 4.373673 0
M  V30 31 H -0.306568 -4.996396 4.193470 0
M  V30 32 H -0.615478 -3.852511 2.230344 0
M  V30 33 H 2.299978 -3.228102 2.073927 0
M  V30 34 H 2.716339 -0.867651 1.397623 0
M  V30 35 H 1.139830 -0.091480 -1.100475 0
M  V30 36 H 0.175456 1.752360 -2.975108 0
M  V30 37 H 0.628938 5.595608 1.162778 0
M  V30 38 H -0.412880 7.784613 1.852969 0
M  V30 39 H -2.682138 5.008997 -1.453471 0
M  V30 40 H 0.038180 3.466066 2.165959 0
M  V30 41 H 2.890240 -5.105948 1.538358 0
M  V30 42 H 3.325927 -6.984945 -0.024362 0
M  V30 43 H 1.495509 -8.213139 -0.994433 0
M  V30 44 H -0.810106 -7.714048 -0.526149 0
M  V30 45 H -1.341661 -5.842941 1.032373 0
M  V30 END ATOM
M  V30 BEGIN BOND
M  V30 1 1 1 2
M  V30 2 1 2 3
M  V30 3 1 3 4
M  V30 4 2 4 5
M  V30 5 1 4 6
M  V30 6 1 6 7
M  V30 7 2 7 8
M  V30 8 1 8 9
M  V30 9 1 9 10
M  V30 10 1 10 11
M  V30 11 2 11 12
M  V30 12 1 12 13
M  V30 13 2 13 14
M  V30 14 1 14 15
M  V30 15 2 15 16
M  V30 16 1 16 17
M  V30 17 1 17 18
M  V30 18 2 17 19
M  V30 19 1 12 20
M  V30 20 1 20 21
M  V30 21 2 21 22
M  V30 22 1 2 23
M  V30 23 2 23 24
M  V30 24 1 24 25
M  V30 25 2 25 26
M  V30 26 1 26 27
M  V30 27 2 27 28
M  V30 28 1 22 7
M  V30 29 1 28 23
M  V30 30 2 20 9
M  V30 31 1 19 13
M  V30 32 1 1 29
M  V30 33 1 1 30
M  V30 34 1 1 31
M  V30 35 1 2 32 CFG=1
M  V30 36 1 3 33
M  V30 37 1 6 34
M  V30 38 1 8 35
M  V30 39 1 10 36
M  V30 40 1 14 37
M  V30 41 1 15 38
M  V30 42 1 19 39
M  V30 43 1 21 40
M  V30 44 1 24 41
M  V30 45 1 25 42
M  V30 46 1 26 43
M  V30 47 1 27 44
M  V30 48 1 28 45
M  V30 END BOND
M  V30 END CTAB
M  END
>  <Dataset>  (470) 
ChEMBL_Kinases

>  <Ligand_Instance>  (470) 
nan

>  <PDB_ID>  (470) 
nan

>  <Standardized_SMILES>  (470) 
C[C@@H](NC(=O)Nc1cc2[nH]nc(-c3ccnc(F)c3)c2cn1)c1ccccc1

>  <Name>  (470) 
nan

>  <Pocket>  (470) 
nan

>  <ATP_Site>  (470) 
nan

>  <Peripheral>  (470) 
nan

>  <Num_H_Atoms_ProtBoundConf>  (470) 
nan

>  <Num_Resolved_Atoms>  (470) 
nan

>  <Num_Not_Resolved_Atoms>  (470) 
nan

$$$$
CHEMBL3663083
     RDKit          3D

  0  0  0  0  0  0  0  0  0  0999 V3000
M  V30 BEGIN CTAB
M  V30 COUNTS 43 45 0 0 0
M  V30 BEGIN ATOM
M  V30 1 C 4.953961 -3.648119 0.410452 0
M  V30 2 O 4.162333 -3.008527 1.367579 0
M  V30 3 C 4.304365 -3.659457 2.575057 0 CFG=1
M  V30 4 C 4.945118 -2.656286 3.544836 0
M  V30 5 C 3.027604 -4.175532 3.175432 0
M  V30 6 N 2.133055 -3.067132 3.417477 0
M  V30 7 C 1.526530 -2.130756 2.585558 0
M  V30 8 O 1.738860 -2.194021 1.355427 0
M  V30 9 N 0.673377 -1.098539 3.054054 0
M  V30 10 C 0.104506 -0.192311 2.113855 0
M  V30 11 C 0.600863 1.010277 1.650328 0
M  V30 12 C -0.132571 1.729671 0.727285 0
M  V30 13 N 0.177008 2.910928 0.160402 0
M  V30 14 N -0.827011 3.211727 -0.662611 0
M  V30 15 C -1.773829 2.234381 -0.626458 0
M  V30 16 C -3.026158 2.175248 -1.373260 0
M  V30 17 C -3.807824 3.333756 -1.434481 0
M  V30 18 C -4.998112 3.310826 -2.132976 0
M  V30 19 C -5.449436 2.165363 -2.782844 0
M  V30 20 F -6.624565 2.177914 -3.460519 0
M  V30 21 C -4.685864 1.042717 -2.719979 0
M  V30 22 C -3.480462 1.043609 -2.020179 0
M  V30 23 C -1.348345 1.268579 0.262328 0
M  V30 24 C -1.816274 0.068409 0.742124 0
M  V30 25 N -1.097784 -0.628699 1.641438 0
M  V30 26 H 4.851310 -3.135130 -0.571646 0
M  V30 27 H 4.617688 -4.708721 0.259731 0
M  V30 28 H 6.020771 -3.643732 0.671983 0
M  V30 29 H 5.019467 -4.501444 2.389861 0
M  V30 30 H 4.117769 -2.017970 3.894903 0
M  V30 31 H 5.485832 -3.185152 4.350963 0
M  V30 32 H 5.695979 -2.096236 2.952414 0
M  V30 33 H 3.186307 -4.794685 4.057964 0
M  V30 34 H 2.529664 -4.772457 2.344262 0
M  V30 35 H 1.880739 -2.930008 4.436972 0
M  V30 36 H 0.466296 -1.004493 4.067728 0
M  V30 37 H 1.557627 1.269222 2.083162 0
M  V30 38 H 1.042410 3.484508 0.333306 0
M  V30 39 H -3.450553 4.226825 -0.924681 0
M  V30 40 H -5.626437 4.200851 -2.196147 0
M  V30 41 H -5.048050 0.155616 -3.230601 0
M  V30 42 H -2.884442 0.141118 -1.979986 0
M  V30 43 H -2.766755 -0.291520 0.378279 0
M  V30 END ATOM
M  V30 BEGIN BOND
M  V30 1 1 1 2
M  V30 2 1 2 3
M  V30 3 1 3 4
M  V30 4 1 3 5
M  V30 5 1 5 6
M  V30 6 1 6 7
M  V30 7 2 7 8
M  V30 8 1 7 9
M  V30 9 1 9 10
M  V30 10 2 10 11
M  V30 11 1 11 12
M  V30 12 1 12 13
M  V30 13 1 13 14
M  V30 14 2 14 15
M  V30 15 1 15 16
M  V30 16 2 16 17
M  V30 17 1 17 18
M  V30 18 2 18 19
M  V30 19 1 19 20
M  V30 20 1 19 21
M  V30 21 2 21 22
M  V30 22 1 15 23
M  V30 23 1 23 24
M  V30 24 2 24 25
M  V30 25 1 25 10
M  V30 26 2 23 12
M  V30 27 1 22 16
M  V30 28 1 1 26
M  V30 29 1 1 27
M  V30 30 1 1 28
M  V30 31 1 3 29 CFG=3
M  V30 32 1 4 30
M  V30 33 1 4 31
M  V30 34 1 4 32
M  V30 35 1 5 33
M  V30 36 1 5 34
M  V30 37 1 6 35
M  V30 38 1 9 36
M  V30 39 1 11 37
M  V30 40 1 13 38
M  V30 41 1 17 39
M  V30 42 1 18 40
M  V30 43 1 21 41
M  V30 44 1 22 42
M  V30 45 1 24 43
M  V30 END BOND
M  V30 END CTAB
M  END
>  <Dataset>  (471) 
ChEMBL_Kinases

>  <Ligand_Instance>  (471) 
nan

>  <PDB_ID>  (471) 
nan

>  <Standardized_SMILES>  (471) 
CO[C@@H](C)CNC(=O)Nc1cc2[nH]nc(-c3ccc(F)cc3)c2cn1

>  <Name>  (471) 
nan

>  <Pocket>  (471) 
nan

>  <ATP_Site>  (471) 
nan

>  <Peripheral>  (471) 
nan

>  <Num_H_Atoms_ProtBoundConf>  (471) 
nan

>  <Num_Resolved_Atoms>  (471) 
nan

>  <Num_Not_Resolved_Atoms>  (471) 
nan

$$$$
CHEMBL3663082
     RDKit          3D

  0  0  0  0  0  0  0  0  0  0999 V3000
M  V30 BEGIN CTAB
M  V30 COUNTS 43 45 0 0 0
M  V30 BEGIN ATOM
M  V30 1 C -0.856676 -4.312260 -0.687226 0
M  V30 2 O 0.525686 -4.538445 -0.685443 0
M  V30 3 C 0.941186 -4.843103 -1.959754 0 CFG=2
M  V30 4 C 1.414618 -6.300570 -1.899981 0
M  V30 5 C 2.065231 -3.989505 -2.457879 0
M  V30 6 N 1.735940 -2.589162 -2.484530 0
M  V30 7 C 1.402892 -1.683715 -1.454718 0
M  V30 8 O 1.386777 -2.104631 -0.273885 0
M  V30 9 N 1.086183 -0.320562 -1.697525 0
M  V30 10 C 0.763931 0.506928 -0.583153 0
M  V30 11 C 0.454641 1.832459 -0.808317 0
M  V30 12 C 0.151259 2.581817 0.313008 0
M  V30 13 N -0.193328 3.886068 0.482319 0
M  V30 14 N -0.394350 4.156784 1.775439 0
M  V30 15 C -0.189011 3.032496 2.520290 0
M  V30 16 C -0.301484 2.886729 3.967719 0
M  V30 17 C 0.633971 2.220786 4.731475 0
M  V30 18 C 0.472835 2.116150 6.094622 0
M  V30 19 C -0.605318 2.656266 6.764013 0
M  V30 20 F -0.795442 2.572522 8.101738 0
M  V30 21 C -1.521109 3.319284 5.940855 0
M  V30 22 C -1.407410 3.452364 4.575276 0
M  V30 23 C 0.148719 2.066039 1.594454 0
M  V30 24 C 0.466063 0.729519 1.768189 0
M  V30 25 N 0.756777 0.020614 0.671323 0
M  V30 26 H -1.130293 -3.468866 -1.358127 0
M  V30 27 H -1.419973 -5.201946 -1.006582 0
M  V30 28 H -1.228015 -4.039200 0.319898 0
M  V30 29 H 0.049917 -4.779986 -2.631528 0
M  V30 30 H 1.356652 -6.720232 -2.914484 0
M  V30 31 H 0.794379 -6.890110 -1.172622 0
M  V30 32 H 2.446967 -6.343929 -1.512970 0
M  V30 33 H 2.458854 -4.342221 -3.427912 0
M  V30 34 H 2.882035 -4.077547 -1.669773 0
M  V30 35 H 1.737121 -2.134929 -3.438620 0
M  V30 36 H 1.090485 0.058689 -2.662272 0
M  V30 37 H 0.440246 2.296249 -1.798572 0
M  V30 38 H -0.281755 4.562724 -0.307470 0
M  V30 39 H 1.498202 1.778265 4.260143 0
M  V30 40 H 1.196934 1.596404 6.714867 0
M  V30 41 H -2.381330 3.756161 6.434544 0
M  V30 42 H -2.170480 3.984662 4.026695 0
M  V30 43 H 0.492440 0.231559 2.725268 0
M  V30 END ATOM
M  V30 BEGIN BOND
M  V30 1 1 1 2
M  V30 2 1 2 3
M  V30 3 1 3 4
M  V30 4 1 3 5
M  V30 5 1 5 6
M  V30 6 1 6 7
M  V30 7 2 7 8
M  V30 8 1 7 9
M  V30 9 1 9 10
M  V30 10 2 10 11
M  V30 11 1 11 12
M  V30 12 1 12 13
M  V30 13 1 13 14
M  V30 14 2 14 15
M  V30 15 1 15 16
M  V30 16 2 16 17
M  V30 17 1 17 18
M  V30 18 2 18 19
M  V30 19 1 19 20
M  V30 20 1 19 21
M  V30 21 2 21 22
M  V30 22 1 15 23
M  V30 23 1 23 24
M  V30 24 2 24 25
M  V30 25 1 25 10
M  V30 26 2 23 12
M  V30 27 1 22 16
M  V30 28 1 1 26
M  V30 29 1 1 27
M  V30 30 1 1 28
M  V30 31 1 3 29 CFG=3
M  V30 32 1 4 30
M  V30 33 1 4 31
M  V30 34 1 4 32
M  V30 35 1 5 33
M  V30 36 1 5 34
M  V30 37 1 6 35
M  V30 38 1 9 36
M  V30 39 1 11 37
M  V30 40 1 13 38
M  V30 41 1 17 39
M  V30 42 1 18 40
M  V30 43 1 21 41
M  V30 44 1 22 42
M  V30 45 1 24 43
M  V30 END BOND
M  V30 END CTAB
M  END
>  <Dataset>  (472) 
ChEMBL_Kinases

>  <Ligand_Instance>  (472) 
nan

>  <PDB_ID>  (472) 
nan

>  <Standardized_SMILES>  (472) 
CO[C@H](C)CNC(=O)Nc1cc2[nH]nc(-c3ccc(F)cc3)c2cn1

>  <Name>  (472) 
nan

>  <Pocket>  (472) 
nan

>  <ATP_Site>  (472) 
nan

>  <Peripheral>  (472) 
nan

>  <Num_H_Atoms_ProtBoundConf>  (472) 
nan

>  <Num_Resolved_Atoms>  (472) 
nan

>  <Num_Not_Resolved_Atoms>  (472) 
nan

$$$$
CHEMBL3662998
     RDKit          3D

  0  0  0  0  0  0  0  0  0  0999 V3000
M  V30 BEGIN CTAB
M  V30 COUNTS 49 52 0 0 0
M  V30 BEGIN ATOM
M  V30 1 C 0.288238 -5.711956 -3.280076 0
M  V30 2 O -0.472836 -4.973946 -2.355970 0
M  V30 3 C 0.266438 -4.882004 -1.211393 0
M  V30 4 C -0.342412 -4.134974 -0.076609 0 CFG=1
M  V30 5 N -0.648063 -2.757898 -0.370494 0
M  V30 6 C -0.134605 -1.559132 0.171559 0
M  V30 7 O 0.730788 -1.668720 1.055853 0
M  V30 8 N -0.644134 -0.347413 -0.333321 0
M  V30 9 C -0.143583 0.876531 0.195873 0
M  V30 10 N 0.796766 0.839677 1.158014 0
M  V30 11 C 1.315119 1.977501 1.704220 0
M  V30 12 C 0.808604 3.160264 1.201874 0
M  V30 13 C 1.117550 4.462814 1.535967 0
M  V30 14 C 2.059148 5.008541 2.507361 0
M  V30 15 C 3.343351 4.466913 2.577408 0
M  V30 16 C 4.206467 5.009519 3.509186 0
M  V30 17 N 3.850886 6.001410 4.311341 0
M  V30 18 C 2.625128 6.526025 4.251934 0
M  V30 19 F 2.306051 7.535130 5.087894 0
M  V30 20 C 1.691111 6.047762 3.349894 0
M  V30 21 N 0.365404 5.275568 0.777112 0
M  V30 22 N -0.411446 4.564550 -0.027887 0
M  V30 23 C -0.153715 3.266346 0.218191 0
M  V30 24 C -0.634502 2.075838 -0.290279 0
M  V30 25 F -1.589585 2.077471 -1.267978 0
M  V30 26 C -1.539766 -4.754619 0.494317 0
M  V30 27 C -2.229365 -4.051761 1.461279 0
M  V30 28 C -3.370489 -4.648835 2.001501 0
M  V30 29 C -3.819993 -5.896105 1.604878 0
M  V30 30 C -3.119780 -6.601014 0.628311 0
M  V30 31 C -2.012927 -6.005272 0.114310 0
M  V30 32 H 1.258542 -5.171197 -3.470461 0
M  V30 33 H 0.567900 -6.712054 -2.911203 0
M  V30 34 H -0.208457 -5.742932 -4.279693 0
M  V30 35 H 0.488121 -5.906493 -0.843591 0
M  V30 36 H 1.285858 -4.430171 -1.371691 0
M  V30 37 H 0.434794 -4.120857 0.718830 0
M  V30 38 H -1.384088 -2.750125 -1.123732 0
M  V30 39 H -1.374158 -0.343788 -1.080509 0
M  V30 40 H 2.074262 1.972492 2.481296 0
M  V30 41 H 3.692827 3.666658 1.959410 0
M  V30 42 H 5.224220 4.603089 3.586957 0
M  V30 43 H 0.702645 6.476047 3.307087 0
M  V30 44 H -1.104588 4.891386 -0.732993 0
M  V30 45 H -1.980631 -3.074111 1.853844 0
M  V30 46 H -3.998459 -4.187752 2.774281 0
M  V30 47 H -4.703069 -6.359103 2.022358 0
M  V30 48 H -3.435512 -7.574203 0.291255 0
M  V30 49 H -1.451155 -6.522549 -0.640115 0
M  V30 END ATOM
M  V30 BEGIN BOND
M  V30 1 1 1 2
M  V30 2 1 2 3
M  V30 3 1 3 4
M  V30 4 1 4 5
M  V30 5 1 5 6
M  V30 6 2 6 7
M  V30 7 1 6 8
M  V30 8 1 8 9
M  V30 9 2 9 10
M  V30 10 1 10 11
M  V30 11 2 11 12
M  V30 12 1 12 13
M  V30 13 1 13 14
M  V30 14 2 14 15
M  V30 15 1 15 16
M  V30 16 2 16 17
M  V30 17 1 17 18
M  V30 18 1 18 19
M  V30 19 2 18 20
M  V30 20 2 13 21
M  V30 21 1 21 22
M  V30 22 1 22 23
M  V30 23 2 23 24
M  V30 24 1 24 25
M  V30 25 1 4 26
M  V30 26 2 26 27
M  V30 27 1 27 28
M  V30 28 2 28 29
M  V30 29 1 29 30
M  V30 30 2 30 31
M  V30 31 1 24 9
M  V30 32 1 31 26
M  V30 33 1 23 12
M  V30 34 1 20 14
M  V30 35 1 1 32
M  V30 36 1 1 33
M  V30 37 1 1 34
M  V30 38 1 3 35
M  V30 39 1 3 36
M  V30 40 1 4 37 CFG=1
M  V30 41 1 5 38
M  V30 42 1 8 39
M  V30 43 1 11 40
M  V30 44 1 15 41
M  V30 45 1 16 42
M  V30 46 1 20 43
M  V30 47 1 22 44
M  V30 48 1 27 45
M  V30 49 1 28 46
M  V30 50 1 29 47
M  V30 51 1 30 48
M  V30 52 1 31 49
M  V30 END BOND
M  V30 END CTAB
M  END
>  <Dataset>  (473) 
ChEMBL_Kinases

>  <Ligand_Instance>  (473) 
nan

>  <PDB_ID>  (473) 
nan

>  <Standardized_SMILES>  (473) 
COC[C@@H](NC(=O)Nc1ncc2c(-c3ccnc(F)c3)n[nH]c2c1F)c1ccccc1

>  <Name>  (473) 
nan

>  <Pocket>  (473) 
nan

>  <ATP_Site>  (473) 
nan

>  <Peripheral>  (473) 
nan

>  <Num_H_Atoms_ProtBoundConf>  (473) 
nan

>  <Num_Resolved_Atoms>  (473) 
nan

>  <Num_Not_Resolved_Atoms>  (473) 
nan

$$$$
CHEMBL3663065
     RDKit          3D

  0  0  0  0  0  0  0  0  0  0999 V3000
M  V30 BEGIN CTAB
M  V30 COUNTS 43 45 0 0 0
M  V30 BEGIN ATOM
M  V30 1 C -1.941296 -4.782465 -3.495028 0
M  V30 2 C -2.226189 -3.295814 -3.468657 0
M  V30 3 O -1.120662 -2.564986 -3.831896 0
M  V30 4 C -1.323810 -1.190811 -3.825683 0
M  V30 5 C -0.024287 -0.538040 -4.244338 0
M  V30 6 N 1.078742 -0.834411 -3.380028 0
M  V30 7 C 0.996921 -0.462215 -1.996292 0
M  V30 8 O -0.045067 0.115204 -1.583061 0
M  V30 9 N 2.026167 -0.698355 -1.022754 0
M  V30 10 C 1.831737 -0.283269 0.324945 0
M  V30 11 C 2.266568 0.999802 0.590885 0
M  V30 12 C 2.101493 1.459725 1.894601 0
M  V30 13 N 2.410010 2.634491 2.475501 0
M  V30 14 N 2.060211 2.604303 3.747788 0
M  V30 15 C 1.502556 1.405668 4.069542 0
M  V30 16 C 0.989487 0.977858 5.366848 0
M  V30 17 C 1.813536 1.284439 6.436288 0
M  V30 18 C 1.493054 0.956952 7.745916 0
M  V30 19 C 0.293645 0.301532 7.922627 0
M  V30 20 F -0.139620 -0.076378 9.156028 0
M  V30 21 C -0.579083 -0.034263 6.882010 0
M  V30 22 C -0.179027 0.330342 5.613405 0
M  V30 23 C 1.533650 0.689675 2.890427 0
M  V30 24 C 1.118631 -0.590506 2.554187 0
M  V30 25 N 1.266070 -1.071550 1.285532 0
M  V30 26 H -2.880938 -5.290522 -3.735577 0
M  V30 27 H -1.110885 -4.992733 -4.217504 0
M  V30 28 H -1.609740 -5.162597 -2.504939 0
M  V30 29 H -2.482139 -3.074830 -2.393296 0
M  V30 30 H -3.101485 -2.992804 -4.051434 0
M  V30 31 H -2.054082 -0.973317 -4.643544 0
M  V30 32 H -1.746212 -0.798245 -2.900407 0
M  V30 33 H -0.157763 0.562940 -4.403715 0
M  V30 34 H 0.188032 -0.933247 -5.270158 0
M  V30 35 H 1.984979 -1.308669 -3.623931 0
M  V30 36 H 2.903506 -1.185056 -1.372847 0
M  V30 37 H 2.713844 1.659263 -0.115026 0
M  V30 38 H 2.855622 3.432577 1.981484 0
M  V30 39 H 2.773824 1.806799 6.314657 0
M  V30 40 H 2.126674 1.189682 8.593127 0
M  V30 41 H -1.510433 -0.547921 7.058400 0
M  V30 42 H -0.791002 0.110803 4.751736 0
M  V30 43 H 0.669730 -1.218432 3.312974 0
M  V30 END ATOM
M  V30 BEGIN BOND
M  V30 1 1 1 2
M  V30 2 1 2 3
M  V30 3 1 3 4
M  V30 4 1 4 5
M  V30 5 1 5 6
M  V30 6 1 6 7
M  V30 7 2 7 8
M  V30 8 1 7 9
M  V30 9 1 9 10
M  V30 10 2 10 11
M  V30 11 1 11 12
M  V30 12 1 12 13
M  V30 13 1 13 14
M  V30 14 2 14 15
M  V30 15 1 15 16
M  V30 16 2 16 17
M  V30 17 1 17 18
M  V30 18 2 18 19
M  V30 19 1 19 20
M  V30 20 1 19 21
M  V30 21 2 21 22
M  V30 22 1 15 23
M  V30 23 1 23 24
M  V30 24 2 24 25
M  V30 25 1 25 10
M  V30 26 2 23 12
M  V30 27 1 22 16
M  V30 28 1 1 26
M  V30 29 1 1 27
M  V30 30 1 1 28
M  V30 31 1 2 29
M  V30 32 1 2 30
M  V30 33 1 4 31
M  V30 34 1 4 32
M  V30 35 1 5 33
M  V30 36 1 5 34
M  V30 37 1 6 35
M  V30 38 1 9 36
M  V30 39 1 11 37
M  V30 40 1 13 38
M  V30 41 1 17 39
M  V30 42 1 18 40
M  V30 43 1 21 41
M  V30 44 1 22 42
M  V30 45 1 24 43
M  V30 END BOND
M  V30 END CTAB
M  END
>  <Dataset>  (474) 
ChEMBL_Kinases

>  <Ligand_Instance>  (474) 
nan

>  <PDB_ID>  (474) 
nan

>  <Standardized_SMILES>  (474) 
CCOCCNC(=O)Nc1cc2[nH]nc(-c3ccc(F)cc3)c2cn1

>  <Name>  (474) 
nan

>  <Pocket>  (474) 
nan

>  <ATP_Site>  (474) 
nan

>  <Peripheral>  (474) 
nan

>  <Num_H_Atoms_ProtBoundConf>  (474) 
nan

>  <Num_Resolved_Atoms>  (474) 
nan

>  <Num_Not_Resolved_Atoms>  (474) 
nan

$$$$
CHEMBL3663066
     RDKit          3D

  0  0  0  0  0  0  0  0  0  0999 V3000
M  V30 BEGIN CTAB
M  V30 COUNTS 45 47 0 0 0
M  V30 BEGIN ATOM
M  V30 1 C 5.005388 -5.339145 0.393810 0
M  V30 2 C 5.640099 -4.217836 1.211075 0
M  V30 3 O 5.955592 -3.137888 0.385781 0
M  V30 4 C 4.798281 -2.635230 -0.238466 0
M  V30 5 C 5.148621 -1.467023 -1.129361 0
M  V30 6 N 3.938777 -0.982751 -1.749058 0
M  V30 7 C 2.834732 -0.493744 -1.044036 0
M  V30 8 O 2.803086 -0.432721 0.211396 0
M  V30 9 N 1.665603 -0.030988 -1.745208 0
M  V30 10 C 0.541553 0.468123 -0.995445 0
M  V30 11 C 0.370401 1.788173 -0.628294 0
M  V30 12 C -0.755847 2.150188 0.094855 0
M  V30 13 N -1.161319 3.354342 0.573567 0
M  V30 14 N -2.321325 3.198356 1.210840 0
M  V30 15 C -2.695286 1.888497 1.160142 0
M  V30 16 C -3.890685 1.265481 1.722836 0
M  V30 17 C -4.686606 0.358190 1.055140 0
M  V30 18 C -5.788428 -0.138677 1.737531 0
M  V30 19 N -6.076470 0.242590 2.997802 0
M  V30 20 C -5.317482 1.128233 3.677805 0
M  V30 21 C -5.665703 1.525782 5.067254 0
M  V30 22 C -4.212634 1.635819 3.013338 0
M  V30 23 C -1.710923 1.223330 0.457181 0
M  V30 24 C -1.494306 -0.083920 0.066414 0
M  V30 25 N -0.399108 -0.450651 -0.639788 0
M  V30 26 H 3.949545 -5.097665 0.189387 0
M  V30 27 H 5.531630 -5.482345 -0.568445 0
M  V30 28 H 5.055912 -6.280204 0.976917 0
M  V30 29 H 6.568664 -4.646145 1.632647 0
M  V30 30 H 4.952257 -3.959304 2.038960 0
M  V30 31 H 4.149505 -2.296946 0.570944 0
M  V30 32 H 4.370758 -3.419734 -0.891917 0
M  V30 33 H 5.939573 -1.696336 -1.844404 0
M  V30 34 H 5.559017 -0.622359 -0.500187 0
M  V30 35 H 3.904310 -1.007392 -2.803948 0
M  V30 36 H 1.675194 -0.075390 -2.806556 0
M  V30 37 H 1.138378 2.493437 -0.927781 0
M  V30 38 H -0.647151 4.263846 0.461986 0
M  V30 39 H -4.411066 0.086543 0.046550 0
M  V30 40 H -6.422419 -0.861702 1.204979 0
M  V30 41 H -5.946543 0.619896 5.637742 0
M  V30 42 H -6.475553 2.278934 5.033916 0
M  V30 43 H -4.767543 2.011598 5.509300 0
M  V30 44 H -3.610555 2.345405 3.567646 0
M  V30 45 H -2.211091 -0.843669 0.325299 0
M  V30 END ATOM
M  V30 BEGIN BOND
M  V30 1 1 1 2
M  V30 2 1 2 3
M  V30 3 1 3 4
M  V30 4 1 4 5
M  V30 5 1 5 6
M  V30 6 1 6 7
M  V30 7 2 7 8
M  V30 8 1 7 9
M  V30 9 1 9 10
M  V30 10 2 10 11
M  V30 11 1 11 12
M  V30 12 1 12 13
M  V30 13 1 13 14
M  V30 14 2 14 15
M  V30 15 1 15 16
M  V30 16 2 16 17
M  V30 17 1 17 18
M  V30 18 2 18 19
M  V30 19 1 19 20
M  V30 20 1 20 21
M  V30 21 2 20 22
M  V30 22 1 15 23
M  V30 23 1 23 24
M  V30 24 2 24 25
M  V30 25 1 25 10
M  V30 26 2 23 12
M  V30 27 1 22 16
M  V30 28 1 1 26
M  V30 29 1 1 27
M  V30 30 1 1 28
M  V30 31 1 2 29
M  V30 32 1 2 30
M  V30 33 1 4 31
M  V30 34 1 4 32
M  V30 35 1 5 33
M  V30 36 1 5 34
M  V30 37 1 6 35
M  V30 38 1 9 36
M  V30 39 1 11 37
M  V30 40 1 13 38
M  V30 41 1 17 39
M  V30 42 1 18 40
M  V30 43 1 21 41
M  V30 44 1 21 42
M  V30 45 1 21 43
M  V30 46 1 22 44
M  V30 47 1 24 45
M  V30 END BOND
M  V30 END CTAB
M  END
>  <Dataset>  (475) 
ChEMBL_Kinases

>  <Ligand_Instance>  (475) 
nan

>  <PDB_ID>  (475) 
nan

>  <Standardized_SMILES>  (475) 
CCOCCNC(=O)Nc1cc2[nH]nc(-c3ccnc(C)c3)c2cn1

>  <Name>  (475) 
nan

>  <Pocket>  (475) 
nan

>  <ATP_Site>  (475) 
nan

>  <Peripheral>  (475) 
nan

>  <Num_H_Atoms_ProtBoundConf>  (475) 
nan

>  <Num_Resolved_Atoms>  (475) 
nan

>  <Num_Not_Resolved_Atoms>  (475) 
nan

$$$$
CHEMBL3663067
     RDKit          3D

  0  0  0  0  0  0  0  0  0  0999 V3000
M  V30 BEGIN CTAB
M  V30 COUNTS 43 45 0 0 0
M  V30 BEGIN ATOM
M  V30 1 C -3.018642 -5.977889 3.530645 0
M  V30 2 C -2.791664 -4.863675 4.508489 0
M  V30 3 O -3.792859 -3.923158 4.558575 0
M  V30 4 C -1.492318 -4.187367 4.231277 0
M  V30 5 N -0.246332 -4.417510 4.682758 0
M  V30 6 N 0.556302 -3.528053 4.126443 0
M  V30 7 C -0.106731 -2.707587 3.316372 0
M  V30 8 C 0.221162 -1.652646 2.524536 0
M  V30 9 C -0.649063 -0.929109 1.749767 0
M  V30 10 N -0.368767 0.168251 0.913269 0
M  V30 11 C 0.840094 0.820015 0.637125 0
M  V30 12 O 1.844879 0.383729 1.206045 0
M  V30 13 N 1.018045 1.924930 -0.227240 0
M  V30 14 C 2.339881 2.499511 -0.416453 0 CFG=2
M  V30 15 C 2.349935 3.937348 0.016727 0
M  V30 16 C 2.664354 2.445874 -1.873465 0
M  V30 17 C 2.390963 1.260447 -2.557354 0
M  V30 18 C 2.657947 1.111085 -3.919832 0
M  V30 19 C 3.209865 2.167521 -4.615652 0
M  V30 20 C 3.482251 3.342484 -3.943754 0
M  V30 21 C 3.216831 3.487996 -2.593879 0
M  V30 22 N -1.926099 -1.353401 1.825968 0
M  V30 23 C -2.308363 -2.388721 2.590288 0
M  V30 24 C -1.426074 -3.111147 3.366704 0
M  V30 25 H -3.437907 -6.845611 4.043872 0
M  V30 26 H -3.721673 -5.601471 2.759496 0
M  V30 27 H -2.045068 -6.235203 3.072667 0
M  V30 28 H -2.648241 -5.336783 5.522029 0
M  V30 29 H -4.669512 -4.334293 4.700956 0
M  V30 30 H 1.594584 -3.488869 4.314120 0
M  V30 31 H 1.252597 -1.377304 2.517957 0
M  V30 32 H -1.137606 0.623048 0.379203 0
M  V30 33 H 0.192374 2.306956 -0.713937 0
M  V30 34 H 3.096775 1.963702 0.181168 0
M  V30 35 H 3.405790 4.271971 0.132397 0
M  V30 36 H 1.860282 4.031184 1.008568 0
M  V30 37 H 1.785793 4.572820 -0.696714 0
M  V30 38 H 1.951163 0.400357 -2.031219 0
M  V30 39 H 2.436098 0.176063 -4.432951 0
M  V30 40 H 3.435271 2.093014 -5.685791 0
M  V30 41 H 3.914094 4.205048 -4.432343 0
M  V30 42 H 3.396210 4.363861 -1.992795 0
M  V30 43 H -3.351655 -2.676799 2.604750 0
M  V30 END ATOM
M  V30 BEGIN BOND
M  V30 1 1 1 2
M  V30 2 1 2 3
M  V30 3 1 2 4
M  V30 4 2 4 5
M  V30 5 1 5 6
M  V30 6 1 6 7
M  V30 7 2 7 8
M  V30 8 1 8 9
M  V30 9 1 9 10
M  V30 10 1 10 11
M  V30 11 2 11 12
M  V30 12 1 11 13
M  V30 13 1 13 14
M  V30 14 1 14 15
M  V30 15 1 14 16
M  V30 16 2 16 17
M  V30 17 1 17 18
M  V30 18 2 18 19
M  V30 19 1 19 20
M  V30 20 2 20 21
M  V30 21 2 9 22
M  V30 22 1 22 23
M  V30 23 2 23 24
M  V30 24 1 24 4
M  V30 25 1 24 7
M  V30 26 1 21 16
M  V30 27 1 1 25
M  V30 28 1 1 26
M  V30 29 1 1 27
M  V30 30 1 2 28
M  V30 31 1 3 29
M  V30 32 1 6 30
M  V30 33 1 8 31
M  V30 34 1 10 32
M  V30 35 1 13 33
M  V30 36 1 14 34 CFG=1
M  V30 37 1 15 35
M  V30 38 1 15 36
M  V30 39 1 15 37
M  V30 40 1 17 38
M  V30 41 1 18 39
M  V30 42 1 19 40
M  V30 43 1 20 41
M  V30 44 1 21 42
M  V30 45 1 23 43
M  V30 END BOND
M  V30 END CTAB
M  END
>  <Dataset>  (476) 
ChEMBL_Kinases

>  <Ligand_Instance>  (476) 
nan

>  <PDB_ID>  (476) 
nan

>  <Standardized_SMILES>  (476) 
CC(O)c1n[nH]c2cc(NC(=O)N[C@H](C)c3ccccc3)ncc12

>  <Name>  (476) 
nan

>  <Pocket>  (476) 
nan

>  <ATP_Site>  (476) 
nan

>  <Peripheral>  (476) 
nan

>  <Num_H_Atoms_ProtBoundConf>  (476) 
nan

>  <Num_Resolved_Atoms>  (476) 
nan

>  <Num_Not_Resolved_Atoms>  (476) 
nan

$$$$
CHEMBL3663068
     RDKit          3D

  0  0  0  0  0  0  0  0  0  0999 V3000
M  V30 BEGIN CTAB
M  V30 COUNTS 51 54 0 0 0
M  V30 BEGIN ATOM
M  V30 1 C 0.851009 -5.460058 6.642145 0
M  V30 2 C 1.351647 -5.173578 5.268149 0
M  V30 3 C 1.823298 -3.918636 4.946326 0
M  V30 4 C 2.283560 -3.671483 3.666329 0
M  V30 5 C 2.806486 -2.385124 3.212473 0
M  V30 6 N 3.692500 -1.611496 3.896962 0
M  V30 7 N 3.963614 -0.502735 3.207109 0
M  V30 8 C 3.238673 -0.582662 2.076838 0
M  V30 9 C 3.184715 0.332808 1.043343 0
M  V30 10 C 2.360240 0.029170 -0.021515 0
M  V30 11 N 2.120730 0.785958 -1.203920 0
M  V30 12 C 1.068994 1.742322 -1.239047 0
M  V30 13 O 0.387438 1.873216 -0.192880 0
M  V30 14 N 0.789433 2.510550 -2.372450 0
M  V30 15 C -0.241837 3.514781 -2.553713 0
M  V30 16 C -1.533283 2.809099 -2.740153 0
M  V30 17 C -1.916343 2.453190 -4.027520 0
M  V30 18 C -3.119887 1.790842 -4.272204 0
M  V30 19 C -3.959188 1.472786 -3.243377 0
M  V30 20 C -3.605528 1.813420 -1.954576 0
M  V30 21 S -4.635554 1.434425 -0.614245 0
M  V30 22 C -4.284765 -0.159286 0.071206 0
M  V30 23 O -6.074831 1.455591 -1.044281 0
M  V30 24 O -4.386389 2.450584 0.475566 0
M  V30 25 C -2.411606 2.467063 -1.740597 0
M  V30 26 N 1.644617 -1.116574 -0.036310 0
M  V30 27 C 1.684856 -2.019374 0.961159 0
M  V30 28 C 2.494596 -1.744851 2.030621 0
M  V30 29 C 2.252571 -4.702788 2.750270 0
M  V30 30 C 1.766337 -5.957210 3.120732 0
M  V30 31 N 1.325518 -6.174722 4.365251 0
M  V30 32 H 0.242682 -6.374734 6.681243 0
M  V30 33 H 0.291106 -4.592707 7.049574 0
M  V30 34 H 1.738710 -5.631460 7.299565 0
M  V30 35 H 1.851713 -3.096372 5.664943 0
M  V30 36 H 4.603597 0.257673 3.493415 0
M  V30 37 H 3.700977 1.265303 0.944863 0
M  V30 38 H 2.697266 0.663732 -2.062903 0
M  V30 39 H 1.417175 2.325018 -3.193672 0
M  V30 40 H -0.010635 4.170010 -3.394231 0
M  V30 41 H -0.312223 4.116207 -1.598250 0
M  V30 42 H -1.321834 2.661387 -4.897711 0
M  V30 43 H -3.429907 1.506545 -5.287013 0
M  V30 44 H -4.911355 0.957209 -3.365728 0
M  V30 45 H -3.180391 -0.184555 0.262766 0
M  V30 46 H -4.838503 -0.337323 0.991230 0
M  V30 47 H -4.459090 -0.903498 -0.735194 0
M  V30 48 H -2.158057 2.722285 -0.739638 0
M  V30 49 H 1.115801 -2.934654 0.956147 0
M  V30 50 H 2.572909 -4.667835 1.728040 0
M  V30 51 H 1.716145 -6.804170 2.449522 0
M  V30 END ATOM
M  V30 BEGIN BOND
M  V30 1 1 1 2
M  V30 2 2 2 3
M  V30 3 1 3 4
M  V30 4 1 4 5
M  V30 5 2 5 6
M  V30 6 1 6 7
M  V30 7 1 7 8
M  V30 8 2 8 9
M  V30 9 1 9 10
M  V30 10 1 10 11
M  V30 11 1 11 12
M  V30 12 2 12 13
M  V30 13 1 12 14
M  V30 14 1 14 15
M  V30 15 1 15 16
M  V30 16 2 16 17
M  V30 17 1 17 18
M  V30 18 2 18 19
M  V30 19 1 19 20
M  V30 20 1 20 21
M  V30 21 1 21 22
M  V30 22 2 21 23
M  V30 23 2 21 24
M  V30 24 2 20 25
M  V30 25 2 10 26
M  V30 26 1 26 27
M  V30 27 2 27 28
M  V30 28 2 4 29
M  V30 29 1 29 30
M  V30 30 2 30 31
M  V30 31 1 31 2
M  V30 32 1 28 5
M  V30 33 1 28 8
M  V30 34 1 25 16
M  V30 35 1 1 32
M  V30 36 1 1 33
M  V30 37 1 1 34
M  V30 38 1 3 35
M  V30 39 1 7 36
M  V30 40 1 9 37
M  V30 41 1 11 38
M  V30 42 1 14 39
M  V30 43 1 15 40
M  V30 44 1 15 41
M  V30 45 1 17 42
M  V30 46 1 18 43
M  V30 47 1 19 44
M  V30 48 1 22 45
M  V30 49 1 22 46
M  V30 50 1 22 47
M  V30 51 1 25 48
M  V30 52 1 27 49
M  V30 53 1 29 50
M  V30 54 1 30 51
M  V30 END BOND
M  V30 END CTAB
M  END
>  <Dataset>  (477) 
ChEMBL_Kinases

>  <Ligand_Instance>  (477) 
nan

>  <PDB_ID>  (477) 
nan

>  <Standardized_SMILES>  (477) 
Cc1cc(-c2n[nH]c3cc(NC(=O)NCc4cccc(S(C)(=O)=O)c4)ncc23)ccn1

>  <Name>  (477) 
nan

>  <Pocket>  (477) 
nan

>  <ATP_Site>  (477) 
nan

>  <Peripheral>  (477) 
nan

>  <Num_H_Atoms_ProtBoundConf>  (477) 
nan

>  <Num_Resolved_Atoms>  (477) 
nan

>  <Num_Not_Resolved_Atoms>  (477) 
nan

$$$$
CHEMBL3663069
     RDKit          3D

  0  0  0  0  0  0  0  0  0  0999 V3000
M  V30 BEGIN CTAB
M  V30 COUNTS 46 48 0 0 0
M  V30 BEGIN ATOM
M  V30 1 C -4.233285 -4.556225 -1.255160 0
M  V30 2 C -2.801722 -4.281217 -1.723160 0
M  V30 3 O -2.664123 -4.478092 -3.071008 0
M  V30 4 C -1.440341 -4.276375 -3.629041 0
M  V30 5 C -0.867153 -2.918212 -3.486635 0
M  V30 6 N -0.973224 -2.034552 -4.497341 0
M  V30 7 N -0.430206 -0.868496 -4.197797 0
M  V30 8 C 0.054444 -0.985723 -2.939451 0
M  V30 9 C 0.720586 -0.082099 -2.138187 0
M  V30 10 C 1.077042 -0.570982 -0.887170 0
M  V30 11 N 1.768884 0.203119 0.087097 0
M  V30 12 C 1.050208 0.975291 1.039922 0
M  V30 13 O -0.195352 0.933803 0.971077 0
M  V30 14 N 1.820939 1.724718 1.985139 0
M  V30 15 C 1.204365 2.556350 3.014101 0 CFG=2
M  V30 16 C 1.635851 3.979346 2.955503 0
M  V30 17 C 1.616863 1.984467 4.346252 0
M  V30 18 C 2.903099 1.596705 4.646084 0
M  V30 19 C 3.206635 1.077342 5.898456 0
M  V30 20 C 2.202071 0.963470 6.815666 0
M  V30 21 C 0.896246 1.322775 6.605642 0
M  V30 22 C 0.648082 1.837098 5.334017 0
M  V30 23 N 0.813237 -1.816310 -0.453714 0
M  V30 24 C 0.164321 -2.703900 -1.227237 0
M  V30 25 C -0.205925 -2.256809 -2.474178 0
M  V30 26 H -4.848600 -4.610159 -2.180139 0
M  V30 27 H -4.266182 -5.503052 -0.664701 0
M  V30 28 H -4.623247 -3.736978 -0.637733 0
M  V30 29 H -2.145239 -4.870984 -1.079643 0
M  V30 30 H -2.632389 -3.188582 -1.534521 0
M  V30 31 H -1.371410 -4.628342 -4.684971 0
M  V30 32 H -0.730336 -4.968508 -3.075717 0
M  V30 33 H -0.358511 0.000470 -4.768622 0
M  V30 34 H 0.965886 0.912043 -2.403344 0
M  V30 35 H 2.833536 0.200778 0.099058 0
M  V30 36 H 2.867068 1.700095 1.967999 0
M  V30 37 H 0.118518 2.496808 2.924183 0
M  V30 38 H 1.229336 4.489913 2.062387 0
M  V30 39 H 2.730815 4.120190 3.070554 0
M  V30 40 H 1.186881 4.491135 3.835066 0
M  V30 41 H 3.623460 1.724932 3.860749 0
M  V30 42 H 4.239486 0.777613 6.106741 0
M  V30 43 H 2.432624 0.554349 7.808200 0
M  V30 44 H 0.101662 1.234619 7.324758 0
M  V30 45 H -0.361442 2.148327 5.080938 0
M  V30 46 H -0.075161 -3.716628 -0.942217 0
M  V30 END ATOM
M  V30 BEGIN BOND
M  V30 1 1 1 2
M  V30 2 1 2 3
M  V30 3 1 3 4
M  V30 4 1 4 5
M  V30 5 2 5 6
M  V30 6 1 6 7
M  V30 7 1 7 8
M  V30 8 2 8 9
M  V30 9 1 9 10
M  V30 10 1 10 11
M  V30 11 1 11 12
M  V30 12 2 12 13
M  V30 13 1 12 14
M  V30 14 1 14 15
M  V30 15 1 15 16
M  V30 16 1 15 17
M  V30 17 2 17 18
M  V30 18 1 18 19
M  V30 19 2 19 20
M  V30 20 1 20 21
M  V30 21 2 21 22
M  V30 22 2 10 23
M  V30 23 1 23 24
M  V30 24 2 24 25
M  V30 25 1 25 5
M  V30 26 1 25 8
M  V30 27 1 22 17
M  V30 28 1 1 26
M  V30 29 1 1 27
M  V30 30 1 1 28
M  V30 31 1 2 29
M  V30 32 1 2 30
M  V30 33 1 4 31
M  V30 34 1 4 32
M  V30 35 1 7 33
M  V30 36 1 9 34
M  V30 37 1 11 35
M  V30 38 1 14 36
M  V30 39 1 15 37 CFG=3
M  V30 40 1 16 38
M  V30 41 1 16 39
M  V30 42 1 16 40
M  V30 43 1 18 41
M  V30 44 1 19 42
M  V30 45 1 20 43
M  V30 46 1 21 44
M  V30 47 1 22 45
M  V30 48 1 24 46
M  V30 END BOND
M  V30 END CTAB
M  END
>  <Dataset>  (478) 
ChEMBL_Kinases

>  <Ligand_Instance>  (478) 
nan

>  <PDB_ID>  (478) 
nan

>  <Standardized_SMILES>  (478) 
CCOCc1n[nH]c2cc(NC(=O)N[C@H](C)c3ccccc3)ncc12

>  <Name>  (478) 
nan

>  <Pocket>  (478) 
nan

>  <ATP_Site>  (478) 
nan

>  <Peripheral>  (478) 
nan

>  <Num_H_Atoms_ProtBoundConf>  (478) 
nan

>  <Num_Resolved_Atoms>  (478) 
nan

>  <Num_Not_Resolved_Atoms>  (478) 
nan

$$$$
CHEMBL3663070
     RDKit          3D

  0  0  0  0  0  0  0  0  0  0999 V3000
M  V30 BEGIN CTAB
M  V30 COUNTS 51 54 0 0 0
M  V30 BEGIN ATOM
M  V30 1 C -1.877323 -6.810235 -2.040800 0
M  V30 2 C -0.551681 -6.759746 -1.408049 0
M  V30 3 C -0.136251 -5.612446 -0.768593 0
M  V30 4 C 1.096707 -5.501039 -0.155008 0
M  V30 5 C 1.584462 -4.317983 0.531890 0
M  V30 6 N 2.208568 -4.261548 1.728631 0
M  V30 7 N 2.507277 -2.995063 2.031226 0
M  V30 8 C 2.088682 -2.189873 1.044791 0
M  V30 9 C 2.166292 -0.819099 0.896360 0
M  V30 10 C 1.640340 -0.250823 -0.246379 0
M  V30 11 N 1.635714 1.136380 -0.557943 0
M  V30 12 C 0.558079 1.953768 -0.159128 0
M  V30 13 O -0.363163 1.382783 0.469233 0
M  V30 14 N 0.410836 3.340599 -0.393242 0
M  V30 15 C -0.565431 4.316918 -0.059495 0
M  V30 16 C -0.782082 4.612776 1.397769 0 CFG=2
M  V30 17 C 0.439790 5.114958 2.088102 0
M  V30 18 C -1.436596 3.524772 2.145130 0
M  V30 19 C -0.683898 2.925243 3.167246 0
M  V30 20 C -1.325760 1.910286 3.852062 0
M  V30 21 C -2.602484 1.467244 3.607210 0
M  V30 22 C -3.321677 2.089110 2.580576 0
M  V30 23 C -2.721594 3.106934 1.870058 0
M  V30 24 N 1.064235 -1.052622 -1.187648 0
M  V30 25 C 0.996468 -2.399147 -1.025442 0
M  V30 26 C 1.505285 -3.012435 0.093914 0
M  V30 27 C 1.886360 -6.651859 -0.238579 0
M  V30 28 C 1.473410 -7.799752 -0.877117 0
M  V30 29 N 0.258602 -7.837230 -1.453481 0
M  V30 30 H -2.528547 -6.003087 -1.615255 0
M  V30 31 H -1.856458 -6.746069 -3.146359 0
M  V30 32 H -2.367914 -7.761039 -1.788904 0
M  V30 33 H -0.780302 -4.734605 -0.724136 0
M  V30 34 H 2.996946 -2.696112 2.914683 0
M  V30 35 H 2.610668 -0.147834 1.610887 0
M  V30 36 H 2.400497 1.578463 -1.072359 0
M  V30 37 H 1.265946 3.662931 -0.955306 0
M  V30 38 H -1.554891 4.122127 -0.576486 0
M  V30 39 H -0.238886 5.294376 -0.518641 0
M  V30 40 H -1.533114 5.483539 1.467803 0
M  V30 41 H 0.726410 6.145870 1.782605 0
M  V30 42 H 0.182189 5.205965 3.181108 0
M  V30 43 H 1.312315 4.468161 2.024896 0
M  V30 44 H 0.325021 3.189553 3.448088 0
M  V30 45 H -0.823384 1.381045 4.665932 0
M  V30 46 H -3.061823 0.667537 4.172109 0
M  V30 47 H -4.330499 1.803304 2.321572 0
M  V30 48 H -3.208953 3.647962 1.052388 0
M  V30 49 H 0.533251 -3.023689 -1.786685 0
M  V30 50 H 2.881262 -6.622407 0.232975 0
M  V30 51 H 2.144797 -8.653570 -0.899552 0
M  V30 END ATOM
M  V30 BEGIN BOND
M  V30 1 1 1 2
M  V30 2 2 2 3
M  V30 3 1 3 4
M  V30 4 1 4 5
M  V30 5 2 5 6
M  V30 6 1 6 7
M  V30 7 1 7 8
M  V30 8 2 8 9
M  V30 9 1 9 10
M  V30 10 1 10 11
M  V30 11 1 11 12
M  V30 12 2 12 13
M  V30 13 1 12 14
M  V30 14 1 14 15
M  V30 15 1 15 16
M  V30 16 1 16 17
M  V30 17 1 16 18
M  V30 18 2 18 19
M  V30 19 1 19 20
M  V30 20 2 20 21
M  V30 21 1 21 22
M  V30 22 2 22 23
M  V30 23 2 10 24
M  V30 24 1 24 25
M  V30 25 2 25 26
M  V30 26 2 4 27
M  V30 27 1 27 28
M  V30 28 2 28 29
M  V30 29 1 29 2
M  V30 30 1 26 5
M  V30 31 1 26 8
M  V30 32 1 23 18
M  V30 33 1 1 30
M  V30 34 1 1 31
M  V30 35 1 1 32
M  V30 36 1 3 33
M  V30 37 1 7 34
M  V30 38 1 9 35
M  V30 39 1 11 36
M  V30 40 1 14 37
M  V30 41 1 15 38
M  V30 42 1 15 39
M  V30 43 1 16 40 CFG=3
M  V30 44 1 17 41
M  V30 45 1 17 42
M  V30 46 1 17 43
M  V30 47 1 19 44
M  V30 48 1 20 45
M  V30 49 1 21 46
M  V30 50 1 22 47
M  V30 51 1 23 48
M  V30 52 1 25 49
M  V30 53 1 27 50
M  V30 54 1 28 51
M  V30 END BOND
M  V30 END CTAB
M  END
>  <Dataset>  (479) 
ChEMBL_Kinases

>  <Ligand_Instance>  (479) 
nan

>  <PDB_ID>  (479) 
nan

>  <Standardized_SMILES>  (479) 
Cc1cc(-c2n[nH]c3cc(NC(=O)NC[C@H](C)c4ccccc4)ncc23)ccn1

>  <Name>  (479) 
nan

>  <Pocket>  (479) 
nan

>  <ATP_Site>  (479) 
nan

>  <Peripheral>  (479) 
nan

>  <Num_H_Atoms_ProtBoundConf>  (479) 
nan

>  <Num_Resolved_Atoms>  (479) 
nan

>  <Num_Not_Resolved_Atoms>  (479) 
nan

$$$$
CHEMBL3663071
     RDKit          3D

  0  0  0  0  0  0  0  0  0  0999 V3000
M  V30 BEGIN CTAB
M  V30 COUNTS 51 54 0 0 0
M  V30 BEGIN ATOM
M  V30 1 C -0.604319 -7.797240 -1.045491 0
M  V30 2 C 0.794372 -7.452967 -0.707687 0
M  V30 3 C 1.128430 -6.205978 -0.228987 0
M  V30 4 C 2.416887 -5.821264 0.105253 0
M  V30 5 C 2.738168 -4.488969 0.610934 0
M  V30 6 N 3.550984 -4.198387 1.668578 0
M  V30 7 N 3.617114 -2.885222 1.847196 0
M  V30 8 C 2.840779 -2.331177 0.896694 0
M  V30 9 C 2.579674 -0.995748 0.659446 0
M  V30 10 C 1.741206 -0.656738 -0.385789 0
M  V30 11 N 1.344424 0.653556 -0.797648 0
M  V30 12 C 0.191594 1.271335 -0.265454 0
M  V30 13 O -0.450851 0.598724 0.582056 0
M  V30 14 N -0.245132 2.572634 -0.642061 0
M  V30 15 C -1.418938 3.250656 -0.126178 0
M  V30 16 C -1.245905 3.396939 1.392904 0 CFG=1
M  V30 17 C -0.019175 4.196398 1.718565 0
M  V30 18 C -2.482772 4.004143 1.981107 0
M  V30 19 C -3.215262 3.324256 2.934206 0
M  V30 20 C -4.359886 3.810837 3.522476 0
M  V30 21 C -4.775262 5.063883 3.109728 0
M  V30 22 C -4.061753 5.765930 2.158184 0
M  V30 23 C -2.916172 5.270438 1.574372 0
M  V30 24 N 1.203864 -1.633142 -1.141276 0
M  V30 25 C 1.430665 -2.947299 -0.946249 0
M  V30 26 C 2.267196 -3.298663 0.095621 0
M  V30 27 C 3.410013 -6.792165 -0.070227 0
M  V30 28 C 3.057045 -8.037338 -0.551284 0
M  V30 29 N 1.805642 -8.349756 -0.854985 0
M  V30 30 H -1.323913 -7.203214 -0.448138 0
M  V30 31 H -0.822382 -7.724819 -2.134040 0
M  V30 32 H -0.793295 -8.868185 -0.793056 0
M  V30 33 H 0.323004 -5.520749 -0.121591 0
M  V30 34 H 4.165548 -2.388157 2.582501 0
M  V30 35 H 2.966856 -0.151065 1.213947 0
M  V30 36 H 1.910004 1.179177 -1.507780 0
M  V30 37 H 0.393381 3.020688 -1.365432 0
M  V30 38 H -2.348104 2.740479 -0.374914 0
M  V30 39 H -1.396628 4.273279 -0.513753 0
M  V30 40 H -1.138127 2.408811 1.885499 0
M  V30 41 H -0.140033 4.728814 2.692658 0
M  V30 42 H 0.890069 3.574178 1.852012 0
M  V30 43 H 0.245932 4.950509 0.935905 0
M  V30 44 H -2.897208 2.328076 3.271655 0
M  V30 45 H -4.920357 3.268492 4.264681 0
M  V30 46 H -5.686862 5.449496 3.579325 0
M  V30 47 H -4.401166 6.746430 1.846136 0
M  V30 48 H -2.348694 5.804973 0.831423 0
M  V30 49 H 0.991456 -3.721075 -1.561947 0
M  V30 50 H 4.428399 -6.519476 0.183236 0
M  V30 51 H 3.827193 -8.791045 -0.687670 0
M  V30 END ATOM
M  V30 BEGIN BOND
M  V30 1 1 1 2
M  V30 2 2 2 3
M  V30 3 1 3 4
M  V30 4 1 4 5
M  V30 5 2 5 6
M  V30 6 1 6 7
M  V30 7 1 7 8
M  V30 8 2 8 9
M  V30 9 1 9 10
M  V30 10 1 10 11
M  V30 11 1 11 12
M  V30 12 2 12 13
M  V30 13 1 12 14
M  V30 14 1 14 15
M  V30 15 1 15 16
M  V30 16 1 16 17
M  V30 17 1 16 18
M  V30 18 2 18 19
M  V30 19 1 19 20
M  V30 20 2 20 21
M  V30 21 1 21 22
M  V30 22 2 22 23
M  V30 23 2 10 24
M  V30 24 1 24 25
M  V30 25 2 25 26
M  V30 26 2 4 27
M  V30 27 1 27 28
M  V30 28 2 28 29
M  V30 29 1 29 2
M  V30 30 1 26 5
M  V30 31 1 26 8
M  V30 32 1 23 18
M  V30 33 1 1 30
M  V30 34 1 1 31
M  V30 35 1 1 32
M  V30 36 1 3 33
M  V30 37 1 7 34
M  V30 38 1 9 35
M  V30 39 1 11 36
M  V30 40 1 14 37
M  V30 41 1 15 38
M  V30 42 1 15 39
M  V30 43 1 16 40 CFG=1
M  V30 44 1 17 41
M  V30 45 1 17 42
M  V30 46 1 17 43
M  V30 47 1 19 44
M  V30 48 1 20 45
M  V30 49 1 21 46
M  V30 50 1 22 47
M  V30 51 1 23 48
M  V30 52 1 25 49
M  V30 53 1 27 50
M  V30 54 1 28 51
M  V30 END BOND
M  V30 END CTAB
M  END
>  <Dataset>  (480) 
ChEMBL_Kinases

>  <Ligand_Instance>  (480) 
nan

>  <PDB_ID>  (480) 
nan

>  <Standardized_SMILES>  (480) 
Cc1cc(-c2n[nH]c3cc(NC(=O)NC[C@@H](C)c4ccccc4)ncc23)ccn1

>  <Name>  (480) 
nan

>  <Pocket>  (480) 
nan

>  <ATP_Site>  (480) 
nan

>  <Peripheral>  (480) 
nan

>  <Num_H_Atoms_ProtBoundConf>  (480) 
nan

>  <Num_Resolved_Atoms>  (480) 
nan

>  <Num_Not_Resolved_Atoms>  (480) 
nan

$$$$
CHEMBL3663081
     RDKit          3D

  0  0  0  0  0  0  0  0  0  0999 V3000
M  V30 BEGIN CTAB
M  V30 COUNTS 45 48 0 0 0
M  V30 BEGIN ATOM
M  V30 1 C -2.698420 -1.887713 4.473028 0
M  V30 2 C -2.268586 -2.433367 3.138513 0 CFG=1
M  V30 3 N -0.883473 -2.096716 2.838265 0
M  V30 4 C -0.366550 -1.284361 1.796416 0
M  V30 5 O -1.259979 -0.812775 1.057133 0
M  V30 6 N 1.066231 -1.117918 1.732894 0
M  V30 7 C 1.469435 -0.275103 0.642102 0
M  V30 8 C 1.779184 -0.650936 -0.649046 0
M  V30 9 C 2.148219 0.321069 -1.558186 0
M  V30 10 N 2.488053 0.191389 -2.853630 0
M  V30 11 N 2.756004 1.414926 -3.286546 0
M  V30 12 C 2.596950 2.331452 -2.300180 0
M  V30 13 C 2.792909 3.776933 -2.379678 0
M  V30 14 C 3.489632 4.453895 -1.388514 0
M  V30 15 C 3.697240 5.817187 -1.421205 0
M  V30 16 N 3.212244 6.553774 -2.452392 0
M  V30 17 C 2.526290 5.933981 -3.441351 0
M  V30 18 F 2.070761 6.718173 -4.434653 0
M  V30 19 C 2.314258 4.584269 -3.420035 0
M  V30 20 C 2.201841 1.657134 -1.160321 0
M  V30 21 C 1.885905 1.998131 0.137925 0
M  V30 22 N 1.525909 1.019650 1.011116 0
M  V30 23 C -2.378039 -3.913576 3.100274 0
M  V30 24 C -3.077411 -4.582915 4.110594 0
M  V30 25 C -3.196997 -5.963863 4.103212 0
M  V30 26 C -2.614675 -6.715963 3.075866 0
M  V30 27 F -2.762136 -8.071684 3.116385 0
M  V30 28 C -1.914728 -6.065485 2.062047 0
M  V30 29 C -1.823403 -4.688480 2.113371 0
M  V30 30 H -2.199747 -2.326937 5.337705 0
M  V30 31 H -3.781006 -2.053019 4.579819 0
M  V30 32 H -2.536416 -0.777462 4.423809 0
M  V30 33 H -2.877091 -1.924078 2.374007 0
M  V30 34 H -0.269132 -2.572227 3.551268 0
M  V30 35 H 1.667311 -1.598652 2.450732 0
M  V30 36 H 1.701169 -1.711871 -0.835049 0
M  V30 37 H 2.524940 -0.707072 -3.386381 0
M  V30 38 H 3.908847 3.961574 -0.538815 0
M  V30 39 H 4.246774 6.340891 -0.637055 0
M  V30 40 H 1.764643 4.081159 -4.210571 0
M  V30 41 H 1.928973 3.035760 0.439463 0
M  V30 42 H -3.546877 -4.048377 4.928534 0
M  V30 43 H -3.735567 -6.479860 4.881099 0
M  V30 44 H -1.465970 -6.656053 1.269266 0
M  V30 45 H -1.278688 -4.147888 1.328912 0
M  V30 END ATOM
M  V30 BEGIN BOND
M  V30 1 1 1 2
M  V30 2 1 2 3
M  V30 3 1 3 4
M  V30 4 2 4 5
M  V30 5 1 4 6
M  V30 6 1 6 7
M  V30 7 2 7 8
M  V30 8 1 8 9
M  V30 9 1 9 10
M  V30 10 1 10 11
M  V30 11 2 11 12
M  V30 12 1 12 13
M  V30 13 2 13 14
M  V30 14 1 14 15
M  V30 15 2 15 16
M  V30 16 1 16 17
M  V30 17 1 17 18
M  V30 18 2 17 19
M  V30 19 1 12 20
M  V30 20 1 20 21
M  V30 21 2 21 22
M  V30 22 1 2 23
M  V30 23 2 23 24
M  V30 24 1 24 25
M  V30 25 2 25 26
M  V30 26 1 26 27
M  V30 27 1 26 28
M  V30 28 2 28 29
M  V30 29 1 22 7
M  V30 30 1 29 23
M  V30 31 2 20 9
M  V30 32 1 19 13
M  V30 33 1 1 30
M  V30 34 1 1 31
M  V30 35 1 1 32
M  V30 36 1 2 33 CFG=3
M  V30 37 1 3 34
M  V30 38 1 6 35
M  V30 39 1 8 36
M  V30 40 1 10 37
M  V30 41 1 14 38
M  V30 42 1 15 39
M  V30 43 1 19 40
M  V30 44 1 21 41
M  V30 45 1 24 42
M  V30 46 1 25 43
M  V30 47 1 28 44
M  V30 48 1 29 45
M  V30 END BOND
M  V30 END CTAB
M  END
>  <Dataset>  (481) 
ChEMBL_Kinases

>  <Ligand_Instance>  (481) 
nan

>  <PDB_ID>  (481) 
nan

>  <Standardized_SMILES>  (481) 
C[C@@H](NC(=O)Nc1cc2[nH]nc(-c3ccnc(F)c3)c2cn1)c1ccc(F)cc1

>  <Name>  (481) 
nan

>  <Pocket>  (481) 
nan

>  <ATP_Site>  (481) 
nan

>  <Peripheral>  (481) 
nan

>  <Num_H_Atoms_ProtBoundConf>  (481) 
nan

>  <Num_Resolved_Atoms>  (481) 
nan

>  <Num_Not_Resolved_Atoms>  (481) 
nan

$$$$
CHEMBL3663073
     RDKit          3D

  0  0  0  0  0  0  0  0  0  0999 V3000
M  V30 BEGIN CTAB
M  V30 COUNTS 41 43 0 0 0
M  V30 BEGIN ATOM
M  V30 1 C -2.550940 -4.245273 -1.926458 0
M  V30 2 O -1.171612 -4.253309 -1.972015 0
M  V30 3 C -0.612677 -4.735907 -3.116844 0
M  V30 4 C 0.872698 -4.685952 -3.028075 0
M  V30 5 N 1.464257 -3.401967 -2.840824 0
M  V30 6 C 1.316346 -2.484655 -1.793304 0
M  V30 7 O 0.576341 -2.749889 -0.828426 0
M  V30 8 N 1.953833 -1.217068 -1.709284 0
M  V30 9 C 1.746902 -0.341126 -0.602554 0
M  V30 10 C 2.400200 0.877200 -0.587494 0
M  V30 11 C 2.139952 1.659401 0.523123 0
M  V30 12 N 2.602629 2.896072 0.863160 0
M  V30 13 N 2.084653 3.262170 2.024702 0
M  V30 14 C 1.264416 2.306383 2.511295 0
M  V30 15 C 0.505584 2.328616 3.760106 0
M  V30 16 C 1.122808 2.757997 4.941670 0
M  V30 17 C 0.389710 2.776706 6.134559 0
M  V30 18 C -0.919325 2.380594 6.155368 0
M  V30 19 C -1.725064 2.379129 7.358309 0
M  V30 20 N -2.384250 2.365783 8.315183 0
M  V30 21 C -1.525077 1.961673 5.007939 0
M  V30 22 C -0.818088 1.937054 3.825245 0
M  V30 23 C 1.302223 1.300518 1.563911 0
M  V30 24 C 0.685711 0.065887 1.474895 0
M  V30 25 N 0.923129 -0.730239 0.388992 0
M  V30 26 H -2.967328 -5.287858 -2.040072 0
M  V30 27 H -2.825893 -3.979107 -0.867032 0
M  V30 28 H -2.992740 -3.520561 -2.621629 0
M  V30 29 H -1.021186 -4.296758 -4.049118 0
M  V30 30 H -0.907338 -5.822432 -3.182302 0
M  V30 31 H 1.261024 -5.096877 -3.994613 0
M  V30 32 H 1.179182 -5.421983 -2.247735 0
M  V30 33 H 2.137162 -3.010645 -3.572779 0
M  V30 34 H 2.590249 -0.939877 -2.495893 0
M  V30 35 H 3.066762 1.211745 -1.372469 0
M  V30 36 H 3.265312 3.497707 0.319770 0
M  V30 37 H 2.159755 3.078247 4.956965 0
M  V30 38 H 0.841776 3.106491 7.075093 0
M  V30 39 H -2.563541 1.643292 5.004079 0
M  V30 40 H -1.334577 1.598486 2.938338 0
M  V30 41 H 0.019857 -0.265715 2.261303 0
M  V30 END ATOM
M  V30 BEGIN BOND
M  V30 1 1 1 2
M  V30 2 1 2 3
M  V30 3 1 3 4
M  V30 4 1 4 5
M  V30 5 1 5 6
M  V30 6 2 6 7
M  V30 7 1 6 8
M  V30 8 1 8 9
M  V30 9 2 9 10
M  V30 10 1 10 11
M  V30 11 1 11 12
M  V30 12 1 12 13
M  V30 13 2 13 14
M  V30 14 1 14 15
M  V30 15 2 15 16
M  V30 16 1 16 17
M  V30 17 2 17 18
M  V30 18 1 18 19
M  V30 19 3 19 20
M  V30 20 1 18 21
M  V30 21 2 21 22
M  V30 22 1 14 23
M  V30 23 1 23 24
M  V30 24 2 24 25
M  V30 25 1 25 9
M  V30 26 2 23 11
M  V30 27 1 22 15
M  V30 28 1 1 26
M  V30 29 1 1 27
M  V30 30 1 1 28
M  V30 31 1 3 29
M  V30 32 1 3 30
M  V30 33 1 4 31
M  V30 34 1 4 32
M  V30 35 1 5 33
M  V30 36 1 8 34
M  V30 37 1 10 35
M  V30 38 1 12 36
M  V30 39 1 16 37
M  V30 40 1 17 38
M  V30 41 1 21 39
M  V30 42 1 22 40
M  V30 43 1 24 41
M  V30 END BOND
M  V30 END CTAB
M  END
>  <Dataset>  (482) 
ChEMBL_Kinases

>  <Ligand_Instance>  (482) 
nan

>  <PDB_ID>  (482) 
nan

>  <Standardized_SMILES>  (482) 
COCCNC(=O)Nc1cc2[nH]nc(-c3ccc(C#N)cc3)c2cn1

>  <Name>  (482) 
nan

>  <Pocket>  (482) 
nan

>  <ATP_Site>  (482) 
nan

>  <Peripheral>  (482) 
nan

>  <Num_H_Atoms_ProtBoundConf>  (482) 
nan

>  <Num_Resolved_Atoms>  (482) 
nan

>  <Num_Not_Resolved_Atoms>  (482) 
nan

$$$$
CHEMBL3663074
     RDKit          3D

  0  0  0  0  0  0  0  0  0  0999 V3000
M  V30 BEGIN CTAB
M  V30 COUNTS 46 49 0 0 0
M  V30 BEGIN ATOM
M  V30 1 C 7.556868 -1.550975 2.769135 0
M  V30 2 O 7.511164 -1.121893 1.440462 0
M  V30 3 C 6.307791 -1.476731 0.833558 0
M  V30 4 C 6.375407 -0.964107 -0.585863 0
M  V30 5 N 5.186378 -1.255630 -1.359876 0
M  V30 6 C 3.918421 -0.791479 -0.994628 0
M  V30 7 O 3.836475 -0.101500 0.042885 0
M  V30 8 N 2.789788 -1.120104 -1.809083 0
M  V30 9 C 1.545044 -0.579273 -1.319668 0
M  V30 10 C 1.133626 0.672539 -1.736162 0
M  V30 11 C -0.063400 1.162756 -1.249407 0
M  V30 12 N -0.706957 2.325308 -1.472171 0
M  V30 13 N -1.837169 2.320104 -0.760351 0
M  V30 14 C -1.942799 1.151757 -0.064477 0
M  V30 15 C -3.043479 0.777639 0.827619 0
M  V30 16 C -3.451098 1.777001 1.701239 0
M  V30 17 C -4.476656 1.551289 2.591093 0
M  V30 18 C -5.112686 0.321685 2.622764 0
M  V30 19 N -6.114781 -0.215538 3.341069 0
M  V30 20 N -6.349871 -1.463092 2.974152 0
M  V30 21 C -7.338790 -2.391944 3.492661 0
M  V30 22 C -5.485418 -1.769349 1.987048 0
M  V30 23 C -4.690221 -0.660133 1.743079 0
M  V30 24 C -3.652777 -0.450170 0.834145 0
M  V30 25 C -0.823280 0.396683 -0.359883 0
M  V30 26 C -0.385065 -0.852525 0.038398 0
M  V30 27 N 0.787594 -1.309262 -0.451114 0
M  V30 28 H 7.448832 -2.673641 2.722577 0
M  V30 29 H 8.570605 -1.396740 3.186098 0
M  V30 30 H 6.785864 -1.106487 3.407629 0
M  V30 31 H 5.518712 -0.969397 1.423798 0
M  V30 32 H 6.245792 -2.577654 0.896179 0
M  V30 33 H 6.415954 0.154174 -0.501938 0
M  V30 34 H 7.278074 -1.341494 -1.073997 0
M  V30 35 H 5.270303 -1.835290 -2.227352 0
M  V30 36 H 2.875620 -1.697163 -2.672055 0
M  V30 37 H 1.768975 1.197224 -2.417484 0
M  V30 38 H -0.354446 3.083710 -2.102006 0
M  V30 39 H -3.013557 2.784012 1.756381 0
M  V30 40 H -4.842574 2.281239 3.295527 0
M  V30 41 H -7.870791 -2.889189 2.633810 0
M  V30 42 H -8.109615 -1.883787 4.096672 0
M  V30 43 H -6.892699 -3.234685 4.060478 0
M  V30 44 H -5.385657 -2.692499 1.449286 0
M  V30 45 H -3.315416 -1.194105 0.150812 0
M  V30 46 H -0.979790 -1.437754 0.726862 0
M  V30 END ATOM
M  V30 BEGIN BOND
M  V30 1 1 1 2
M  V30 2 1 2 3
M  V30 3 1 3 4
M  V30 4 1 4 5
M  V30 5 1 5 6
M  V30 6 2 6 7
M  V30 7 1 6 8
M  V30 8 1 8 9
M  V30 9 2 9 10
M  V30 10 1 10 11
M  V30 11 1 11 12
M  V30 12 1 12 13
M  V30 13 2 13 14
M  V30 14 1 14 15
M  V30 15 1 15 16
M  V30 16 2 16 17
M  V30 17 1 17 18
M  V30 18 2 18 19
M  V30 19 1 19 20
M  V30 20 1 20 21
M  V30 21 1 20 22
M  V30 22 2 22 23
M  V30 23 1 23 24
M  V30 24 1 14 25
M  V30 25 1 25 26
M  V30 26 2 26 27
M  V30 27 1 27 9
M  V30 28 2 25 11
M  V30 29 2 24 15
M  V30 30 1 23 18
M  V30 31 1 1 28
M  V30 32 1 1 29
M  V30 33 1 1 30
M  V30 34 1 3 31
M  V30 35 1 3 32
M  V30 36 1 4 33
M  V30 37 1 4 34
M  V30 38 1 5 35
M  V30 39 1 8 36
M  V30 40 1 10 37
M  V30 41 1 12 38
M  V30 42 1 16 39
M  V30 43 1 17 40
M  V30 44 1 21 41
M  V30 45 1 21 42
M  V30 46 1 21 43
M  V30 47 1 22 44
M  V30 48 1 24 45
M  V30 49 1 26 46
M  V30 END BOND
M  V30 END CTAB
M  END
>  <Dataset>  (483) 
ChEMBL_Kinases

>  <Ligand_Instance>  (483) 
nan

>  <PDB_ID>  (483) 
nan

>  <Standardized_SMILES>  (483) 
COCCNC(=O)Nc1cc2[nH]nc(-c3ccc4nn(C)cc4c3)c2cn1

>  <Name>  (483) 
nan

>  <Pocket>  (483) 
nan

>  <ATP_Site>  (483) 
nan

>  <Peripheral>  (483) 
nan

>  <Num_H_Atoms_ProtBoundConf>  (483) 
nan

>  <Num_Resolved_Atoms>  (483) 
nan

>  <Num_Not_Resolved_Atoms>  (483) 
nan

$$$$
CHEMBL3663075
     RDKit          3D

  0  0  0  0  0  0  0  0  0  0999 V3000
M  V30 BEGIN CTAB
M  V30 COUNTS 40 42 0 0 0
M  V30 BEGIN ATOM
M  V30 1 C -2.413238 -4.840226 -4.691405 0
M  V30 2 O -1.704362 -3.962946 -5.464524 0
M  V30 3 C -1.693694 -2.668108 -4.988676 0
M  V30 4 C -1.079278 -2.610746 -3.624436 0
M  V30 5 N -1.074162 -1.219234 -3.135379 0
M  V30 6 C -0.539932 -0.917482 -1.862948 0
M  V30 7 O -0.096329 -1.940097 -1.244346 0
M  V30 8 N -0.496582 0.400979 -1.314553 0
M  V30 9 C 0.065597 0.596790 -0.017437 0
M  V30 10 C 1.421813 0.855957 0.009526 0
M  V30 11 C 2.015337 1.053497 1.247456 0
M  V30 12 N 3.293651 1.322450 1.631761 0
M  V30 13 N 3.363412 1.426885 2.960926 0
M  V30 14 C 2.120550 1.227155 3.487061 0
M  V30 15 C 1.784326 1.261112 4.910404 0
M  V30 16 C 2.622615 0.598977 5.788362 0
M  V30 17 C 2.468118 0.519974 7.165868 0
M  V30 18 C 1.356585 1.177377 7.690656 0
M  V30 19 C 0.505466 1.843510 6.846384 0
M  V30 20 C 0.697483 1.896836 5.477697 0
M  V30 21 C 1.275156 0.993502 2.420031 0
M  V30 22 C -0.081715 0.730404 2.337636 0
M  V30 23 N -0.642359 0.541057 1.128250 0
M  V30 24 H -2.069513 -4.968798 -3.652656 0
M  V30 25 H -2.418672 -5.819341 -5.217799 0
M  V30 26 H -3.472328 -4.461118 -4.602731 0
M  V30 27 H -2.755564 -2.298765 -4.982601 0
M  V30 28 H -1.119339 -2.067475 -5.718381 0
M  V30 29 H -0.058800 -3.041917 -3.643455 0
M  V30 30 H -1.710121 -3.149485 -2.874321 0
M  V30 31 H -1.467166 -0.430777 -3.724371 0
M  V30 32 H -0.897500 1.149407 -1.934107 0
M  V30 33 H 2.019740 0.909263 -0.866344 0
M  V30 34 H 4.059607 1.419421 0.926396 0
M  V30 35 H 3.498325 0.079877 5.383983 0
M  V30 36 H 3.181006 -0.023784 7.764772 0
M  V30 37 H 1.231827 1.118912 8.762291 0
M  V30 38 H -0.358872 2.351356 7.280433 0
M  V30 39 H 0.040521 2.415201 4.793347 0
M  V30 40 H -0.668130 0.681955 3.253059 0
M  V30 END ATOM
M  V30 BEGIN BOND
M  V30 1 1 1 2
M  V30 2 1 2 3
M  V30 3 1 3 4
M  V30 4 1 4 5
M  V30 5 1 5 6
M  V30 6 2 6 7
M  V30 7 1 6 8
M  V30 8 1 8 9
M  V30 9 2 9 10
M  V30 10 1 10 11
M  V30 11 1 11 12
M  V30 12 1 12 13
M  V30 13 2 13 14
M  V30 14 1 14 15
M  V30 15 2 15 16
M  V30 16 1 16 17
M  V30 17 2 17 18
M  V30 18 1 18 19
M  V30 19 2 19 20
M  V30 20 1 14 21
M  V30 21 1 21 22
M  V30 22 2 22 23
M  V30 23 1 23 9
M  V30 24 2 21 11
M  V30 25 1 20 15
M  V30 26 1 1 24
M  V30 27 1 1 25
M  V30 28 1 1 26
M  V30 29 1 3 27
M  V30 30 1 3 28
M  V30 31 1 4 29
M  V30 32 1 4 30
M  V30 33 1 5 31
M  V30 34 1 8 32
M  V30 35 1 10 33
M  V30 36 1 12 34
M  V30 37 1 16 35
M  V30 38 1 17 36
M  V30 39 1 18 37
M  V30 40 1 19 38
M  V30 41 1 20 39
M  V30 42 1 22 40
M  V30 END BOND
M  V30 END CTAB
M  END
>  <Dataset>  (484) 
ChEMBL_Kinases

>  <Ligand_Instance>  (484) 
nan

>  <PDB_ID>  (484) 
nan

>  <Standardized_SMILES>  (484) 
COCCNC(=O)Nc1cc2[nH]nc(-c3ccccc3)c2cn1

>  <Name>  (484) 
nan

>  <Pocket>  (484) 
nan

>  <ATP_Site>  (484) 
nan

>  <Peripheral>  (484) 
nan

>  <Num_H_Atoms_ProtBoundConf>  (484) 
nan

>  <Num_Resolved_Atoms>  (484) 
nan

>  <Num_Not_Resolved_Atoms>  (484) 
nan

$$$$
CHEMBL3663076
     RDKit          3D

  0  0  0  0  0  0  0  0  0  0999 V3000
M  V30 BEGIN CTAB
M  V30 COUNTS 59 63 0 0 0
M  V30 BEGIN ATOM
M  V30 1 C 5.547497 -6.079789 -0.604063 0
M  V30 2 C 5.999022 -5.065681 0.405590 0
M  V30 3 C 5.629364 -3.765425 0.243229 0
M  V30 4 C 6.046439 -2.855766 1.166370 0
M  V30 5 C 5.759552 -1.415767 1.174352 0
M  V30 6 N 6.666359 -0.442172 1.414530 0
M  V30 7 N 6.086332 0.754890 1.348600 0
M  V30 8 C 4.782721 0.577549 1.062264 0
M  V30 9 C 3.745202 1.477571 0.884845 0
M  V30 10 C 2.482998 0.984820 0.592426 0
M  V30 11 N 1.351543 1.862712 0.393573 0
M  V30 12 C 0.066173 1.288963 0.095935 0
M  V30 13 O 0.007476 0.032251 0.026062 0
M  V30 14 N -1.058231 2.136854 -0.102538 0
M  V30 15 C -2.300028 1.457400 -0.395200 0
M  V30 16 C -2.723813 1.858318 -1.786191 0
M  V30 17 C -4.006619 2.615762 -1.850830 0
M  V30 18 C -5.146267 1.914803 -1.154172 0
M  V30 19 C -4.736133 1.331146 0.171165 0
M  V30 20 O -4.715354 -0.074677 0.017895 0
M  V30 21 C -5.426778 -0.985379 0.743024 0
M  V30 22 C -5.154260 -2.290132 0.311834 0
M  V30 23 C -5.762212 -3.398541 0.900860 0
M  V30 24 C -6.647793 -3.188007 1.928243 0
M  V30 25 Cl -7.440120 -4.548998 2.703808 0
M  V30 26 C -6.937333 -1.898715 2.377369 0
M  V30 27 F -7.808909 -1.655470 3.391982 0
M  V30 28 C -6.323313 -0.820317 1.778626 0
M  V30 29 C -3.368576 1.819029 0.601027 0
M  V30 30 N 2.312242 -0.347943 0.491786 0
M  V30 31 C 3.295400 -1.253100 0.657341 0
M  V30 32 C 4.555019 -0.781158 0.948234 0
M  V30 33 C 6.833289 -3.296774 2.236464 0
M  V30 34 C 7.201973 -4.615217 2.391740 0
M  V30 35 N 6.759552 -5.485912 1.441773 0
M  V30 36 H 5.440305 -7.085753 -0.121390 0
M  V30 37 H 6.266901 -6.096248 -1.446590 0
M  V30 38 H 4.517775 -5.782840 -0.900508 0
M  V30 39 H 5.031154 -3.394426 -0.559366 0
M  V30 40 H 6.519126 1.688738 1.485724 0
M  V30 41 H 3.876613 2.532235 0.963645 0
M  V30 42 H 1.467842 2.877871 0.464524 0
M  V30 43 H -1.006336 3.175655 -0.044300 0
M  V30 44 H -2.132779 0.361778 -0.409536 0
M  V30 45 H -1.951674 2.503313 -2.286800 0
M  V30 46 H -2.830843 0.978699 -2.466629 0
M  V30 47 H -3.926207 3.636879 -1.379318 0
M  V30 48 H -4.342615 2.802309 -2.889921 0
M  V30 49 H -5.621677 1.138229 -1.756078 0
M  V30 50 H -5.924309 2.699636 -0.920614 0
M  V30 51 H -5.440898 1.618497 0.991668 0
M  V30 52 H -4.466447 -2.577974 -0.497618 0
M  V30 53 H -5.581115 -4.406388 0.601281 0
M  V30 54 H -6.468937 0.205512 2.039553 0
M  V30 55 H -3.346544 2.896192 0.781106 0
M  V30 56 H -3.127395 1.293313 1.549803 0
M  V30 57 H 3.124670 -2.317868 0.569519 0
M  V30 58 H 7.213544 -2.635949 3.025691 0
M  V30 59 H 7.806299 -4.973474 3.207751 0
M  V30 END ATOM
M  V30 BEGIN BOND
M  V30 1 1 1 2
M  V30 2 2 2 3
M  V30 3 1 3 4
M  V30 4 1 4 5
M  V30 5 2 5 6
M  V30 6 1 6 7
M  V30 7 1 7 8
M  V30 8 2 8 9
M  V30 9 1 9 10
M  V30 10 1 10 11
M  V30 11 1 11 12
M  V30 12 2 12 13
M  V30 13 1 12 14
M  V30 14 1 14 15
M  V30 15 1 15 16
M  V30 16 1 16 17
M  V30 17 1 17 18
M  V30 18 1 18 19
M  V30 19 1 19 20
M  V30 20 1 20 21
M  V30 21 2 21 22
M  V30 22 1 22 23
M  V30 23 2 23 24
M  V30 24 1 24 25
M  V30 25 1 24 26
M  V30 26 1 26 27
M  V30 27 2 26 28
M  V30 28 1 19 29
M  V30 29 2 10 30
M  V30 30 1 30 31
M  V30 31 2 31 32
M  V30 32 2 4 33
M  V30 33 1 33 34
M  V30 34 2 34 35
M  V30 35 1 35 2
M  V30 36 1 32 5
M  V30 37 1 32 8
M  V30 38 1 29 15
M  V30 39 1 28 21
M  V30 40 1 1 36
M  V30 41 1 1 37
M  V30 42 1 1 38
M  V30 43 1 3 39
M  V30 44 1 7 40
M  V30 45 1 9 41
M  V30 46 1 11 42
M  V30 47 1 14 43
M  V30 48 1 15 44
M  V30 49 1 16 45
M  V30 50 1 16 46
M  V30 51 1 17 47
M  V30 52 1 17 48
M  V30 53 1 18 49
M  V30 54 1 18 50
M  V30 55 1 19 51
M  V30 56 1 22 52
M  V30 57 1 23 53
M  V30 58 1 28 54
M  V30 59 1 29 55
M  V30 60 1 29 56
M  V30 61 1 31 57
M  V30 62 1 33 58
M  V30 63 1 34 59
M  V30 END BOND
M  V30 END CTAB
M  END
>  <Dataset>  (485) 
ChEMBL_Kinases

>  <Ligand_Instance>  (485) 
nan

>  <PDB_ID>  (485) 
nan

>  <Standardized_SMILES>  (485) 
Cc1cc(-c2n[nH]c3cc(NC(=O)NC4CCCC(Oc5ccc(Cl)c(F)c5)C4)ncc23)ccn1

>  <Name>  (485) 
nan

>  <Pocket>  (485) 
nan

>  <ATP_Site>  (485) 
nan

>  <Peripheral>  (485) 
nan

>  <Num_H_Atoms_ProtBoundConf>  (485) 
nan

>  <Num_Resolved_Atoms>  (485) 
nan

>  <Num_Not_Resolved_Atoms>  (485) 
nan

$$$$
CHEMBL3663077
     RDKit          3D

  0  0  0  0  0  0  0  0  0  0999 V3000
M  V30 BEGIN CTAB
M  V30 COUNTS 46 49 0 0 0
M  V30 BEGIN ATOM
M  V30 1 C 2.375975 -5.922694 4.477970 0
M  V30 2 O 3.208127 -5.840045 3.349369 0
M  V30 3 C 4.149364 -4.864895 3.649070 0
M  V30 4 C 5.127975 -4.671337 2.494057 0
M  V30 5 N 4.356854 -4.266492 1.333984 0
M  V30 6 C 3.561660 -3.115038 1.250633 0
M  V30 7 O 3.451506 -2.320940 2.199575 0
M  V30 8 N 2.831767 -2.785619 0.073050 0
M  V30 9 C 2.025883 -1.614168 -0.004479 0
M  V30 10 C 2.407606 -0.358390 -0.423333 0
M  V30 11 C 1.480903 0.666382 -0.431422 0
M  V30 12 N 1.593254 1.958075 -0.786713 0
M  V30 13 N 0.416525 2.545712 -0.617425 0
M  V30 14 C -0.500955 1.678116 -0.151853 0
M  V30 15 C -1.904035 1.904572 0.169301 0
M  V30 16 C -2.477168 1.421909 1.324149 0
M  V30 17 C -3.784829 1.599858 1.682395 0
M  V30 18 N -4.602851 2.301635 0.855624 0
M  V30 19 C -4.090480 2.792298 -0.282099 0
M  V30 20 C -5.028885 3.556987 -1.158690 0
M  V30 21 C -4.459927 4.887368 -1.747711 0
M  V30 22 C -4.804902 3.687155 -2.603543 0
M  V30 23 C -2.773190 2.621259 -0.657612 0
M  V30 24 C 0.173595 0.480672 -0.032357 0
M  V30 25 C -0.156352 -0.794545 0.377435 0
M  V30 26 N 0.739637 -1.819260 0.393790 0
M  V30 27 H 1.584504 -6.668909 4.357820 0
M  V30 28 H 3.011448 -6.134682 5.379842 0
M  V30 29 H 1.946998 -4.887724 4.612262 0
M  V30 30 H 4.717145 -5.122479 4.584807 0
M  V30 31 H 3.621104 -3.922023 3.887312 0
M  V30 32 H 5.807645 -3.843916 2.745441 0
M  V30 33 H 5.701413 -5.569080 2.282412 0
M  V30 34 H 4.374821 -4.867846 0.463474 0
M  V30 35 H 2.884923 -3.419811 -0.764775 0
M  V30 36 H 3.422985 -0.265548 -0.720343 0
M  V30 37 H 2.492426 2.376967 -1.134449 0
M  V30 38 H -1.908908 0.856754 2.036669 0
M  V30 39 H -4.228468 1.218664 2.589798 0
M  V30 40 H -6.067529 3.634292 -0.760027 0
M  V30 41 H -5.168380 5.751327 -1.709108 0
M  V30 42 H -3.384730 5.069700 -1.554089 0
M  V30 43 H -5.732153 3.841403 -3.223379 0
M  V30 44 H -3.949960 3.147125 -3.045103 0
M  V30 45 H -2.387248 3.023999 -1.573589 0
M  V30 46 H -1.166795 -0.993253 0.699762 0
M  V30 END ATOM
M  V30 BEGIN BOND
M  V30 1 1 1 2
M  V30 2 1 2 3
M  V30 3 1 3 4
M  V30 4 1 4 5
M  V30 5 1 5 6
M  V30 6 2 6 7
M  V30 7 1 6 8
M  V30 8 1 8 9
M  V30 9 2 9 10
M  V30 10 1 10 11
M  V30 11 1 11 12
M  V30 12 1 12 13
M  V30 13 2 13 14
M  V30 14 1 14 15
M  V30 15 2 15 16
M  V30 16 1 16 17
M  V30 17 2 17 18
M  V30 18 1 18 19
M  V30 19 1 19 20
M  V30 20 1 20 21
M  V30 21 1 21 22
M  V30 22 2 19 23
M  V30 23 1 14 24
M  V30 24 1 24 25
M  V30 25 2 25 26
M  V30 26 1 26 9
M  V30 27 2 24 11
M  V30 28 1 23 15
M  V30 29 1 22 20
M  V30 30 1 1 27
M  V30 31 1 1 28
M  V30 32 1 1 29
M  V30 33 1 3 30
M  V30 34 1 3 31
M  V30 35 1 4 32
M  V30 36 1 4 33
M  V30 37 1 5 34
M  V30 38 1 8 35
M  V30 39 1 10 36
M  V30 40 1 12 37
M  V30 41 1 16 38
M  V30 42 1 17 39
M  V30 43 1 20 40
M  V30 44 1 21 41
M  V30 45 1 21 42
M  V30 46 1 22 43
M  V30 47 1 22 44
M  V30 48 1 23 45
M  V30 49 1 25 46
M  V30 END BOND
M  V30 END CTAB
M  END
>  <Dataset>  (486) 
ChEMBL_Kinases

>  <Ligand_Instance>  (486) 
nan

>  <PDB_ID>  (486) 
nan

>  <Standardized_SMILES>  (486) 
COCCNC(=O)Nc1cc2[nH]nc(-c3ccnc(C4CC4)c3)c2cn1

>  <Name>  (486) 
nan

>  <Pocket>  (486) 
nan

>  <ATP_Site>  (486) 
nan

>  <Peripheral>  (486) 
nan

>  <Num_H_Atoms_ProtBoundConf>  (486) 
nan

>  <Num_Resolved_Atoms>  (486) 
nan

>  <Num_Not_Resolved_Atoms>  (486) 
nan

$$$$
CHEMBL3663078
     RDKit          3D

  0  0  0  0  0  0  0  0  0  0999 V3000
M  V30 BEGIN CTAB
M  V30 COUNTS 49 51 0 0 0
M  V30 BEGIN ATOM
M  V30 1 C 5.558615 3.253120 3.053126 0
M  V30 2 O 6.170848 2.321604 2.208214 0
M  V30 3 C 6.085560 2.783881 0.915106 0
M  V30 4 C 6.715993 1.860184 -0.106715 0
M  V30 5 N 6.115614 0.558555 -0.129485 0
M  V30 6 C 4.744834 0.472752 -0.429419 0
M  V30 7 O 3.948058 1.411108 -0.688996 0
M  V30 8 N 4.153768 -0.843958 -0.448282 0
M  V30 9 C 2.794421 -1.162776 -0.725186 0
M  V30 10 C 2.270964 -1.437548 -1.974342 0
M  V30 11 C 0.924632 -1.729839 -2.073307 0
M  V30 12 N 0.161144 -2.030409 -3.140244 0
M  V30 13 N -1.096413 -2.237673 -2.737638 0
M  V30 14 C -1.190613 -2.077916 -1.392240 0
M  V30 15 C -2.384615 -2.215921 -0.565456 0
M  V30 16 C -2.665801 -1.269176 0.402650 0
M  V30 17 C -3.791327 -1.395937 1.185534 0
M  V30 18 C -4.677075 -2.447166 1.050339 0
M  V30 19 O -5.814927 -2.681712 1.757786 0
M  V30 20 C -6.381183 -1.942642 2.785443 0
M  V30 21 C -6.451459 -2.684256 4.101509 0
M  V30 22 C -7.760686 -1.399489 2.448256 0
M  V30 23 N -4.384953 -3.366531 0.095233 0
M  V30 24 C -3.287775 -3.250913 -0.674192 0
M  V30 25 C 0.085444 -1.757871 -0.976835 0
M  V30 26 C 0.646015 -1.478360 0.250414 0
M  V30 27 N 1.963850 -1.193718 0.336268 0
M  V30 28 H 5.636889 2.866212 4.081104 0
M  V30 29 H 6.074473 4.247138 3.041920 0
M  V30 30 H 4.485350 3.319130 2.769132 0
M  V30 31 H 5.023559 2.976952 0.671010 0
M  V30 32 H 6.651302 3.740632 0.870783 0
M  V30 33 H 6.493193 2.330726 -1.109201 0
M  V30 34 H 7.817814 1.864680 -0.046367 0
M  V30 35 H 6.672194 -0.316589 0.070480 0
M  V30 36 H 4.657083 -1.727340 -0.259248 0
M  V30 37 H 2.955196 -1.407091 -2.811298 0
M  V30 38 H 0.481066 -2.096139 -4.131651 0
M  V30 39 H -2.041790 -0.407181 0.592916 0
M  V30 40 H -4.028975 -0.680253 1.937122 0
M  V30 41 H -5.739965 -1.057972 2.980502 0
M  V30 42 H -7.434316 -3.198587 4.130339 0
M  V30 43 H -5.682531 -3.459701 4.208978 0
M  V30 44 H -6.464978 -1.956950 4.959338 0
M  V30 45 H -8.051604 -1.616498 1.390537 0
M  V30 46 H -7.809842 -0.291300 2.524840 0
M  V30 47 H -8.502945 -1.793331 3.150570 0
M  V30 48 H -3.078010 -4.012066 -1.439820 0
M  V30 49 H 0.026807 -1.489314 1.136072 0
M  V30 END ATOM
M  V30 BEGIN BOND
M  V30 1 1 1 2
M  V30 2 1 2 3
M  V30 3 1 3 4
M  V30 4 1 4 5
M  V30 5 1 5 6
M  V30 6 2 6 7
M  V30 7 1 6 8
M  V30 8 1 8 9
M  V30 9 2 9 10
M  V30 10 1 10 11
M  V30 11 1 11 12
M  V30 12 1 12 13
M  V30 13 2 13 14
M  V30 14 1 14 15
M  V30 15 2 15 16
M  V30 16 1 16 17
M  V30 17 2 17 18
M  V30 18 1 18 19
M  V30 19 1 19 20
M  V30 20 1 20 21
M  V30 21 1 20 22
M  V30 22 1 18 23
M  V30 23 2 23 24
M  V30 24 1 14 25
M  V30 25 1 25 26
M  V30 26 2 26 27
M  V30 27 1 27 9
M  V30 28 2 25 11
M  V30 29 1 24 15
M  V30 30 1 1 28
M  V30 31 1 1 29
M  V30 32 1 1 30
M  V30 33 1 3 31
M  V30 34 1 3 32
M  V30 35 1 4 33
M  V30 36 1 4 34
M  V30 37 1 5 35
M  V30 38 1 8 36
M  V30 39 1 10 37
M  V30 40 1 12 38
M  V30 41 1 16 39
M  V30 42 1 17 40
M  V30 43 1 20 41
M  V30 44 1 21 42
M  V30 45 1 21 43
M  V30 46 1 21 44
M  V30 47 1 22 45
M  V30 48 1 22 46
M  V30 49 1 22 47
M  V30 50 1 24 48
M  V30 51 1 26 49
M  V30 END BOND
M  V30 END CTAB
M  END
>  <Dataset>  (487) 
ChEMBL_Kinases

>  <Ligand_Instance>  (487) 
nan

>  <PDB_ID>  (487) 
nan

>  <Standardized_SMILES>  (487) 
COCCNC(=O)Nc1cc2[nH]nc(-c3ccc(OC(C)C)nc3)c2cn1

>  <Name>  (487) 
nan

>  <Pocket>  (487) 
nan

>  <ATP_Site>  (487) 
nan

>  <Peripheral>  (487) 
nan

>  <Num_H_Atoms_ProtBoundConf>  (487) 
nan

>  <Num_Resolved_Atoms>  (487) 
nan

>  <Num_Not_Resolved_Atoms>  (487) 
nan

$$$$
CHEMBL3663079
     RDKit          3D

  0  0  0  0  0  0  0  0  0  0999 V3000
M  V30 BEGIN CTAB
M  V30 COUNTS 46 48 0 0 0
M  V30 BEGIN ATOM
M  V30 1 C 4.113491 -6.661462 2.827247 0
M  V30 2 O 3.480924 -5.446573 3.064464 0
M  V30 3 C 4.344186 -4.383134 3.171387 0
M  V30 4 C 5.184476 -4.114701 1.968905 0
M  V30 5 N 4.421580 -3.823836 0.781401 0
M  V30 6 C 3.557000 -2.701111 0.809533 0
M  V30 7 O 3.438766 -1.964694 1.823129 0
M  V30 8 N 2.793498 -2.395880 -0.354419 0
M  V30 9 C 1.910224 -1.274133 -0.369493 0
M  V30 10 C 2.303844 -0.006300 -0.766286 0
M  V30 11 C 1.390956 1.032544 -0.754345 0
M  V30 12 N 1.448268 2.344903 -1.069551 0
M  V30 13 N 0.270430 2.932236 -0.882262 0
M  V30 14 C -0.642905 2.027167 -0.426471 0
M  V30 15 C -2.046658 2.250073 -0.094359 0
M  V30 16 C -2.611517 1.734338 1.065424 0
M  V30 17 C -3.939611 1.917220 1.427066 0
M  V30 18 C -4.474233 1.337544 2.679927 0
M  V30 19 N -4.712268 2.646038 0.582505 0
M  V30 20 C -4.202475 3.173287 -0.568944 0
M  V30 21 O -5.059502 3.907293 -1.379634 0
M  V30 22 C -6.432419 4.118946 -1.044107 0
M  V30 23 C -2.863870 2.982500 -0.922505 0
M  V30 24 C 0.080333 0.853249 -0.355830 0
M  V30 25 C -0.271828 -0.436582 0.034673 0
M  V30 26 N 0.617477 -1.452036 0.023827 0
M  V30 27 H 3.335555 -7.452355 2.761492 0
M  V30 28 H 4.726719 -6.612632 1.897888 0
M  V30 29 H 4.819177 -6.864266 3.649846 0
M  V30 30 H 3.853301 -3.470529 3.578066 0
M  V30 31 H 5.071822 -4.665138 3.991643 0
M  V30 32 H 5.872762 -4.942070 1.809234 0
M  V30 33 H 5.811121 -3.213375 2.219903 0
M  V30 34 H 4.507039 -4.424316 -0.069374 0
M  V30 35 H 2.904486 -3.024756 -1.197774 0
M  V30 36 H 3.321391 0.158184 -1.081452 0
M  V30 37 H 2.296200 2.849248 -1.416033 0
M  V30 38 H -2.022624 1.149903 1.758204 0
M  V30 39 H -4.828533 0.289657 2.566846 0
M  V30 40 H -3.589390 1.240138 3.371845 0
M  V30 41 H -5.182799 1.985363 3.210030 0
M  V30 42 H -6.699543 5.122334 -1.468752 0
M  V30 43 H -7.042535 3.340844 -1.531478 0
M  V30 44 H -6.609902 4.146353 0.030369 0
M  V30 45 H -2.473761 3.397531 -1.823231 0
M  V30 46 H -1.280360 -0.653480 0.359347 0
M  V30 END ATOM
M  V30 BEGIN BOND
M  V30 1 1 1 2
M  V30 2 1 2 3
M  V30 3 1 3 4
M  V30 4 1 4 5
M  V30 5 1 5 6
M  V30 6 2 6 7
M  V30 7 1 6 8
M  V30 8 1 8 9
M  V30 9 2 9 10
M  V30 10 1 10 11
M  V30 11 1 11 12
M  V30 12 1 12 13
M  V30 13 2 13 14
M  V30 14 1 14 15
M  V30 15 2 15 16
M  V30 16 1 16 17
M  V30 17 1 17 18
M  V30 18 2 17 19
M  V30 19 1 19 20
M  V30 20 1 20 21
M  V30 21 1 21 22
M  V30 22 2 20 23
M  V30 23 1 14 24
M  V30 24 1 24 25
M  V30 25 2 25 26
M  V30 26 1 26 9
M  V30 27 2 24 11
M  V30 28 1 23 15
M  V30 29 1 1 27
M  V30 30 1 1 28
M  V30 31 1 1 29
M  V30 32 1 3 30
M  V30 33 1 3 31
M  V30 34 1 4 32
M  V30 35 1 4 33
M  V30 36 1 5 34
M  V30 37 1 8 35
M  V30 38 1 10 36
M  V30 39 1 12 37
M  V30 40 1 16 38
M  V30 41 1 18 39
M  V30 42 1 18 40
M  V30 43 1 18 41
M  V30 44 1 22 42
M  V30 45 1 22 43
M  V30 46 1 22 44
M  V30 47 1 23 45
M  V30 48 1 25 46
M  V30 END BOND
M  V30 END CTAB
M  END
>  <Dataset>  (488) 
ChEMBL_Kinases

>  <Ligand_Instance>  (488) 
nan

>  <PDB_ID>  (488) 
nan

>  <Standardized_SMILES>  (488) 
COCCNC(=O)Nc1cc2[nH]nc(-c3cc(C)nc(OC)c3)c2cn1

>  <Name>  (488) 
nan

>  <Pocket>  (488) 
nan

>  <ATP_Site>  (488) 
nan

>  <Peripheral>  (488) 
nan

>  <Num_H_Atoms_ProtBoundConf>  (488) 
nan

>  <Num_Resolved_Atoms>  (488) 
nan

>  <Num_Not_Resolved_Atoms>  (488) 
nan

$$$$
CHEMBL3663080
     RDKit          3D

  0  0  0  0  0  0  0  0  0  0999 V3000
M  V30 BEGIN CTAB
M  V30 COUNTS 40 42 0 0 0
M  V30 BEGIN ATOM
M  V30 1 C 0.007542 -6.936614 0.565038 0
M  V30 2 O 1.259696 -6.731596 1.101674 0
M  V30 3 C 1.792964 -5.487603 0.859700 0
M  V30 4 C 1.935987 -5.230296 -0.613938 0
M  V30 5 N 2.497947 -3.921467 -0.889254 0
M  V30 6 C 1.875137 -2.707825 -0.469598 0
M  V30 7 O 0.786036 -2.706700 0.173008 0
M  V30 8 N 2.432346 -1.419943 -0.742941 0
M  V30 9 C 1.768200 -0.228221 -0.299869 0
M  V30 10 C 2.328071 1.007125 -0.576804 0
M  V30 11 C 1.610619 2.093005 -0.106889 0
M  V30 12 N 1.828799 3.439215 -0.177532 0
M  V30 13 N 0.849295 4.104990 0.428819 0
M  V30 14 C -0.059542 3.216094 0.926481 0
M  V30 15 C -1.289877 3.528826 1.665528 0
M  V30 16 C -1.698853 2.880074 2.813190 0
M  V30 17 C -2.873355 3.245315 3.438749 0
M  V30 18 C -3.680075 4.258100 2.955383 0
M  V30 19 F -4.822693 4.553490 3.635778 0
M  V30 20 C -3.289984 4.923052 1.805404 0
M  V30 21 C -2.103456 4.538552 1.192039 0
M  V30 22 C 0.423673 1.963516 0.587522 0
M  V30 23 C -0.098937 0.711285 0.841754 0
M  V30 24 N 0.610423 -0.337032 0.378231 0
M  V30 25 H -0.741028 -6.213866 0.960298 0
M  V30 26 H -0.347409 -7.932826 0.962801 0
M  V30 27 H -0.007093 -7.051452 -0.531705 0
M  V30 28 H 2.790840 -5.444412 1.350330 0
M  V30 29 H 1.209942 -4.669426 1.369489 0
M  V30 30 H 2.660545 -5.976670 -0.999410 0
M  V30 31 H 0.934746 -5.331218 -1.080807 0
M  V30 32 H 3.408817 -3.792902 -1.421181 0
M  V30 33 H 3.329420 -1.346358 -1.269034 0
M  V30 34 H 3.250821 1.117544 -1.116228 0
M  V30 35 H 2.651076 3.907118 -0.642294 0
M  V30 36 H -1.072447 2.090044 3.192855 0
M  V30 37 H -3.148651 2.700524 4.340819 0
M  V30 38 H -3.917087 5.714420 1.424769 0
M  V30 39 H -1.867995 5.108004 0.296481 0
M  V30 40 H -1.020979 0.517690 1.377172 0
M  V30 END ATOM
M  V30 BEGIN BOND
M  V30 1 1 1 2
M  V30 2 1 2 3
M  V30 3 1 3 4
M  V30 4 1 4 5
M  V30 5 1 5 6
M  V30 6 2 6 7
M  V30 7 1 6 8
M  V30 8 1 8 9
M  V30 9 2 9 10
M  V30 10 1 10 11
M  V30 11 1 11 12
M  V30 12 1 12 13
M  V30 13 2 13 14
M  V30 14 1 14 15
M  V30 15 2 15 16
M  V30 16 1 16 17
M  V30 17 2 17 18
M  V30 18 1 18 19
M  V30 19 1 18 20
M  V30 20 2 20 21
M  V30 21 1 14 22
M  V30 22 1 22 23
M  V30 23 2 23 24
M  V30 24 1 24 9
M  V30 25 2 22 11
M  V30 26 1 21 15
M  V30 27 1 1 25
M  V30 28 1 1 26
M  V30 29 1 1 27
M  V30 30 1 3 28
M  V30 31 1 3 29
M  V30 32 1 4 30
M  V30 33 1 4 31
M  V30 34 1 5 32
M  V30 35 1 8 33
M  V30 36 1 10 34
M  V30 37 1 12 35
M  V30 38 1 16 36
M  V30 39 1 17 37
M  V30 40 1 20 38
M  V30 41 1 21 39
M  V30 42 1 23 40
M  V30 END BOND
M  V30 END CTAB
M  END
>  <Dataset>  (489) 
ChEMBL_Kinases

>  <Ligand_Instance>  (489) 
nan

>  <PDB_ID>  (489) 
nan

>  <Standardized_SMILES>  (489) 
COCCNC(=O)Nc1cc2[nH]nc(-c3ccc(F)cc3)c2cn1

>  <Name>  (489) 
nan

>  <Pocket>  (489) 
nan

>  <ATP_Site>  (489) 
nan

>  <Peripheral>  (489) 
nan

>  <Num_H_Atoms_ProtBoundConf>  (489) 
nan

>  <Num_Resolved_Atoms>  (489) 
nan

>  <Num_Not_Resolved_Atoms>  (489) 
nan

$$$$
CHEMBL3663072
     RDKit          3D

  0  0  0  0  0  0  0  0  0  0999 V3000
M  V30 BEGIN CTAB
M  V30 COUNTS 51 55 0 0 0
M  V30 BEGIN ATOM
M  V30 1 C -0.090927 -4.055996 5.281243 0
M  V30 2 C -0.207166 -3.950836 3.781198 0 CFG=1
M  V30 3 N 0.998199 -3.423294 3.168178 0
M  V30 4 C 0.991907 -2.234994 2.421765 0
M  V30 5 O -0.128862 -1.670401 2.327682 0
M  V30 6 N 2.155005 -1.687970 1.806362 0
M  V30 7 C 2.089725 -0.472324 1.056534 0
M  V30 8 C 3.192147 0.093137 0.443454 0
M  V30 9 C 3.053024 1.271958 -0.265936 0
M  V30 10 N 3.915259 2.066696 -0.967281 0
M  V30 11 N 3.269741 3.106653 -1.471134 0
M  V30 12 C 1.964945 3.071411 -1.144500 0
M  V30 13 C 0.878012 3.993176 -1.471002 0
M  V30 14 C 0.813621 5.380945 -1.439279 0
M  V30 15 N -0.418142 5.704201 -1.836895 0
M  V30 16 N -1.122944 4.617337 -2.113123 0
M  V30 17 C -2.497449 4.515326 -2.574544 0
M  V30 18 C -2.652639 3.340083 -3.516621 0
M  V30 19 O -3.244140 2.549882 -2.529427 0
M  V30 20 C -3.398512 3.676636 -1.701922 0
M  V30 21 C -0.343742 3.517630 -1.895885 0
M  V30 22 C 1.839789 1.921105 -0.391373 0
M  V30 23 C 0.770671 1.313261 0.240609 0
M  V30 24 N 0.890506 0.149638 0.944935 0
M  V30 25 C -0.486492 -5.242759 3.140066 0
M  V30 26 C -0.840335 -6.384270 3.835173 0
M  V30 27 C -1.080406 -7.542855 3.136845 0
M  V30 28 C -0.991053 -7.648385 1.761854 0
M  V30 29 C -0.637847 -6.509331 1.066751 0
M  V30 30 C -0.393601 -5.333393 1.768752 0
M  V30 31 H 0.503129 -4.947013 5.589582 0
M  V30 32 H -1.120950 -4.225597 5.674893 0
M  V30 33 H 0.295192 -3.120810 5.699256 0
M  V30 34 H -1.062377 -3.267327 3.550721 0
M  V30 35 H 1.884469 -3.961241 3.300133 0
M  V30 36 H 3.027741 -2.211216 1.932232 0
M  V30 37 H 4.139827 -0.386633 0.524260 0
M  V30 38 H 4.928748 1.830652 -1.055209 0
M  V30 39 H 1.679308 5.952514 -1.129238 0
M  V30 40 H -2.919271 5.437356 -2.986053 0
M  V30 41 H -1.681176 2.888148 -3.826996 0
M  V30 42 H -3.347866 3.471170 -4.358970 0
M  V30 43 H -2.874580 3.471285 -0.747143 0
M  V30 44 H -4.445974 3.997403 -1.630246 0
M  V30 45 H -0.654693 2.491991 -2.038671 0
M  V30 46 H -0.226850 1.734046 0.208558 0
M  V30 47 H -0.908272 -6.294104 4.910848 0
M  V30 48 H -1.350176 -8.384841 3.753063 0
M  V30 49 H -1.212532 -8.637394 1.360801 0
M  V30 50 H -0.574504 -6.614551 -0.000646 0
M  V30 51 H -0.119784 -4.482811 1.131006 0
M  V30 END ATOM
M  V30 BEGIN BOND
M  V30 1 1 1 2
M  V30 2 1 2 3
M  V30 3 1 3 4
M  V30 4 2 4 5
M  V30 5 1 4 6
M  V30 6 1 6 7
M  V30 7 2 7 8
M  V30 8 1 8 9
M  V30 9 1 9 10
M  V30 10 1 10 11
M  V30 11 2 11 12
M  V30 12 1 12 13
M  V30 13 1 13 14
M  V30 14 2 14 15
M  V30 15 1 15 16
M  V30 16 1 16 17
M  V30 17 1 17 18
M  V30 18 1 18 19
M  V30 19 1 19 20
M  V30 20 1 16 21
M  V30 21 1 12 22
M  V30 22 1 22 23
M  V30 23 2 23 24
M  V30 24 1 2 25
M  V30 25 2 25 26
M  V30 26 1 26 27
M  V30 27 2 27 28
M  V30 28 1 28 29
M  V30 29 2 29 30
M  V30 30 1 24 7
M  V30 31 1 30 25
M  V30 32 2 22 9
M  V30 33 2 21 13
M  V30 34 1 20 17
M  V30 35 1 1 31
M  V30 36 1 1 32
M  V30 37 1 1 33
M  V30 38 1 2 34 CFG=1
M  V30 39 1 3 35
M  V30 40 1 6 36
M  V30 41 1 8 37
M  V30 42 1 10 38
M  V30 43 1 14 39
M  V30 44 1 17 40
M  V30 45 1 18 41
M  V30 46 1 18 42
M  V30 47 1 20 43
M  V30 48 1 20 44
M  V30 49 1 21 45
M  V30 50 1 23 46
M  V30 51 1 26 47
M  V30 52 1 27 48
M  V30 53 1 28 49
M  V30 54 1 29 50
M  V30 55 1 30 51
M  V30 END BOND
M  V30 END CTAB
M  END
>  <Dataset>  (490) 
ChEMBL_Kinases

>  <Ligand_Instance>  (490) 
nan

>  <PDB_ID>  (490) 
nan

>  <Standardized_SMILES>  (490) 
C[C@@H](NC(=O)Nc1cc2[nH]nc(-c3cnn(C4COC4)c3)c2cn1)c1ccccc1

>  <Name>  (490) 
nan

>  <Pocket>  (490) 
nan

>  <ATP_Site>  (490) 
nan

>  <Peripheral>  (490) 
nan

>  <Num_H_Atoms_ProtBoundConf>  (490) 
nan

>  <Num_Resolved_Atoms>  (490) 
nan

>  <Num_Not_Resolved_Atoms>  (490) 
nan

$$$$
CHEMBL3663129
     RDKit          3D

  0  0  0  0  0  0  0  0  0  0999 V3000
M  V30 BEGIN CTAB
M  V30 COUNTS 46 48 0 0 0
M  V30 BEGIN ATOM
M  V30 1 C -1.468802 -3.263941 4.349915 0
M  V30 2 C -1.166198 -4.313234 3.330083 0
M  V30 3 O 0.163302 -4.539844 3.097223 0
M  V30 4 C 0.877106 -3.467273 2.646574 0
M  V30 5 C 0.451246 -2.853964 1.364533 0 CFG=1
M  V30 6 N 1.324571 -1.708450 1.047637 0
M  V30 7 C 0.803087 -0.412930 0.869722 0
M  V30 8 O -0.435003 -0.170357 0.972801 0
M  V30 9 N 1.584993 0.724496 0.565248 0
M  V30 10 C 1.035192 2.026661 0.389499 0
M  V30 11 C 1.804463 3.111479 0.096253 0
M  V30 12 C 1.244792 4.362887 -0.068888 0
M  V30 13 N 1.766307 5.556246 -0.352620 0
M  V30 14 N 0.784552 6.468898 -0.404428 0
M  V30 15 C -0.405031 5.854409 -0.148129 0
M  V30 16 C -1.747820 6.491591 -0.105649 0
M  V30 17 F -2.405775 6.259233 1.075765 0
M  V30 18 F -2.550115 5.987708 -1.118040 0
M  V30 19 C -0.125343 4.520648 0.065782 0
M  V30 20 C -0.877411 3.405897 0.362521 0
M  V30 21 N -0.300503 2.198316 0.517471 0
M  V30 22 C 0.565163 -3.815009 0.240348 0
M  V30 23 C 0.457998 -3.139822 -0.973012 0
M  V30 24 C 0.533759 -3.820286 -2.195135 0
M  V30 25 C 0.716988 -5.178807 -2.213363 0
M  V30 26 C 0.819129 -5.818158 -1.020024 0
M  V30 27 C 0.748130 -5.173695 0.193090 0
M  V30 28 H -0.600381 -2.668432 4.681776 0
M  V30 29 H -1.886356 -3.700139 5.302506 0
M  V30 30 H -2.293577 -2.590805 3.981584 0
M  V30 31 H -1.582895 -5.282597 3.721297 0
M  V30 32 H -1.750241 -4.163338 2.376836 0
M  V30 33 H 1.931874 -3.834546 2.486194 0
M  V30 34 H 1.006449 -2.667250 3.424989 0
M  V30 35 H -0.566258 -2.403684 1.402639 0
M  V30 36 H 2.373664 -1.812636 0.941502 0
M  V30 37 H 2.621103 0.613516 0.461915 0
M  V30 38 H 2.883440 3.025448 -0.016887 0
M  V30 39 H 2.782846 5.734201 -0.507247 0
M  V30 40 H -1.629653 7.583573 -0.322290 0
M  V30 41 H -1.944897 3.539919 0.465386 0
M  V30 42 H 0.310124 -2.059946 -1.129511 0
M  V30 43 H 0.454251 -3.325774 -3.158750 0
M  V30 44 H 0.792492 -5.822044 -3.072325 0
M  V30 45 H 0.966399 -6.896975 -0.901984 0
M  V30 46 H 0.821136 -5.607657 1.165098 0
M  V30 END ATOM
M  V30 BEGIN BOND
M  V30 1 1 1 2
M  V30 2 1 2 3
M  V30 3 1 3 4
M  V30 4 1 4 5
M  V30 5 1 5 6
M  V30 6 1 6 7
M  V30 7 2 7 8
M  V30 8 1 7 9
M  V30 9 1 9 10
M  V30 10 2 10 11
M  V30 11 1 11 12
M  V30 12 1 12 13
M  V30 13 1 13 14
M  V30 14 2 14 15
M  V30 15 1 15 16
M  V30 16 1 16 17
M  V30 17 1 16 18
M  V30 18 1 15 19
M  V30 19 1 19 20
M  V30 20 2 20 21
M  V30 21 1 5 22
M  V30 22 2 22 23
M  V30 23 1 23 24
M  V30 24 2 24 25
M  V30 25 1 25 26
M  V30 26 2 26 27
M  V30 27 1 21 10
M  V30 28 1 27 22
M  V30 29 2 19 12
M  V30 30 1 1 28
M  V30 31 1 1 29
M  V30 32 1 1 30
M  V30 33 1 2 31
M  V30 34 1 2 32
M  V30 35 1 4 33
M  V30 36 1 4 34
M  V30 37 1 5 35 CFG=1
M  V30 38 1 6 36
M  V30 39 1 9 37
M  V30 40 1 11 38
M  V30 41 1 13 39
M  V30 42 1 16 40
M  V30 43 1 20 41
M  V30 44 1 23 42
M  V30 45 1 24 43
M  V30 46 1 25 44
M  V30 47 1 26 45
M  V30 48 1 27 46
M  V30 END BOND
M  V30 END CTAB
M  END
>  <Dataset>  (491) 
ChEMBL_Kinases

>  <Ligand_Instance>  (491) 
nan

>  <PDB_ID>  (491) 
nan

>  <Standardized_SMILES>  (491) 
CCOC[C@@H](NC(=O)Nc1cc2[nH]nc(C(F)F)c2cn1)c1ccccc1

>  <Name>  (491) 
nan

>  <Pocket>  (491) 
nan

>  <ATP_Site>  (491) 
nan

>  <Peripheral>  (491) 
nan

>  <Num_H_Atoms_ProtBoundConf>  (491) 
nan

>  <Num_Resolved_Atoms>  (491) 
nan

>  <Num_Not_Resolved_Atoms>  (491) 
nan

$$$$
CHEMBL3663128
     RDKit          3D

  0  0  0  0  0  0  0  0  0  0999 V3000
M  V30 BEGIN CTAB
M  V30 COUNTS 43 45 0 0 0
M  V30 BEGIN ATOM
M  V30 1 C 2.268129 -3.670870 4.788355 0
M  V30 2 O 1.943891 -3.440535 3.442403 0
M  V30 3 C 0.637186 -2.987469 3.347350 0
M  V30 4 C 0.215413 -2.715662 1.908843 0 CFG=1
M  V30 5 N 1.090498 -1.691620 1.326276 0
M  V30 6 C 0.534967 -0.444037 0.954777 0
M  V30 7 O -0.695451 -0.237378 1.130684 0
M  V30 8 N 1.267546 0.627511 0.383371 0
M  V30 9 C 0.638621 1.873440 0.027797 0
M  V30 10 C 1.403382 2.892658 -0.529902 0
M  V30 11 C 0.683675 4.034093 -0.825749 0
M  V30 12 N 1.105767 5.211717 -1.373884 0
M  V30 13 N 0.067089 6.041531 -1.481469 0
M  V30 14 C -1.055297 5.460414 -1.020339 0
M  V30 15 C -2.415381 6.060064 -0.971003 0
M  V30 16 F -2.389509 7.107451 -0.077636 0
M  V30 17 F -2.902525 6.392785 -2.194680 0
M  V30 18 C -0.669794 4.200977 -0.608670 0
M  V30 19 C -1.353626 3.139613 -0.051378 0
M  V30 20 N -0.698106 1.984456 0.263216 0
M  V30 21 C 0.313256 -3.948221 1.124774 0
M  V30 22 C 1.590305 -4.376307 0.754074 0
M  V30 23 C 1.826982 -5.518991 0.015610 0
M  V30 24 C 0.717591 -6.248141 -0.355862 0
M  V30 25 C -0.576330 -5.896557 -0.032014 0
M  V30 26 C -0.734586 -4.742673 0.707300 0
M  V30 27 H 3.301877 -4.026022 4.826916 0
M  V30 28 H 2.184478 -2.740734 5.380982 0
M  V30 29 H 1.556447 -4.420019 5.200251 0
M  V30 30 H 0.569787 -2.062730 3.957831 0
M  V30 31 H -0.057463 -3.736109 3.753959 0
M  V30 32 H -0.795528 -2.287056 1.952227 0
M  V30 33 H 2.110189 -1.818070 1.162977 0
M  V30 34 H 2.274334 0.501327 0.222673 0
M  V30 35 H 2.455050 2.792117 -0.709956 0
M  V30 36 H 2.097634 5.420990 -1.662516 0
M  V30 37 H -3.110434 5.295097 -0.527260 0
M  V30 38 H -2.433348 3.226874 0.139722 0
M  V30 39 H 2.489681 -3.818345 1.034333 0
M  V30 40 H 2.820899 -5.831250 -0.259720 0
M  V30 41 H 0.865397 -7.161305 -0.942733 0
M  V30 42 H -1.454157 -6.455703 -0.314729 0
M  V30 43 H -1.713571 -4.366696 1.021589 0
M  V30 END ATOM
M  V30 BEGIN BOND
M  V30 1 1 1 2
M  V30 2 1 2 3
M  V30 3 1 3 4
M  V30 4 1 4 5
M  V30 5 1 5 6
M  V30 6 2 6 7
M  V30 7 1 6 8
M  V30 8 1 8 9
M  V30 9 2 9 10
M  V30 10 1 10 11
M  V30 11 1 11 12
M  V30 12 1 12 13
M  V30 13 2 13 14
M  V30 14 1 14 15
M  V30 15 1 15 16
M  V30 16 1 15 17
M  V30 17 1 14 18
M  V30 18 1 18 19
M  V30 19 2 19 20
M  V30 20 1 4 21
M  V30 21 2 21 22
M  V30 22 1 22 23
M  V30 23 2 23 24
M  V30 24 1 24 25
M  V30 25 2 25 26
M  V30 26 1 20 9
M  V30 27 1 26 21
M  V30 28 2 18 11
M  V30 29 1 1 27
M  V30 30 1 1 28
M  V30 31 1 1 29
M  V30 32 1 3 30
M  V30 33 1 3 31
M  V30 34 1 4 32 CFG=1
M  V30 35 1 5 33
M  V30 36 1 8 34
M  V30 37 1 10 35
M  V30 38 1 12 36
M  V30 39 1 15 37
M  V30 40 1 19 38
M  V30 41 1 22 39
M  V30 42 1 23 40
M  V30 43 1 24 41
M  V30 44 1 25 42
M  V30 45 1 26 43
M  V30 END BOND
M  V30 END CTAB
M  END
>  <Dataset>  (492) 
ChEMBL_Kinases

>  <Ligand_Instance>  (492) 
nan

>  <PDB_ID>  (492) 
nan

>  <Standardized_SMILES>  (492) 
COC[C@@H](NC(=O)Nc1cc2[nH]nc(C(F)F)c2cn1)c1ccccc1

>  <Name>  (492) 
nan

>  <Pocket>  (492) 
nan

>  <ATP_Site>  (492) 
nan

>  <Peripheral>  (492) 
nan

>  <Num_H_Atoms_ProtBoundConf>  (492) 
nan

>  <Num_Resolved_Atoms>  (492) 
nan

>  <Num_Not_Resolved_Atoms>  (492) 
nan

$$$$
CHEMBL3663127
     RDKit          3D

  0  0  0  0  0  0  0  0  0  0999 V3000
M  V30 BEGIN CTAB
M  V30 COUNTS 50 54 0 0 0
M  V30 BEGIN ATOM
M  V30 1 C 6.878641 -7.146291 -1.972108 0
M  V30 2 C 5.915620 -6.054883 -1.636322 0
M  V30 3 C 5.965749 -5.134701 -0.628977 0
M  V30 4 C 4.826707 -4.369764 -0.783651 0
M  V30 5 C 4.468693 -3.251224 0.087528 0
M  V30 6 N 5.133508 -2.761630 1.161305 0
M  V30 7 N 4.498979 -1.738705 1.698618 0
M  V30 8 C 3.390170 -1.554801 0.956358 0
M  V30 9 C 2.404060 -0.600022 1.125094 0
M  V30 10 C 1.375677 -0.650595 0.204240 0
M  V30 11 N 0.247643 0.223436 0.168870 0
M  V30 12 C -1.008181 0.034323 0.828655 0
M  V30 13 O -1.101480 -1.023388 1.505331 0
M  V30 14 N -2.009068 1.003589 0.680914 0
M  V30 15 C -3.286834 0.835261 1.337606 0
M  V30 16 C -4.437193 0.695084 0.380660 0
M  V30 17 C -4.379528 1.625859 -0.786309 0
M  V30 18 C -4.554076 3.068394 -0.510243 0
M  V30 19 O -4.999008 3.383516 0.797789 0
M  V30 20 C -4.324324 3.079453 1.972704 0
M  V30 21 C -4.424372 4.008915 3.016017 0
M  V30 22 C -3.803853 3.811547 4.210327 0
M  V30 23 C -3.042682 2.692453 4.467818 0
M  V30 24 C -2.903756 1.735963 3.479320 0
M  V30 25 C -3.549825 1.977796 2.285984 0
M  V30 26 N 1.312127 -1.559696 -0.802237 0
M  V30 27 C 2.274831 -2.494039 -0.969270 0
M  V30 28 C 3.330295 -2.480941 -0.064964 0
M  V30 29 N 4.145011 -4.837051 -1.846398 0
M  V30 30 O 4.826137 -5.839720 -2.325871 0
M  V30 31 H 7.643267 -6.735248 -2.689587 0
M  V30 32 H 6.366137 -7.988971 -2.468384 0
M  V30 33 H 7.423231 -7.450700 -1.069575 0
M  V30 34 H 6.751131 -5.050076 0.119540 0
M  V30 35 H 4.796041 -1.182240 2.532038 0
M  V30 36 H 2.346588 0.164198 1.877652 0
M  V30 37 H 0.472106 1.063218 -0.433605 0
M  V30 38 H -1.877952 1.860709 0.108384 0
M  V30 39 H -3.236250 -0.130490 1.897824 0
M  V30 40 H -4.427431 -0.341891 -0.011899 0
M  V30 41 H -5.360519 0.824881 0.959760 0
M  V30 42 H -5.147978 1.286025 -1.507638 0
M  V30 43 H -3.399769 1.501694 -1.297619 0
M  V30 44 H -3.657487 3.682814 -0.791022 0
M  V30 45 H -5.358713 3.471525 -1.188006 0
M  V30 46 H -5.033688 4.893607 2.794480 0
M  V30 47 H -3.938177 4.588602 4.962502 0
M  V30 48 H -2.578468 2.603182 5.441307 0
M  V30 49 H -2.321231 0.857421 3.646173 0
M  V30 50 H 2.271017 -3.237838 -1.751850 0
M  V30 END ATOM
M  V30 BEGIN BOND
M  V30 1 1 1 2
M  V30 2 2 2 3
M  V30 3 1 3 4
M  V30 4 1 4 5
M  V30 5 2 5 6
M  V30 6 1 6 7
M  V30 7 1 7 8
M  V30 8 2 8 9
M  V30 9 1 9 10
M  V30 10 1 10 11
M  V30 11 1 11 12
M  V30 12 2 12 13
M  V30 13 1 12 14
M  V30 14 1 14 15
M  V30 15 1 15 16
M  V30 16 1 16 17
M  V30 17 1 17 18
M  V30 18 1 18 19
M  V30 19 1 19 20
M  V30 20 2 20 21
M  V30 21 1 21 22
M  V30 22 2 22 23
M  V30 23 1 23 24
M  V30 24 2 24 25
M  V30 25 2 10 26
M  V30 26 1 26 27
M  V30 27 2 27 28
M  V30 28 2 4 29
M  V30 29 1 29 30
M  V30 30 1 30 2
M  V30 31 1 28 5
M  V30 32 1 28 8
M  V30 33 1 25 15
M  V30 34 1 25 20
M  V30 35 1 1 31
M  V30 36 1 1 32
M  V30 37 1 1 33
M  V30 38 1 3 34
M  V30 39 1 7 35
M  V30 40 1 9 36
M  V30 41 1 11 37
M  V30 42 1 14 38
M  V30 43 1 15 39
M  V30 44 1 16 40
M  V30 45 1 16 41
M  V30 46 1 17 42
M  V30 47 1 17 43
M  V30 48 1 18 44
M  V30 49 1 18 45
M  V30 50 1 21 46
M  V30 51 1 22 47
M  V30 52 1 23 48
M  V30 53 1 24 49
M  V30 54 1 27 50
M  V30 END BOND
M  V30 END CTAB
M  END
>  <Dataset>  (493) 
ChEMBL_Kinases

>  <Ligand_Instance>  (493) 
nan

>  <PDB_ID>  (493) 
nan

>  <Standardized_SMILES>  (493) 
Cc1cc(-c2n[nH]c3cc(NC(=O)NC4CCCOc5ccccc54)ncc23)no1

>  <Name>  (493) 
nan

>  <Pocket>  (493) 
nan

>  <ATP_Site>  (493) 
nan

>  <Peripheral>  (493) 
nan

>  <Num_H_Atoms_ProtBoundConf>  (493) 
nan

>  <Num_Resolved_Atoms>  (493) 
nan

>  <Num_Not_Resolved_Atoms>  (493) 
nan

$$$$
CHEMBL3663126
     RDKit          3D

  0  0  0  0  0  0  0  0  0  0999 V3000
M  V30 BEGIN CTAB
M  V30 COUNTS 49 52 0 0 0
M  V30 BEGIN ATOM
M  V30 1 C -3.450277 -6.346842 1.007294 0
M  V30 2 O -2.224887 -5.734160 1.178290 0
M  V30 3 C -2.343252 -4.427508 1.656672 0
M  V30 4 C -0.944003 -3.878761 1.797251 0 CFG=1
M  V30 5 N -0.926455 -2.521537 2.288295 0
M  V30 6 C -0.341000 -1.550097 1.441902 0
M  V30 7 O 0.157235 -1.816991 0.296354 0
M  V30 8 N -0.296789 -0.184820 1.880348 0
M  V30 9 C 0.264481 0.882998 1.122031 0
M  V30 10 C 1.581244 1.296226 1.175402 0
M  V30 11 C 1.962785 2.352936 0.370107 0
M  V30 12 N 3.147947 2.969402 0.203939 0
M  V30 13 N 2.939709 3.926478 -0.700114 0
M  V30 14 C 1.656592 3.929360 -1.107375 0
M  V30 15 C 1.017070 4.812461 -2.082687 0
M  V30 16 C 1.606809 5.839145 -2.796047 0
M  V30 17 C 0.623477 6.407906 -3.604465 0
M  V30 18 C 0.740013 7.540672 -4.560021 0
M  V30 19 O -0.493027 5.733356 -3.365735 0
M  V30 20 N -0.281240 4.802175 -2.483207 0
M  V30 21 C 0.994324 2.922124 -0.433967 0
M  V30 22 C -0.320195 2.503896 -0.482252 0
M  V30 23 N -0.661891 1.459194 0.325095 0
M  V30 24 C -0.236115 -4.783769 2.743268 0
M  V30 25 C -0.484955 -4.672323 4.099252 0
M  V30 26 C 0.098671 -5.444487 5.091828 0
M  V30 27 C 1.007187 -6.406490 4.676182 0
M  V30 28 F 1.607499 -7.188790 5.599621 0
M  V30 29 C 1.286662 -6.554344 3.338604 0
M  V30 30 C 0.678713 -5.760617 2.391404 0
M  V30 31 H -3.259719 -7.377320 0.625973 0
M  V30 32 H -4.089719 -5.821959 0.273986 0
M  V30 33 H -3.960073 -6.485261 1.988087 0
M  V30 34 H -2.946606 -4.333841 2.568403 0
M  V30 35 H -2.860754 -3.849743 0.844840 0
M  V30 36 H -0.479477 -3.926720 0.807549 0
M  V30 37 H -1.323907 -2.267997 3.217910 0
M  V30 38 H -0.681744 0.122775 2.804862 0
M  V30 39 H 2.233196 0.778144 1.834872 0
M  V30 40 H 4.039048 2.722851 0.700993 0
M  V30 41 H 2.643416 6.161197 -2.751184 0
M  V30 42 H 0.092434 7.386525 -5.445672 0
M  V30 43 H 1.782808 7.584358 -4.982805 0
M  V30 44 H 0.560288 8.481869 -4.041118 0
M  V30 45 H -1.050329 2.977796 -1.127678 0
M  V30 46 H -1.191332 -3.926579 4.440550 0
M  V30 47 H -0.142547 -5.301657 6.121990 0
M  V30 48 H 1.989198 -7.293723 2.980316 0
M  V30 49 H 0.872387 -5.844960 1.316459 0
M  V30 END ATOM
M  V30 BEGIN BOND
M  V30 1 1 1 2
M  V30 2 1 2 3
M  V30 3 1 3 4
M  V30 4 1 4 5
M  V30 5 1 5 6
M  V30 6 2 6 7
M  V30 7 1 6 8
M  V30 8 1 8 9
M  V30 9 2 9 10
M  V30 10 1 10 11
M  V30 11 1 11 12
M  V30 12 1 12 13
M  V30 13 2 13 14
M  V30 14 1 14 15
M  V30 15 1 15 16
M  V30 16 2 16 17
M  V30 17 1 17 18
M  V30 18 1 17 19
M  V30 19 1 19 20
M  V30 20 1 14 21
M  V30 21 1 21 22
M  V30 22 2 22 23
M  V30 23 1 4 24
M  V30 24 2 24 25
M  V30 25 1 25 26
M  V30 26 2 26 27
M  V30 27 1 27 28
M  V30 28 1 27 29
M  V30 29 2 29 30
M  V30 30 1 23 9
M  V30 31 1 30 24
M  V30 32 2 21 11
M  V30 33 2 20 15
M  V30 34 1 1 31
M  V30 35 1 1 32
M  V30 36 1 1 33
M  V30 37 1 3 34
M  V30 38 1 3 35
M  V30 39 1 4 36 CFG=3
M  V30 40 1 5 37
M  V30 41 1 8 38
M  V30 42 1 10 39
M  V30 43 1 12 40
M  V30 44 1 16 41
M  V30 45 1 18 42
M  V30 46 1 18 43
M  V30 47 1 18 44
M  V30 48 1 22 45
M  V30 49 1 25 46
M  V30 50 1 26 47
M  V30 51 1 29 48
M  V30 52 1 30 49
M  V30 END BOND
M  V30 END CTAB
M  END
>  <Dataset>  (494) 
ChEMBL_Kinases

>  <Ligand_Instance>  (494) 
nan

>  <PDB_ID>  (494) 
nan

>  <Standardized_SMILES>  (494) 
COC[C@@H](NC(=O)Nc1cc2[nH]nc(-c3cc(C)on3)c2cn1)c1ccc(F)cc1

>  <Name>  (494) 
nan

>  <Pocket>  (494) 
nan

>  <ATP_Site>  (494) 
nan

>  <Peripheral>  (494) 
nan

>  <Num_H_Atoms_ProtBoundConf>  (494) 
nan

>  <Num_Resolved_Atoms>  (494) 
nan

>  <Num_Not_Resolved_Atoms>  (494) 
nan

$$$$
CHEMBL3663125
     RDKit          3D

  0  0  0  0  0  0  0  0  0  0999 V3000
M  V30 BEGIN CTAB
M  V30 COUNTS 47 50 0 0 0
M  V30 BEGIN ATOM
M  V30 1 C 2.271684 -8.336333 0.463318 0
M  V30 2 C 2.410130 -7.364078 -0.699761 0
M  V30 3 C 1.857847 -5.986334 -0.313758 0
M  V30 4 C 2.779005 -5.068325 -0.997538 0
M  V30 5 C 2.524407 -3.666917 -1.330985 0
M  V30 6 N 3.137367 -2.885006 -2.246027 0
M  V30 7 N 2.605098 -1.662919 -2.237306 0
M  V30 8 C 1.622194 -1.596793 -1.315640 0
M  V30 9 C 0.794474 -0.551953 -0.948395 0
M  V30 10 C -0.131358 -0.825773 0.058676 0
M  V30 11 N -1.044988 0.165649 0.531006 0
M  V30 12 C -0.753525 1.049077 1.611748 0
M  V30 13 O 0.381781 0.890846 2.127034 0
M  V30 14 N -1.760255 1.972884 1.959022 0
M  V30 15 C -1.556961 2.922997 3.055608 0 CFG=2
M  V30 16 C -2.550083 2.722666 4.160859 0
M  V30 17 C -1.687239 4.289012 2.490255 0
M  V30 18 C -2.700918 4.599548 1.637093 0
M  V30 19 C -2.823429 5.874848 1.108626 0
M  V30 20 C -1.908028 6.860923 1.443842 0
M  V30 21 C -0.873434 6.546301 2.313808 0
M  V30 22 C -0.760690 5.274740 2.833798 0
M  V30 23 N -0.185734 -2.051039 0.617664 0
M  V30 24 C 0.629489 -3.059738 0.247550 0
M  V30 25 C 1.569627 -2.854411 -0.745014 0
M  V30 26 N 3.875000 -5.725166 -1.259060 0
M  V30 27 O 3.794040 -7.020929 -0.815463 0
M  V30 28 H 3.216102 -8.915212 0.639823 0
M  V30 29 H 1.478227 -9.059689 0.270169 0
M  V30 30 H 2.094140 -7.703654 1.376523 0
M  V30 31 H 1.978091 -7.741106 -1.634591 0
M  V30 32 H 1.925488 -5.962586 0.792944 0
M  V30 33 H 0.822601 -5.952562 -0.683519 0
M  V30 34 H 2.917095 -0.869100 -2.866691 0
M  V30 35 H 0.836915 0.431247 -1.395820 0
M  V30 36 H -1.932029 0.133878 -0.031093 0
M  V30 37 H -2.666545 2.001311 1.447195 0
M  V30 38 H -0.539993 2.744408 3.479041 0
M  V30 39 H -3.007864 3.696681 4.414321 0
M  V30 40 H -3.386667 2.034166 3.867396 0
M  V30 41 H -2.069952 2.301098 5.085417 0
M  V30 42 H -3.451919 3.884891 1.329640 0
M  V30 43 H -3.594778 6.219622 0.422152 0
M  V30 44 H -1.963941 7.875349 1.054055 0
M  V30 45 H -0.169346 7.343367 2.558353 0
M  V30 46 H 0.063527 5.093091 3.503140 0
M  V30 47 H 0.525434 -4.013249 0.742177 0
M  V30 END ATOM
M  V30 BEGIN BOND
M  V30 1 1 1 2
M  V30 2 1 2 3
M  V30 3 1 3 4
M  V30 4 1 4 5
M  V30 5 2 5 6
M  V30 6 1 6 7
M  V30 7 1 7 8
M  V30 8 2 8 9
M  V30 9 1 9 10
M  V30 10 1 10 11
M  V30 11 1 11 12
M  V30 12 2 12 13
M  V30 13 1 12 14
M  V30 14 1 14 15
M  V30 15 1 15 16
M  V30 16 1 15 17
M  V30 17 2 17 18
M  V30 18 1 18 19
M  V30 19 2 19 20
M  V30 20 1 20 21
M  V30 21 2 21 22
M  V30 22 2 10 23
M  V30 23 1 23 24
M  V30 24 2 24 25
M  V30 25 2 4 26
M  V30 26 1 26 27
M  V30 27 1 27 2
M  V30 28 1 25 5
M  V30 29 1 25 8
M  V30 30 1 22 17
M  V30 31 1 1 28
M  V30 32 1 1 29
M  V30 33 1 1 30
M  V30 34 1 2 31
M  V30 35 1 3 32
M  V30 36 1 3 33
M  V30 37 1 7 34
M  V30 38 1 9 35
M  V30 39 1 11 36
M  V30 40 1 14 37
M  V30 41 1 15 38 CFG=1
M  V30 42 1 16 39
M  V30 43 1 16 40
M  V30 44 1 16 41
M  V30 45 1 18 42
M  V30 46 1 19 43
M  V30 47 1 20 44
M  V30 48 1 21 45
M  V30 49 1 22 46
M  V30 50 1 24 47
M  V30 END BOND
M  V30 END CTAB
M  END
>  <Dataset>  (495) 
ChEMBL_Kinases

>  <Ligand_Instance>  (495) 
nan

>  <PDB_ID>  (495) 
nan

>  <Standardized_SMILES>  (495) 
CC1CC(c2n[nH]c3cc(NC(=O)N[C@H](C)c4ccccc4)ncc23)=NO1

>  <Name>  (495) 
nan

>  <Pocket>  (495) 
nan

>  <ATP_Site>  (495) 
nan

>  <Peripheral>  (495) 
nan

>  <Num_H_Atoms_ProtBoundConf>  (495) 
nan

>  <Num_Resolved_Atoms>  (495) 
nan

>  <Num_Not_Resolved_Atoms>  (495) 
nan

$$$$
CHEMBL3663124
     RDKit          3D

  0  0  0  0  0  0  0  0  0  0999 V3000
M  V30 BEGIN CTAB
M  V30 COUNTS 51 54 0 0 0
M  V30 BEGIN ATOM
M  V30 1 C -0.906159 -3.099634 4.832456 0
M  V30 2 O -0.920162 -4.358369 4.330525 0
M  V30 3 C 0.209603 -4.769249 3.723719 0
M  V30 4 C 0.644858 -4.039226 2.507627 0 CFG=1
M  V30 5 N 0.929053 -2.658763 2.753262 0
M  V30 6 C 0.456533 -1.763903 1.718916 0
M  V30 7 O -0.149852 -2.176323 0.697452 0
M  V30 8 N 0.717285 -0.358542 1.917464 0
M  V30 9 C 0.291093 0.603217 0.954217 0
M  V30 10 C 1.217210 0.871968 -0.037138 0
M  V30 11 C 0.875054 1.794929 -1.007731 0
M  V30 12 N 1.509888 2.286606 -2.089348 0
M  V30 13 N 0.741564 3.166733 -2.709458 0
M  V30 14 C -0.447605 3.290904 -2.050195 0
M  V30 15 C -1.555228 4.166389 -2.429807 0
M  V30 16 N -2.003698 4.147502 -3.661292 0
M  V30 17 O -3.035820 5.038837 -3.797005 0
M  V30 18 C -3.631050 5.120692 -2.495847 0
M  V30 19 C -4.350648 3.803738 -2.295217 0
M  V30 20 C -2.343434 5.141880 -1.682443 0
M  V30 21 C -0.375045 2.420290 -0.961796 0
M  V30 22 C -1.275073 2.123992 0.047558 0
M  V30 23 N -0.917504 1.217087 0.986504 0
M  V30 24 C 1.869995 -4.743910 1.962143 0
M  V30 25 C 1.855507 -5.622091 0.883318 0
M  V30 26 C 3.031458 -6.204422 0.474913 0
M  V30 27 C 4.229644 -5.948846 1.098034 0
M  V30 28 C 4.225597 -5.075413 2.166245 0
M  V30 29 C 3.074557 -4.465040 2.615432 0
M  V30 30 H -0.040764 -3.044086 5.556377 0
M  V30 31 H -0.899107 -2.286909 4.108421 0
M  V30 32 H -1.841440 -3.021426 5.488811 0
M  V30 33 H 1.068194 -4.869690 4.461834 0
M  V30 34 H 0.033878 -5.878968 3.471550 0
M  V30 35 H -0.089225 -4.161795 1.653999 0
M  V30 36 H 1.436734 -2.377312 3.617375 0
M  V30 37 H 1.209678 -0.005224 2.743297 0
M  V30 38 H 2.173749 0.401986 -0.083445 0
M  V30 39 H 2.476907 1.955337 -2.324280 0
M  V30 40 H -4.254657 6.004474 -2.358139 0
M  V30 41 H -3.947205 3.008349 -2.969220 0
M  V30 42 H -5.424513 3.864172 -2.479378 0
M  V30 43 H -4.092113 3.458368 -1.256523 0
M  V30 44 H -1.951237 6.175883 -1.715542 0
M  V30 45 H -2.578596 4.873997 -0.653611 0
M  V30 46 H -2.241083 2.607964 0.082097 0
M  V30 47 H 0.869964 -5.759980 0.459322 0
M  V30 48 H 2.962462 -6.873449 -0.361974 0
M  V30 49 H 5.133117 -6.437568 0.733671 0
M  V30 50 H 5.190513 -4.891214 2.641584 0
M  V30 51 H 3.084830 -3.780648 3.455922 0
M  V30 END ATOM
M  V30 BEGIN BOND
M  V30 1 1 1 2
M  V30 2 1 2 3
M  V30 3 1 3 4
M  V30 4 1 4 5
M  V30 5 1 5 6
M  V30 6 2 6 7
M  V30 7 1 6 8
M  V30 8 1 8 9
M  V30 9 2 9 10
M  V30 10 1 10 11
M  V30 11 1 11 12
M  V30 12 1 12 13
M  V30 13 2 13 14
M  V30 14 1 14 15
M  V30 15 2 15 16
M  V30 16 1 16 17
M  V30 17 1 17 18
M  V30 18 1 18 19
M  V30 19 1 18 20
M  V30 20 1 14 21
M  V30 21 1 21 22
M  V30 22 2 22 23
M  V30 23 1 4 24
M  V30 24 2 24 25
M  V30 25 1 25 26
M  V30 26 2 26 27
M  V30 27 1 27 28
M  V30 28 2 28 29
M  V30 29 1 23 9
M  V30 30 1 29 24
M  V30 31 2 21 11
M  V30 32 1 20 15
M  V30 33 1 1 30
M  V30 34 1 1 31
M  V30 35 1 1 32
M  V30 36 1 3 33
M  V30 37 1 3 34
M  V30 38 1 4 35 CFG=3
M  V30 39 1 5 36
M  V30 40 1 8 37
M  V30 41 1 10 38
M  V30 42 1 12 39
M  V30 43 1 18 40
M  V30 44 1 19 41
M  V30 45 1 19 42
M  V30 46 1 19 43
M  V30 47 1 20 44
M  V30 48 1 20 45
M  V30 49 1 22 46
M  V30 50 1 25 47
M  V30 51 1 26 48
M  V30 52 1 27 49
M  V30 53 1 28 50
M  V30 54 1 29 51
M  V30 END BOND
M  V30 END CTAB
M  END
>  <Dataset>  (496) 
ChEMBL_Kinases

>  <Ligand_Instance>  (496) 
nan

>  <PDB_ID>  (496) 
nan

>  <Standardized_SMILES>  (496) 
COC[C@@H](NC(=O)Nc1cc2[nH]nc(C3=NOC(C)C3)c2cn1)c1ccccc1

>  <Name>  (496) 
nan

>  <Pocket>  (496) 
nan

>  <ATP_Site>  (496) 
nan

>  <Peripheral>  (496) 
nan

>  <Num_H_Atoms_ProtBoundConf>  (496) 
nan

>  <Num_Resolved_Atoms>  (496) 
nan

>  <Num_Not_Resolved_Atoms>  (496) 
nan

$$$$
CHEMBL3663123
     RDKit          3D

  0  0  0  0  0  0  0  0  0  0999 V3000
M  V30 BEGIN CTAB
M  V30 COUNTS 51 53 0 0 0
M  V30 BEGIN ATOM
M  V30 1 C 3.264214 -1.655862 7.627359 0
M  V30 2 C 3.437544 -3.014902 7.046865 0
M  V30 3 C 4.532810 -3.007934 6.017005 0
M  V30 4 C 4.142238 -2.048974 4.938953 0
M  V30 5 O 4.431501 -0.827232 4.867977 0
M  V30 6 C 3.326148 -2.649491 3.860272 0
M  V30 7 N 2.889168 -3.914946 3.699798 0
M  V30 8 N 2.177653 -4.030194 2.589435 0
M  V30 9 C 2.106844 -2.842396 1.955546 0
M  V30 10 C 1.518587 -2.376253 0.795060 0
M  V30 11 C 1.622297 -1.042638 0.384203 0
M  V30 12 N 0.931326 -0.812987 -0.837318 0
M  V30 13 C -0.438933 -0.419188 -0.792578 0
M  V30 14 O -0.973358 -0.291728 0.336902 0
M  V30 15 N -1.282365 -0.149143 -1.931654 0
M  V30 16 C -2.645343 0.240422 -1.771364 0 CFG=2
M  V30 17 C -3.668178 -0.522539 -2.542348 0
M  V30 18 O -3.390873 -0.389771 -3.912888 0
M  V30 19 C -4.403771 -1.138688 -4.553494 0
M  V30 20 C -2.758091 1.647413 -2.274258 0
M  V30 21 C -3.434445 2.677578 -1.654283 0
M  V30 22 C -3.457195 3.938889 -2.232322 0
M  V30 23 C -2.815749 4.224834 -3.436762 0
M  V30 24 F -2.853424 5.447958 -3.972625 0
M  V30 25 C -2.129551 3.212195 -4.081637 0
M  V30 26 C -2.133684 1.992662 -3.479518 0
M  V30 27 N 2.331508 -0.209175 1.176535 0
M  V30 28 C 2.899199 -0.675311 2.303686 0
M  V30 29 C 2.835759 -1.973334 2.764976 0
M  V30 30 H 2.177954 -1.526662 7.909112 0
M  V30 31 H 3.602265 -0.813743 7.009654 0
M  V30 32 H 3.798608 -1.650480 8.622287 0
M  V30 33 H 2.493852 -3.349404 6.525010 0
M  V30 34 H 3.676398 -3.788457 7.831103 0
M  V30 35 H 5.495773 -2.691548 6.517197 0
M  V30 36 H 4.719161 -4.017546 5.610378 0
M  V30 37 H 1.731368 -4.920978 2.250097 0
M  V30 38 H 0.980562 -3.158642 0.259627 0
M  V30 39 H 1.331274 -0.905710 -1.777142 0
M  V30 40 H -0.763326 -0.278244 -2.840780 0
M  V30 41 H -2.854958 0.277197 -0.685798 0
M  V30 42 H -4.633316 0.035411 -2.403752 0
M  V30 43 H -3.848666 -1.552374 -2.272090 0
M  V30 44 H -5.396807 -0.704557 -4.274579 0
M  V30 45 H -4.327594 -2.204304 -4.257796 0
M  V30 46 H -4.315003 -1.010990 -5.645665 0
M  V30 47 H -3.921341 2.436629 -0.728659 0
M  V30 48 H -4.015424 4.712799 -1.684406 0
M  V30 49 H -1.603171 3.348043 -5.021679 0
M  V30 50 H -1.590925 1.184733 -3.987301 0
M  V30 51 H 3.449183 0.062851 2.878320 0
M  V30 END ATOM
M  V30 BEGIN BOND
M  V30 1 1 1 2
M  V30 2 1 2 3
M  V30 3 1 3 4
M  V30 4 2 4 5
M  V30 5 1 4 6
M  V30 6 2 6 7
M  V30 7 1 7 8
M  V30 8 1 8 9
M  V30 9 2 9 10
M  V30 10 1 10 11
M  V30 11 1 11 12
M  V30 12 1 12 13
M  V30 13 2 13 14
M  V30 14 1 13 15
M  V30 15 1 15 16
M  V30 16 1 16 17
M  V30 17 1 17 18
M  V30 18 1 18 19
M  V30 19 1 16 20
M  V30 20 2 20 21
M  V30 21 1 21 22
M  V30 22 2 22 23
M  V30 23 1 23 24
M  V30 24 1 23 25
M  V30 25 2 25 26
M  V30 26 2 11 27
M  V30 27 1 27 28
M  V30 28 2 28 29
M  V30 29 1 29 6
M  V30 30 1 29 9
M  V30 31 1 26 20
M  V30 32 1 1 30
M  V30 33 1 1 31
M  V30 34 1 1 32
M  V30 35 1 2 33
M  V30 36 1 2 34
M  V30 37 1 3 35
M  V30 38 1 3 36
M  V30 39 1 8 37
M  V30 40 1 10 38
M  V30 41 1 12 39
M  V30 42 1 15 40
M  V30 43 1 16 41 CFG=1
M  V30 44 1 17 42
M  V30 45 1 17 43
M  V30 46 1 19 44
M  V30 47 1 19 45
M  V30 48 1 19 46
M  V30 49 1 21 47
M  V30 50 1 22 48
M  V30 51 1 25 49
M  V30 52 1 26 50
M  V30 53 1 28 51
M  V30 END BOND
M  V30 END CTAB
M  END
>  <Dataset>  (497) 
ChEMBL_Kinases

>  <Ligand_Instance>  (497) 
nan

>  <PDB_ID>  (497) 
nan

>  <Standardized_SMILES>  (497) 
CCCC(=O)c1n[nH]c2cc(NC(=O)N[C@H](COC)c3ccc(F)cc3)ncc12

>  <Name>  (497) 
nan

>  <Pocket>  (497) 
nan

>  <ATP_Site>  (497) 
nan

>  <Peripheral>  (497) 
nan

>  <Num_H_Atoms_ProtBoundConf>  (497) 
nan

>  <Num_Resolved_Atoms>  (497) 
nan

>  <Num_Not_Resolved_Atoms>  (497) 
nan

$$$$
CHEMBL3663122
     RDKit          3D

  0  0  0  0  0  0  0  0  0  0999 V3000
M  V30 BEGIN CTAB
M  V30 COUNTS 51 53 0 0 0
M  V30 BEGIN ATOM
M  V30 1 C 2.942370 0.652658 7.174749 0
M  V30 2 C 3.749321 -0.183016 6.184271 0
M  V30 3 C 4.376247 0.801634 5.217070 0
M  V30 4 C 5.190477 0.164028 4.193771 0
M  V30 5 O 6.397735 0.112086 4.567214 0
M  V30 6 C 4.928981 -0.404276 2.886206 0
M  V30 7 N 5.951443 -0.906717 2.159914 0
M  V30 8 N 5.472757 -1.378323 1.005285 0
M  V30 9 C 4.145467 -1.219915 0.904705 0
M  V30 10 C 3.218256 -1.538241 -0.064709 0
M  V30 11 C 1.919569 -1.173462 0.290129 0
M  V30 12 N 0.873466 -1.460224 -0.649092 0
M  V30 13 C -0.496742 -1.149249 -0.428788 0
M  V30 14 O -0.734347 -0.596984 0.659522 0
M  V30 15 N -1.494397 -1.457463 -1.394143 0
M  V30 16 C -2.887419 -1.155742 -1.199790 0 CFG=2
M  V30 17 C -3.771175 -2.379540 -1.298153 0
M  V30 18 O -5.085237 -1.961478 -1.096491 0
M  V30 19 C -5.979223 -3.048060 -1.168863 0
M  V30 20 C -3.308376 -0.226981 -2.282243 0
M  V30 21 C -4.079149 0.909176 -2.051847 0
M  V30 22 C -4.474187 1.773569 -3.051577 0
M  V30 23 C -4.096908 1.521263 -4.368164 0
M  V30 24 C -3.339040 0.409716 -4.616290 0
M  V30 25 C -2.966421 -0.422195 -3.607721 0
M  V30 26 N 1.593103 -0.576520 1.447119 0
M  V30 27 C 2.516060 -0.275866 2.377360 0
M  V30 28 C 3.820343 -0.606798 2.094888 0
M  V30 29 H 3.535806 0.881742 8.093245 0
M  V30 30 H 1.995994 0.161256 7.459740 0
M  V30 31 H 2.679089 1.652329 6.745256 0
M  V30 32 H 2.992574 -0.793614 5.610176 0
M  V30 33 H 4.496763 -0.811255 6.668350 0
M  V30 34 H 3.549877 1.383677 4.766085 0
M  V30 35 H 4.959679 1.548810 5.815230 0
M  V30 36 H 6.106004 -1.810128 0.299895 0
M  V30 37 H 3.505761 -2.010315 -0.970075 0
M  V30 38 H 1.071829 -1.923556 -1.563031 0
M  V30 39 H -1.200036 -1.923937 -2.284304 0
M  V30 40 H -2.968623 -0.660215 -0.221003 0
M  V30 41 H -3.470789 -3.179604 -0.598864 0
M  V30 42 H -3.729040 -2.825646 -2.312361 0
M  V30 43 H -6.998387 -2.681702 -1.007086 0
M  V30 44 H -5.935757 -3.594664 -2.110835 0
M  V30 45 H -5.730689 -3.790145 -0.356293 0
M  V30 46 H -4.361285 1.084304 -1.013232 0
M  V30 47 H -5.067860 2.639380 -2.837261 0
M  V30 48 H -4.395057 2.181339 -5.156310 0
M  V30 49 H -3.048474 0.218295 -5.643082 0
M  V30 50 H -2.368879 -1.289575 -3.838511 0
M  V30 51 H 2.246227 0.193434 3.294595 0
M  V30 END ATOM
M  V30 BEGIN BOND
M  V30 1 1 1 2
M  V30 2 1 2 3
M  V30 3 1 3 4
M  V30 4 2 4 5
M  V30 5 1 4 6
M  V30 6 2 6 7
M  V30 7 1 7 8
M  V30 8 1 8 9
M  V30 9 2 9 10
M  V30 10 1 10 11
M  V30 11 1 11 12
M  V30 12 1 12 13
M  V30 13 2 13 14
M  V30 14 1 13 15
M  V30 15 1 15 16
M  V30 16 1 16 17
M  V30 17 1 17 18
M  V30 18 1 18 19
M  V30 19 1 16 20
M  V30 20 2 20 21
M  V30 21 1 21 22
M  V30 22 2 22 23
M  V30 23 1 23 24
M  V30 24 2 24 25
M  V30 25 2 11 26
M  V30 26 1 26 27
M  V30 27 2 27 28
M  V30 28 1 28 6
M  V30 29 1 28 9
M  V30 30 1 25 20
M  V30 31 1 1 29
M  V30 32 1 1 30
M  V30 33 1 1 31
M  V30 34 1 2 32
M  V30 35 1 2 33
M  V30 36 1 3 34
M  V30 37 1 3 35
M  V30 38 1 8 36
M  V30 39 1 10 37
M  V30 40 1 12 38
M  V30 41 1 15 39
M  V30 42 1 16 40 CFG=1
M  V30 43 1 17 41
M  V30 44 1 17 42
M  V30 45 1 19 43
M  V30 46 1 19 44
M  V30 47 1 19 45
M  V30 48 1 21 46
M  V30 49 1 22 47
M  V30 50 1 23 48
M  V30 51 1 24 49
M  V30 52 1 25 50
M  V30 53 1 27 51
M  V30 END BOND
M  V30 END CTAB
M  END
>  <Dataset>  (498) 
ChEMBL_Kinases

>  <Ligand_Instance>  (498) 
nan

>  <PDB_ID>  (498) 
nan

>  <Standardized_SMILES>  (498) 
CCCC(=O)c1n[nH]c2cc(NC(=O)N[C@H](COC)c3ccccc3)ncc12

>  <Name>  (498) 
nan

>  <Pocket>  (498) 
nan

>  <ATP_Site>  (498) 
nan

>  <Peripheral>  (498) 
nan

>  <Num_H_Atoms_ProtBoundConf>  (498) 
nan

>  <Num_Resolved_Atoms>  (498) 
nan

>  <Num_Not_Resolved_Atoms>  (498) 
nan

$$$$
CHEMBL3663121
     RDKit          3D

  0  0  0  0  0  0  0  0  0  0999 V3000
M  V30 BEGIN CTAB
M  V30 COUNTS 49 52 0 0 0
M  V30 BEGIN ATOM
M  V30 1 C -2.386441 -6.961098 0.619896 0
M  V30 2 O -2.074199 -5.858908 -0.203425 0
M  V30 3 C -1.001677 -5.150315 0.285280 0
M  V30 4 C -0.745387 -3.982629 -0.673904 0 CFG=1
M  V30 5 N 0.392921 -3.213481 -0.173673 0
M  V30 6 C 0.206984 -1.899072 0.344151 0
M  V30 7 O -0.925265 -1.351234 0.393199 0
M  V30 8 N 1.299340 -1.147394 0.829817 0
M  V30 9 C 1.231191 0.168713 1.366966 0
M  V30 10 C 2.380621 0.815270 1.817887 0
M  V30 11 C 2.262795 2.103957 2.335771 0
M  V30 12 N 3.225477 2.908425 2.822911 0
M  V30 13 N 2.656967 4.035154 3.202109 0
M  V30 14 C 1.323177 3.982791 2.969411 0
M  V30 15 C 0.318329 5.008270 3.237455 0
M  V30 16 C 0.558589 6.249820 3.792328 0
M  V30 17 C -0.635919 6.931529 3.887254 0
M  V30 18 C -1.009617 8.296521 4.396434 0
M  V30 19 O -1.554952 6.115385 3.402155 0
M  V30 20 N -1.010300 4.995927 3.022226 0
M  V30 21 C 1.043047 2.748471 2.411237 0
M  V30 22 C -0.056187 2.074622 1.956891 0
M  V30 23 N 0.047581 0.811680 1.447504 0
M  V30 24 C -0.565193 -4.459029 -2.049950 0
M  V30 25 C 0.658701 -5.017711 -2.363606 0
M  V30 26 C 0.932434 -5.501286 -3.643902 0
M  V30 27 C -0.070039 -5.407908 -4.616064 0
M  V30 28 C -1.294637 -4.849901 -4.305585 0
M  V30 29 C -1.543497 -4.375505 -3.024323 0
M  V30 30 H -1.506718 -7.643225 0.672448 0
M  V30 31 H -2.572106 -6.555952 1.650087 0
M  V30 32 H -3.308515 -7.433345 0.276580 0
M  V30 33 H -1.195310 -4.718057 1.280657 0
M  V30 34 H -0.079934 -5.762176 0.379301 0
M  V30 35 H -1.633725 -3.315114 -0.536430 0
M  V30 36 H 1.356857 -3.648100 -0.202187 0
M  V30 37 H 2.232327 -1.618553 0.781184 0
M  V30 38 H 3.333245 0.290055 1.749844 0
M  V30 39 H 4.242730 2.686282 2.891274 0
M  V30 40 H 1.469988 6.692673 4.120810 0
M  V30 41 H -0.106967 8.744520 4.824479 0
M  V30 42 H -1.740976 8.178207 5.242296 0
M  V30 43 H -1.516510 8.897696 3.637334 0
M  V30 44 H -1.000591 2.602943 2.027522 0
M  V30 45 H 1.447121 -5.102474 -1.637221 0
M  V30 46 H 1.888048 -5.942717 -3.906378 0
M  V30 47 H 0.156878 -5.790657 -5.616261 0
M  V30 48 H -2.039229 -4.800021 -5.093385 0
M  V30 49 H -2.498560 -3.940497 -2.782806 0
M  V30 END ATOM
M  V30 BEGIN BOND
M  V30 1 1 1 2
M  V30 2 1 2 3
M  V30 3 1 3 4
M  V30 4 1 4 5
M  V30 5 1 5 6
M  V30 6 2 6 7
M  V30 7 1 6 8
M  V30 8 1 8 9
M  V30 9 2 9 10
M  V30 10 1 10 11
M  V30 11 1 11 12
M  V30 12 1 12 13
M  V30 13 2 13 14
M  V30 14 1 14 15
M  V30 15 1 15 16
M  V30 16 2 16 17
M  V30 17 1 17 18
M  V30 18 1 17 19
M  V30 19 1 19 20
M  V30 20 1 14 21
M  V30 21 1 21 22
M  V30 22 2 22 23
M  V30 23 1 4 24
M  V30 24 2 24 25
M  V30 25 1 25 26
M  V30 26 2 26 27
M  V30 27 1 27 28
M  V30 28 2 28 29
M  V30 29 1 23 9
M  V30 30 1 29 24
M  V30 31 2 21 11
M  V30 32 2 20 15
M  V30 33 1 1 30
M  V30 34 1 1 31
M  V30 35 1 1 32
M  V30 36 1 3 33
M  V30 37 1 3 34
M  V30 38 1 4 35 CFG=3
M  V30 39 1 5 36
M  V30 40 1 8 37
M  V30 41 1 10 38
M  V30 42 1 12 39
M  V30 43 1 16 40
M  V30 44 1 18 41
M  V30 45 1 18 42
M  V30 46 1 18 43
M  V30 47 1 22 44
M  V30 48 1 25 45
M  V30 49 1 26 46
M  V30 50 1 27 47
M  V30 51 1 28 48
M  V30 52 1 29 49
M  V30 END BOND
M  V30 END CTAB
M  END
>  <Dataset>  (499) 
ChEMBL_Kinases

>  <Ligand_Instance>  (499) 
nan

>  <PDB_ID>  (499) 
nan

>  <Standardized_SMILES>  (499) 
COC[C@@H](NC(=O)Nc1cc2[nH]nc(-c3cc(C)on3)c2cn1)c1ccccc1

>  <Name>  (499) 
nan

>  <Pocket>  (499) 
nan

>  <ATP_Site>  (499) 
nan

>  <Peripheral>  (499) 
nan

>  <Num_H_Atoms_ProtBoundConf>  (499) 
nan

>  <Num_Resolved_Atoms>  (499) 
nan

>  <Num_Not_Resolved_Atoms>  (499) 
nan

$$$$
CHEMBL3663120
     RDKit          3D

  0  0  0  0  0  0  0  0  0  0999 V3000
M  V30 BEGIN CTAB
M  V30 COUNTS 45 48 0 0 0
M  V30 BEGIN ATOM
M  V30 1 C -2.638629 -8.790855 -2.373506 0
M  V30 2 C -2.135160 -7.399112 -2.248025 0
M  V30 3 C -1.472113 -6.976688 -1.090254 0
M  V30 4 C -1.138161 -5.651645 -1.289819 0
M  V30 5 C -0.430327 -4.829509 -0.314941 0
M  V30 6 N 0.010316 -5.202373 0.914280 0
M  V30 7 N 0.602908 -4.211157 1.517433 0
M  V30 8 C 0.587826 -3.124509 0.719968 0
M  V30 9 C 1.055081 -1.841808 0.843030 0
M  V30 10 C 0.890275 -0.915615 -0.170136 0
M  V30 11 N 1.408189 0.393043 0.045817 0
M  V30 12 C 0.654428 1.443235 0.637078 0
M  V30 13 O -0.505777 1.115209 0.951231 0
M  V30 14 N 1.235900 2.725100 0.822099 0
M  V30 15 C 0.421772 3.766086 1.432130 0 CFG=2
M  V30 16 C 0.272194 4.862738 0.401025 0
M  V30 17 C 1.032645 4.297369 2.688811 0
M  V30 18 C 2.375391 4.607607 2.760944 0
M  V30 19 C 2.917714 5.099036 3.938583 0
M  V30 20 C 2.144934 5.297213 5.078830 0
M  V30 21 C 0.799814 4.986498 5.006795 0
M  V30 22 C 0.274287 4.501735 3.838791 0
M  V30 23 N 0.246624 -1.315812 -1.301068 0
M  V30 24 C -0.218522 -2.568374 -1.440695 0
M  V30 25 C -0.061892 -3.506204 -0.437281 0
M  V30 26 N -1.594051 -5.333270 -2.514290 0
M  V30 27 O -2.171928 -6.362321 -3.058288 0
M  V30 28 H -1.741264 -9.428958 -2.547340 0
M  V30 29 H -3.366671 -8.901598 -3.199215 0
M  V30 30 H -3.043853 -9.110648 -1.398758 0
M  V30 31 H -1.254440 -7.558001 -0.203526 0
M  V30 32 H 1.036703 -4.225510 2.479444 0
M  V30 33 H 1.561392 -1.599065 1.783360 0
M  V30 34 H 2.397466 0.623116 -0.237252 0
M  V30 35 H 2.212885 2.945658 0.540491 0
M  V30 36 H -0.583360 3.361341 1.667272 0
M  V30 37 H 1.068093 5.637921 0.489760 0
M  V30 38 H 0.408803 4.465252 -0.645647 0
M  V30 39 H -0.753457 5.286735 0.415863 0
M  V30 40 H 3.009479 4.465850 1.890786 0
M  V30 41 H 3.980477 5.339148 3.978630 0
M  V30 42 H 2.646536 5.685411 5.959975 0
M  V30 43 H 0.201146 5.144735 5.904927 0
M  V30 44 H -0.788045 4.276011 3.843593 0
M  V30 45 H -0.726795 -2.846018 -2.360763 0
M  V30 END ATOM
M  V30 BEGIN BOND
M  V30 1 1 1 2
M  V30 2 2 2 3
M  V30 3 1 3 4
M  V30 4 1 4 5
M  V30 5 2 5 6
M  V30 6 1 6 7
M  V30 7 1 7 8
M  V30 8 2 8 9
M  V30 9 1 9 10
M  V30 10 1 10 11
M  V30 11 1 11 12
M  V30 12 2 12 13
M  V30 13 1 12 14
M  V30 14 1 14 15
M  V30 15 1 15 16
M  V30 16 1 15 17
M  V30 17 2 17 18
M  V30 18 1 18 19
M  V30 19 2 19 20
M  V30 20 1 20 21
M  V30 21 2 21 22
M  V30 22 2 10 23
M  V30 23 1 23 24
M  V30 24 2 24 25
M  V30 25 2 4 26
M  V30 26 1 26 27
M  V30 27 1 27 2
M  V30 28 1 25 5
M  V30 29 1 25 8
M  V30 30 1 22 17
M  V30 31 1 1 28
M  V30 32 1 1 29
M  V30 33 1 1 30
M  V30 34 1 3 31
M  V30 35 1 7 32
M  V30 36 1 9 33
M  V30 37 1 11 34
M  V30 38 1 14 35
M  V30 39 1 15 36 CFG=1
M  V30 40 1 16 37
M  V30 41 1 16 38
M  V30 42 1 16 39
M  V30 43 1 18 40
M  V30 44 1 19 41
M  V30 45 1 20 42
M  V30 46 1 21 43
M  V30 47 1 22 44
M  V30 48 1 24 45
M  V30 END BOND
M  V30 END CTAB
M  END
>  <Dataset>  (500) 
ChEMBL_Kinases

>  <Ligand_Instance>  (500) 
nan

>  <PDB_ID>  (500) 
nan

>  <Standardized_SMILES>  (500) 
Cc1cc(-c2n[nH]c3cc(NC(=O)N[C@H](C)c4ccccc4)ncc23)no1

>  <Name>  (500) 
nan

>  <Pocket>  (500) 
nan

>  <ATP_Site>  (500) 
nan

>  <Peripheral>  (500) 
nan

>  <Num_H_Atoms_ProtBoundConf>  (500) 
nan

>  <Num_Resolved_Atoms>  (500) 
nan

>  <Num_Not_Resolved_Atoms>  (500) 
nan

$$$$
CHEMBL3663119
     RDKit          3D

  0  0  0  0  0  0  0  0  0  0999 V3000
M  V30 BEGIN CTAB
M  V30 COUNTS 44 47 0 0 0
M  V30 BEGIN ATOM
M  V30 1 C 2.290560 -9.463056 -0.424644 0
M  V30 2 C 1.912286 -8.033056 -0.519802 0
M  V30 3 N 0.766987 -7.641120 -1.107538 0
M  V30 4 N 0.665806 -6.312187 -1.060970 0
M  V30 5 C 1.751891 -5.880108 -0.442465 0
M  V30 6 C 2.193855 -4.531092 -0.101502 0
M  V30 7 N 3.322649 -4.109480 0.539229 0
M  V30 8 N 3.321522 -2.792655 0.638815 0
M  V30 9 C 2.208552 -2.282054 0.077538 0
M  V30 10 C 1.792774 -0.969775 -0.046794 0
M  V30 11 C 0.583774 -0.757054 -0.682499 0
M  V30 12 N 0.187914 0.606443 -0.792208 0
M  V30 13 C -0.595971 1.086024 0.310874 0
M  V30 14 O -0.925980 0.379375 1.315594 0
M  V30 15 N -1.040413 2.435322 0.295570 0
M  V30 16 C -1.844630 2.986502 1.392055 0 CFG=2
M  V30 17 C -3.181895 3.474723 0.947470 0
M  V30 18 C -1.076103 4.038441 2.119476 0
M  V30 19 C -1.026301 4.109352 3.502949 0
M  V30 20 C -0.331192 5.060960 4.206536 0
M  V30 21 C 0.355087 5.997551 3.470833 0
M  V30 22 C 0.348558 5.985810 2.097633 0
M  V30 23 C -0.362242 5.012791 1.413652 0
M  V30 24 N -0.155400 -1.801539 -1.160541 0
M  V30 25 C 0.277017 -3.074366 -1.024234 0
M  V30 26 C 1.484463 -3.363802 -0.395200 0
M  V30 27 O 2.477472 -6.931254 -0.131212 0
M  V30 28 H 3.169141 -9.625738 0.226663 0
M  V30 29 H 2.551883 -9.839658 -1.436270 0
M  V30 30 H 1.474673 -10.107921 -0.046386 0
M  V30 31 H 4.080372 -2.243099 1.089811 0
M  V30 32 H 2.399434 -0.182478 0.340222 0
M  V30 33 H 0.451530 1.187072 -1.604385 0
M  V30 34 H -0.788275 3.051669 -0.517500 0
M  V30 35 H -1.987907 2.170853 2.130361 0
M  V30 36 H -3.095865 3.729152 -0.128726 0
M  V30 37 H -3.908331 2.642102 1.048093 0
M  V30 38 H -3.490256 4.401430 1.481755 0
M  V30 39 H -1.599313 3.327084 3.996373 0
M  V30 40 H -0.391275 4.981047 5.285018 0
M  V30 41 H 0.900583 6.744422 4.046676 0
M  V30 42 H 0.919586 6.765329 1.584616 0
M  V30 43 H -0.372989 4.995920 0.349463 0
M  V30 44 H -0.316146 -3.898705 -1.406810 0
M  V30 END ATOM
M  V30 BEGIN BOND
M  V30 1 1 1 2
M  V30 2 2 2 3
M  V30 3 1 3 4
M  V30 4 2 4 5
M  V30 5 1 5 6
M  V30 6 2 6 7
M  V30 7 1 7 8
M  V30 8 1 8 9
M  V30 9 2 9 10
M  V30 10 1 10 11
M  V30 11 1 11 12
M  V30 12 1 12 13
M  V30 13 2 13 14
M  V30 14 1 13 15
M  V30 15 1 15 16
M  V30 16 1 16 17
M  V30 17 1 16 18
M  V30 18 2 18 19
M  V30 19 1 19 20
M  V30 20 2 20 21
M  V30 21 1 21 22
M  V30 22 2 22 23
M  V30 23 2 11 24
M  V30 24 1 24 25
M  V30 25 2 25 26
M  V30 26 1 5 27
M  V30 27 1 27 2
M  V30 28 1 26 6
M  V30 29 1 26 9
M  V30 30 1 23 18
M  V30 31 1 1 28
M  V30 32 1 1 29
M  V30 33 1 1 30
M  V30 34 1 8 31
M  V30 35 1 10 32
M  V30 36 1 12 33
M  V30 37 1 15 34
M  V30 38 1 16 35 CFG=1
M  V30 39 1 17 36
M  V30 40 1 17 37
M  V30 41 1 17 38
M  V30 42 1 19 39
M  V30 43 1 20 40
M  V30 44 1 21 41
M  V30 45 1 22 42
M  V30 46 1 23 43
M  V30 47 1 25 44
M  V30 END BOND
M  V30 END CTAB
M  END
>  <Dataset>  (501) 
ChEMBL_Kinases

>  <Ligand_Instance>  (501) 
nan

>  <PDB_ID>  (501) 
nan

>  <Standardized_SMILES>  (501) 
Cc1nnc(-c2n[nH]c3cc(NC(=O)N[C@H](C)c4ccccc4)ncc23)o1

>  <Name>  (501) 
nan

>  <Pocket>  (501) 
nan

>  <ATP_Site>  (501) 
nan

>  <Peripheral>  (501) 
nan

>  <Num_H_Atoms_ProtBoundConf>  (501) 
nan

>  <Num_Resolved_Atoms>  (501) 
nan

>  <Num_Not_Resolved_Atoms>  (501) 
nan

$$$$
CHEMBL3663118
     RDKit          3D

  0  0  0  0  0  0  0  0  0  0999 V3000
M  V30 BEGIN CTAB
M  V30 COUNTS 43 45 0 0 0
M  V30 BEGIN ATOM
M  V30 1 C 1.767959 -4.324490 4.650288 0
M  V30 2 O 0.946760 -4.014436 3.558563 0
M  V30 3 C 1.536831 -3.056410 2.763318 0
M  V30 4 C 0.609180 -2.762961 1.606160 0 CFG=1
M  V30 5 N 1.223304 -1.755302 0.763285 0
M  V30 6 C 0.611340 -0.476984 0.682667 0
M  V30 7 O -0.439305 -0.219367 1.325475 0
M  V30 8 N 1.157444 0.565823 -0.126016 0
M  V30 9 C 0.578608 1.861623 -0.237214 0
M  V30 10 C 1.033932 2.778279 0.688512 0
M  V30 11 C 0.553653 4.071172 0.690508 0
M  V30 12 N 0.733836 5.206214 1.391229 0
M  V30 13 N -0.043595 6.174615 0.907600 0
M  V30 14 C -0.762389 5.685856 -0.138848 0
M  V30 15 C -1.722168 6.559711 -0.875161 0
M  V30 16 F -2.725599 6.956293 0.016918 0
M  V30 17 F -1.116030 7.722783 -1.324018 0
M  V30 18 C -0.388547 4.354220 -0.281232 0
M  V30 19 C -0.861729 3.456595 -1.219460 0
M  V30 20 N -0.353209 2.208547 -1.169239 0
M  V30 21 C 0.239060 -3.959929 0.851237 0
M  V30 22 C 1.226854 -4.388290 -0.018019 0
M  V30 23 C 1.062457 -5.509728 -0.822853 0
M  V30 24 C -0.136816 -6.220915 -0.747674 0
M  V30 25 F -0.334442 -7.334079 -1.528165 0
M  V30 26 C -1.132182 -5.806083 0.114860 0
M  V30 27 C -0.933857 -4.691690 0.895944 0
M  V30 28 H 2.722038 -4.705005 4.272882 0
M  V30 29 H 1.984716 -3.416619 5.267637 0
M  V30 30 H 1.278983 -5.043124 5.334795 0
M  V30 31 H 1.687502 -2.164166 3.403944 0
M  V30 32 H 2.552991 -3.358541 2.407129 0
M  V30 33 H -0.307102 -2.302701 2.071692 0
M  V30 34 H 2.080177 -1.918520 0.220103 0
M  V30 35 H 2.038947 0.305598 -0.647562 0
M  V30 36 H 1.774953 2.541651 1.446692 0
M  V30 37 H 1.405157 5.274941 2.200681 0
M  V30 38 H -2.221331 6.025661 -1.686062 0
M  V30 39 H -1.597365 3.725238 -1.957531 0
M  V30 40 H 2.190121 -3.922843 -0.162617 0
M  V30 41 H 1.810562 -5.874075 -1.512969 0
M  V30 42 H -2.091340 -6.338216 0.204162 0
M  V30 43 H -1.665394 -4.289727 1.607150 0
M  V30 END ATOM
M  V30 BEGIN BOND
M  V30 1 1 1 2
M  V30 2 1 2 3
M  V30 3 1 3 4
M  V30 4 1 4 5
M  V30 5 1 5 6
M  V30 6 2 6 7
M  V30 7 1 6 8
M  V30 8 1 8 9
M  V30 9 2 9 10
M  V30 10 1 10 11
M  V30 11 1 11 12
M  V30 12 1 12 13
M  V30 13 2 13 14
M  V30 14 1 14 15
M  V30 15 1 15 16
M  V30 16 1 15 17
M  V30 17 1 14 18
M  V30 18 1 18 19
M  V30 19 2 19 20
M  V30 20 1 4 21
M  V30 21 2 21 22
M  V30 22 1 22 23
M  V30 23 2 23 24
M  V30 24 1 24 25
M  V30 25 1 24 26
M  V30 26 2 26 27
M  V30 27 1 20 9
M  V30 28 1 27 21
M  V30 29 2 18 11
M  V30 30 1 1 28
M  V30 31 1 1 29
M  V30 32 1 1 30
M  V30 33 1 3 31
M  V30 34 1 3 32
M  V30 35 1 4 33 CFG=1
M  V30 36 1 5 34
M  V30 37 1 8 35
M  V30 38 1 10 36
M  V30 39 1 12 37
M  V30 40 1 15 38
M  V30 41 1 19 39
M  V30 42 1 22 40
M  V30 43 1 23 41
M  V30 44 1 26 42
M  V30 45 1 27 43
M  V30 END BOND
M  V30 END CTAB
M  END
>  <Dataset>  (502) 
ChEMBL_Kinases

>  <Ligand_Instance>  (502) 
nan

>  <PDB_ID>  (502) 
nan

>  <Standardized_SMILES>  (502) 
COC[C@@H](NC(=O)Nc1cc2[nH]nc(C(F)F)c2cn1)c1ccc(F)cc1

>  <Name>  (502) 
nan

>  <Pocket>  (502) 
nan

>  <ATP_Site>  (502) 
nan

>  <Peripheral>  (502) 
nan

>  <Num_H_Atoms_ProtBoundConf>  (502) 
nan

>  <Num_Resolved_Atoms>  (502) 
nan

>  <Num_Not_Resolved_Atoms>  (502) 
nan

$$$$
CHEMBL3663117
     RDKit          3D

  0  0  0  0  0  0  0  0  0  0999 V3000
M  V30 BEGIN CTAB
M  V30 COUNTS 45 48 0 0 0
M  V30 BEGIN ATOM
M  V30 1 C -0.010135 -5.962522 2.083204 0
M  V30 2 C -0.118912 -5.009698 0.940118 0 CFG=1
M  V30 3 N 1.002899 -4.062809 0.869387 0
M  V30 4 C 0.779102 -2.667359 0.999715 0
M  V30 5 O -0.415255 -2.245988 1.179885 0
M  V30 6 N 1.890415 -1.748724 0.928216 0
M  V30 7 C 1.533831 -0.372017 1.073775 0
M  V30 8 C 1.226089 0.314325 -0.089250 0
M  V30 9 C 0.872969 1.651942 -0.011174 0
M  V30 10 N 0.530220 2.555042 -0.950381 0
M  V30 11 N 0.278328 3.715584 -0.364723 0
M  V30 12 C 0.453029 3.593607 0.982861 0
M  V30 13 C 0.276633 4.638927 1.990362 0
M  V30 14 C -0.104400 5.942729 1.716221 0
M  V30 15 C -0.144208 6.569051 2.946251 0
M  V30 16 C -0.523505 8.010785 3.042851 0
M  V30 17 O -1.918021 8.025495 3.203869 0
M  V30 18 O 0.185715 5.716196 3.892583 0
M  V30 19 N 0.437554 4.563331 3.326096 0
M  V30 20 C 0.831677 2.288770 1.231677 0
M  V30 21 C 1.145551 1.568731 2.366472 0
M  V30 22 N 1.490989 0.256192 2.279755 0
M  V30 23 C -0.314729 -5.690295 -0.369139 0
M  V30 24 C 0.811627 -6.171449 -1.034196 0
M  V30 25 C 0.661446 -6.810555 -2.256700 0
M  V30 26 C -0.585805 -6.964981 -2.801542 0
M  V30 27 C -1.676958 -6.479787 -2.121699 0
M  V30 28 N -1.543693 -5.854216 -0.927916 0
M  V30 29 H 0.619554 -5.493838 2.875970 0
M  V30 30 H 0.417337 -6.931037 1.752900 0
M  V30 31 H -1.009529 -6.122863 2.519878 0
M  V30 32 H -1.013578 -4.372324 1.098687 0
M  V30 33 H 1.989953 -4.421174 0.719749 0
M  V30 34 H 2.867207 -2.079881 0.781852 0
M  V30 35 H 1.263571 -0.196982 -1.045950 0
M  V30 36 H 0.489652 2.310320 -1.964482 0
M  V30 37 H -0.310021 6.314676 0.716600 0
M  V30 38 H -0.177435 8.598601 2.189199 0
M  V30 39 H -0.076697 8.469143 3.945199 0
M  V30 40 H -2.361832 8.438790 2.407086 0
M  V30 41 H 1.111938 2.068636 3.330686 0
M  V30 42 H 1.808988 -6.064283 -0.628941 0
M  V30 43 H 1.537628 -7.185675 -2.775600 0
M  V30 44 H -0.720468 -7.463805 -3.759303 0
M  V30 45 H -2.659887 -6.611616 -2.569961 0
M  V30 END ATOM
M  V30 BEGIN BOND
M  V30 1 1 1 2
M  V30 2 1 2 3
M  V30 3 1 3 4
M  V30 4 2 4 5
M  V30 5 1 4 6
M  V30 6 1 6 7
M  V30 7 2 7 8
M  V30 8 1 8 9
M  V30 9 1 9 10
M  V30 10 1 10 11
M  V30 11 2 11 12
M  V30 12 1 12 13
M  V30 13 1 13 14
M  V30 14 2 14 15
M  V30 15 1 15 16
M  V30 16 1 16 17
M  V30 17 1 15 18
M  V30 18 1 18 19
M  V30 19 1 12 20
M  V30 20 1 20 21
M  V30 21 2 21 22
M  V30 22 1 2 23
M  V30 23 2 23 24
M  V30 24 1 24 25
M  V30 25 2 25 26
M  V30 26 1 26 27
M  V30 27 2 27 28
M  V30 28 1 22 7
M  V30 29 1 28 23
M  V30 30 2 20 9
M  V30 31 2 19 13
M  V30 32 1 1 29
M  V30 33 1 1 30
M  V30 34 1 1 31
M  V30 35 1 2 32 CFG=1
M  V30 36 1 3 33
M  V30 37 1 6 34
M  V30 38 1 8 35
M  V30 39 1 10 36
M  V30 40 1 14 37
M  V30 41 1 16 38
M  V30 42 1 16 39
M  V30 43 1 17 40
M  V30 44 1 21 41
M  V30 45 1 24 42
M  V30 46 1 25 43
M  V30 47 1 26 44
M  V30 48 1 27 45
M  V30 END BOND
M  V30 END CTAB
M  END
>  <Dataset>  (503) 
ChEMBL_Kinases

>  <Ligand_Instance>  (503) 
nan

>  <PDB_ID>  (503) 
nan

>  <Standardized_SMILES>  (503) 
C[C@@H](NC(=O)Nc1cc2[nH]nc(-c3cc(CO)on3)c2cn1)c1ccccn1

>  <Name>  (503) 
nan

>  <Pocket>  (503) 
nan

>  <ATP_Site>  (503) 
nan

>  <Peripheral>  (503) 
nan

>  <Num_H_Atoms_ProtBoundConf>  (503) 
nan

>  <Num_Resolved_Atoms>  (503) 
nan

>  <Num_Not_Resolved_Atoms>  (503) 
nan

$$$$
CHEMBL3663116
     RDKit          3D

  0  0  0  0  0  0  0  0  0  0999 V3000
M  V30 BEGIN CTAB
M  V30 COUNTS 38 40 0 0 0
M  V30 BEGIN ATOM
M  V30 1 C 0.881097 -4.305068 1.919879 0
M  V30 2 C -0.025893 -3.091720 2.061328 0 CFG=1
M  V30 3 N -0.151661 -2.547746 0.707785 0
M  V30 4 C 0.434539 -1.284349 0.451219 0
M  V30 5 O 1.026522 -0.692909 1.374928 0
M  V30 6 N 0.310643 -0.750036 -0.879399 0
M  V30 7 C 0.923941 0.522445 -1.062621 0
M  V30 8 C 0.153944 1.662275 -0.826763 0
M  V30 9 C 0.671306 2.931096 -0.980892 0
M  V30 10 N 0.252568 4.195022 -0.851248 0
M  V30 11 N 1.204534 5.065702 -1.137976 0
M  V30 12 C 2.320750 4.397528 -1.477787 0
M  V30 13 C 3.601034 5.038901 -1.864540 0
M  V30 14 F 3.342965 5.745126 -3.032064 0
M  V30 15 F 4.055437 5.948185 -0.928725 0
M  V30 16 C 1.988853 3.068141 -1.380014 0
M  V30 17 C 2.748750 1.923110 -1.612821 0
M  V30 18 N 2.202464 0.704561 -1.449816 0
M  V30 19 C -1.314170 -3.464177 2.658556 0
M  V30 20 C -1.657710 -3.138433 3.959585 0
M  V30 21 C -2.861929 -3.474571 4.550144 0
M  V30 22 C -3.749530 -4.180797 3.753960 0
M  V30 23 C -3.405282 -4.510583 2.441197 0
M  V30 24 N -2.202227 -4.150450 1.916528 0
M  V30 25 H 0.942116 -4.898876 2.849154 0
M  V30 26 H 0.488746 -4.924284 1.084951 0
M  V30 27 H 1.891170 -3.948063 1.589345 0
M  V30 28 H 0.543174 -2.387070 2.714194 0
M  V30 29 H -0.669786 -3.136067 0.021420 0
M  V30 30 H -0.194991 -1.271950 -1.639433 0
M  V30 31 H -0.896685 1.604438 -0.508392 0
M  V30 32 H -0.720636 4.462055 -0.555650 0
M  V30 33 H 4.372465 4.290359 -2.100010 0
M  V30 34 H 3.784052 2.035973 -1.926433 0
M  V30 35 H -0.904903 -2.581183 4.522786 0
M  V30 36 H -3.027692 -3.169665 5.574711 0
M  V30 37 H -4.689506 -4.446412 4.206253 0
M  V30 38 H -4.193751 -5.061645 1.938844 0
M  V30 END ATOM
M  V30 BEGIN BOND
M  V30 1 1 1 2
M  V30 2 1 2 3
M  V30 3 1 3 4
M  V30 4 2 4 5
M  V30 5 1 4 6
M  V30 6 1 6 7
M  V30 7 2 7 8
M  V30 8 1 8 9
M  V30 9 1 9 10
M  V30 10 1 10 11
M  V30 11 2 11 12
M  V30 12 1 12 13
M  V30 13 1 13 14
M  V30 14 1 13 15
M  V30 15 1 12 16
M  V30 16 1 16 17
M  V30 17 2 17 18
M  V30 18 1 2 19
M  V30 19 2 19 20
M  V30 20 1 20 21
M  V30 21 2 21 22
M  V30 22 1 22 23
M  V30 23 2 23 24
M  V30 24 1 18 7
M  V30 25 1 24 19
M  V30 26 2 16 9
M  V30 27 1 1 25
M  V30 28 1 1 26
M  V30 29 1 1 27
M  V30 30 1 2 28 CFG=1
M  V30 31 1 3 29
M  V30 32 1 6 30
M  V30 33 1 8 31
M  V30 34 1 10 32
M  V30 35 1 13 33
M  V30 36 1 17 34
M  V30 37 1 20 35
M  V30 38 1 21 36
M  V30 39 1 22 37
M  V30 40 1 23 38
M  V30 END BOND
M  V30 END CTAB
M  END
>  <Dataset>  (504) 
ChEMBL_Kinases

>  <Ligand_Instance>  (504) 
nan

>  <PDB_ID>  (504) 
nan

>  <Standardized_SMILES>  (504) 
C[C@@H](NC(=O)Nc1cc2[nH]nc(C(F)F)c2cn1)c1ccccn1

>  <Name>  (504) 
nan

>  <Pocket>  (504) 
nan

>  <ATP_Site>  (504) 
nan

>  <Peripheral>  (504) 
nan

>  <Num_H_Atoms_ProtBoundConf>  (504) 
nan

>  <Num_Resolved_Atoms>  (504) 
nan

>  <Num_Not_Resolved_Atoms>  (504) 
nan

$$$$
CHEMBL3663115
     RDKit          3D

  0  0  0  0  0  0  0  0  0  0999 V3000
M  V30 BEGIN CTAB
M  V30 COUNTS 47 50 0 0 0
M  V30 BEGIN ATOM
M  V30 1 C -0.711176 -6.270173 5.215161 0
M  V30 2 O -0.078018 -6.608345 4.020100 0
M  V30 3 C 0.559020 -5.687974 3.212067 0
M  V30 4 C 0.631252 -4.342111 3.508838 0
M  V30 5 C 1.276999 -3.415930 2.687632 0
M  V30 6 C 1.876642 -3.851698 1.519681 0
M  V30 7 C 2.556521 -2.890907 0.650550 0
M  V30 8 N 3.776569 -3.059885 0.067775 0
M  V30 9 N 4.105845 -2.006762 -0.656508 0
M  V30 10 C 3.115744 -1.072882 -0.594731 0
M  V30 11 C 2.914542 0.187356 -1.134603 0
M  V30 12 C 1.744179 0.876680 -0.847654 0
M  V30 13 N 1.485546 2.175456 -1.375893 0
M  V30 14 C 0.275604 2.856873 -1.063215 0
M  V30 15 O -0.541764 2.256907 -0.304793 0
M  V30 16 N 0.033648 4.149283 -1.597350 0
M  V30 17 C -1.185649 4.884960 -1.307539 0
M  V30 18 C -2.107926 4.133601 -0.412423 0
M  V30 19 C -2.125394 4.180926 0.968711 0
M  V30 20 C -3.028628 3.438310 1.695322 0
M  V30 21 C -3.950680 2.618371 1.066361 0
M  V30 22 F -4.853444 1.874176 1.749262 0
M  V30 23 C -3.972786 2.537313 -0.309408 0
M  V30 24 C -3.048465 3.298604 -1.023328 0
M  V30 25 N 0.826362 0.299682 -0.045888 0
M  V30 26 C 1.006674 -0.926623 0.487945 0
M  V30 27 C 2.157755 -1.639639 0.223812 0
M  V30 28 C 1.804168 -5.191535 1.225213 0
M  V30 29 C 1.163025 -6.108348 2.041421 0
M  V30 30 H -0.039535 -6.254600 6.102422 0
M  V30 31 H -1.270662 -5.309064 5.196687 0
M  V30 32 H -1.484954 -7.058081 5.445871 0
M  V30 33 H 0.144762 -4.030588 4.443268 0
M  V30 34 H 1.278832 -2.382458 3.007848 0
M  V30 35 H 4.972724 -1.856551 -1.210061 0
M  V30 36 H 3.662136 0.613988 -1.765295 0
M  V30 37 H 2.150741 2.662152 -1.992304 0
M  V30 38 H 0.704012 4.628099 -2.212526 0
M  V30 39 H -1.730943 5.109091 -2.250509 0
M  V30 40 H -0.951630 5.835803 -0.802572 0
M  V30 41 H -1.394816 4.828658 1.424154 0
M  V30 42 H -3.016756 3.497356 2.777756 0
M  V30 43 H -4.661239 1.921510 -0.858550 0
M  V30 44 H -3.071333 3.230015 -2.108276 0
M  V30 45 H 0.229784 -1.330719 1.123069 0
M  V30 46 H 2.260071 -5.569723 0.322582 0
M  V30 47 H 1.102727 -7.174842 1.811516 0
M  V30 END ATOM
M  V30 BEGIN BOND
M  V30 1 1 1 2
M  V30 2 1 2 3
M  V30 3 2 3 4
M  V30 4 1 4 5
M  V30 5 2 5 6
M  V30 6 1 6 7
M  V30 7 2 7 8
M  V30 8 1 8 9
M  V30 9 1 9 10
M  V30 10 2 10 11
M  V30 11 1 11 12
M  V30 12 1 12 13
M  V30 13 1 13 14
M  V30 14 2 14 15
M  V30 15 1 14 16
M  V30 16 1 16 17
M  V30 17 1 17 18
M  V30 18 2 18 19
M  V30 19 1 19 20
M  V30 20 2 20 21
M  V30 21 1 21 22
M  V30 22 1 21 23
M  V30 23 2 23 24
M  V30 24 2 12 25
M  V30 25 1 25 26
M  V30 26 2 26 27
M  V30 27 1 6 28
M  V30 28 2 28 29
M  V30 29 1 29 3
M  V30 30 1 27 7
M  V30 31 1 27 10
M  V30 32 1 24 18
M  V30 33 1 1 30
M  V30 34 1 1 31
M  V30 35 1 1 32
M  V30 36 1 4 33
M  V30 37 1 5 34
M  V30 38 1 9 35
M  V30 39 1 11 36
M  V30 40 1 13 37
M  V30 41 1 16 38
M  V30 42 1 17 39
M  V30 43 1 17 40
M  V30 44 1 19 41
M  V30 45 1 20 42
M  V30 46 1 23 43
M  V30 47 1 24 44
M  V30 48 1 26 45
M  V30 49 1 28 46
M  V30 50 1 29 47
M  V30 END BOND
M  V30 END CTAB
M  END
>  <Dataset>  (505) 
ChEMBL_Kinases

>  <Ligand_Instance>  (505) 
nan

>  <PDB_ID>  (505) 
nan

>  <Standardized_SMILES>  (505) 
COc1ccc(-c2n[nH]c3cc(NC(=O)NCc4ccc(F)cc4)ncc23)cc1

>  <Name>  (505) 
nan

>  <Pocket>  (505) 
nan

>  <ATP_Site>  (505) 
nan

>  <Peripheral>  (505) 
nan

>  <Num_H_Atoms_ProtBoundConf>  (505) 
nan

>  <Num_Resolved_Atoms>  (505) 
nan

>  <Num_Not_Resolved_Atoms>  (505) 
nan

$$$$
CHEMBL3663097
     RDKit          3D

  0  0  0  0  0  0  0  0  0  0999 V3000
M  V30 BEGIN CTAB
M  V30 COUNTS 63 67 0 0 0
M  V30 BEGIN ATOM
M  V30 1 C 0.898776 0.250864 2.444355 0
M  V30 2 O 0.990138 1.609225 2.114130 0
M  V30 3 C 1.900029 2.085901 1.187640 0
M  V30 4 C 2.775118 1.261552 0.529203 0
M  V30 5 C 3.681760 1.723292 -0.391342 0
M  V30 6 C 3.700117 3.073169 -0.652633 0
M  V30 7 C 2.809954 3.883203 0.022420 0
M  V30 8 F 2.858936 5.211147 -0.263158 0
M  V30 9 C 1.874076 3.437500 0.967089 0
M  V30 10 C 0.991003 4.456290 1.594417 0
M  V30 11 N -0.332691 4.490314 1.099853 0
M  V30 12 C -0.438918 4.689668 -0.287257 0
M  V30 13 C -1.738252 4.398733 -0.943057 0
M  V30 14 C -2.826543 3.872970 -0.073618 0
M  V30 15 C -2.225874 2.933594 0.982816 0 CFG=1
M  V30 16 N -1.577465 1.873516 0.301926 0
M  V30 17 C -1.949444 0.507640 0.405649 0
M  V30 18 O -2.842213 -0.054020 1.046659 0
M  V30 19 N -1.164862 -0.377242 -0.356451 0
M  V30 20 C -1.243011 -1.789822 -0.496283 0
M  V30 21 C -1.966153 -2.510099 -1.425123 0
M  V30 22 C -1.900578 -3.887396 -1.383602 0
M  V30 23 N -2.499760 -4.783702 -2.164083 0
M  V30 24 N -2.127277 -5.981580 -1.732796 0
M  V30 25 C -1.289945 -5.889806 -0.677784 0
M  V30 26 C -0.669210 -6.980705 0.068254 0
M  V30 27 C -0.095347 -8.043093 -0.607408 0
M  V30 28 C 0.484288 -9.061645 0.149847 0
M  V30 29 C 0.522690 -9.079688 1.518842 0
M  V30 30 C 1.110231 -10.112664 2.287774 0
M  V30 31 N 1.606561 -10.971647 2.912619 0
M  V30 32 C -0.057795 -8.005102 2.198018 0
M  V30 33 C -0.631742 -6.995866 1.450771 0
M  V30 34 C -1.134194 -4.538448 -0.440689 0
M  V30 35 C -0.433312 -3.792272 0.461088 0
M  V30 36 N -0.499055 -2.445654 0.418124 0
M  V30 37 C -1.343766 3.829991 1.813152 0
M  V30 38 H 1.010137 -0.374444 1.541991 0
M  V30 39 H 1.669032 0.009017 3.210782 0
M  V30 40 H -0.128214 -0.008596 2.837760 0
M  V30 41 H 2.778504 0.198109 0.720604 0
M  V30 42 H 4.386316 1.120302 -0.933411 0
M  V30 43 H 4.390061 3.499874 -1.366488 0
M  V30 44 H 1.460527 5.457044 1.466480 0
M  V30 45 H 0.953074 4.315324 2.706199 0
M  V30 46 H 0.423145 4.196493 -0.839822 0
M  V30 47 H -0.225232 5.786491 -0.477838 0
M  V30 48 H -2.120785 5.255061 -1.548951 0
M  V30 49 H -1.547651 3.600263 -1.723460 0
M  V30 50 H -3.540218 3.253492 -0.689849 0
M  V30 51 H -3.371528 4.707904 0.381272 0
M  V30 52 H -3.069390 2.603767 1.621009 0
M  V30 53 H -0.786788 2.199001 -0.293714 0
M  V30 54 H -0.364229 -0.093995 -0.963107 0
M  V30 55 H -2.535828 -1.909820 -2.121776 0
M  V30 56 H -3.129073 -4.599434 -2.949444 0
M  V30 57 H -0.089666 -8.094371 -1.698702 0
M  V30 58 H 0.945201 -9.911201 -0.368085 0
M  V30 59 H -0.044591 -7.990348 3.275356 0
M  V30 60 H -1.076415 -6.171036 2.026367 0
M  V30 61 H 0.174237 -4.294075 1.208331 0
M  V30 62 H -2.056623 4.638163 2.174473 0
M  V30 63 H -0.975736 3.386330 2.744954 0
M  V30 END ATOM
M  V30 BEGIN BOND
M  V30 1 1 1 2
M  V30 2 1 2 3
M  V30 3 2 3 4
M  V30 4 1 4 5
M  V30 5 2 5 6
M  V30 6 1 6 7
M  V30 7 1 7 8
M  V30 8 2 7 9
M  V30 9 1 9 10
M  V30 10 1 10 11
M  V30 11 1 11 12
M  V30 12 1 12 13
M  V30 13 1 13 14
M  V30 14 1 14 15
M  V30 15 1 15 16
M  V30 16 1 16 17
M  V30 17 2 17 18
M  V30 18 1 17 19
M  V30 19 1 19 20
M  V30 20 2 20 21
M  V30 21 1 21 22
M  V30 22 1 22 23
M  V30 23 1 23 24
M  V30 24 2 24 25
M  V30 25 1 25 26
M  V30 26 2 26 27
M  V30 27 1 27 28
M  V30 28 2 28 29
M  V30 29 1 29 30
M  V30 30 3 30 31
M  V30 31 1 29 32
M  V30 32 2 32 33
M  V30 33 1 25 34
M  V30 34 1 34 35
M  V30 35 2 35 36
M  V30 36 1 15 37
M  V30 37 1 9 3
M  V30 38 1 37 11
M  V30 39 1 36 20
M  V30 40 2 34 22
M  V30 41 1 33 26
M  V30 42 1 1 38
M  V30 43 1 1 39
M  V30 44 1 1 40
M  V30 45 1 4 41
M  V30 46 1 5 42
M  V30 47 1 6 43
M  V30 48 1 10 44
M  V30 49 1 10 45
M  V30 50 1 12 46
M  V30 51 1 12 47
M  V30 52 1 13 48
M  V30 53 1 13 49
M  V30 54 1 14 50
M  V30 55 1 14 51
M  V30 56 1 15 52 CFG=1
M  V30 57 1 16 53
M  V30 58 1 19 54
M  V30 59 1 21 55
M  V30 60 1 23 56
M  V30 61 1 27 57
M  V30 62 1 28 58
M  V30 63 1 32 59
M  V30 64 1 33 60
M  V30 65 1 35 61
M  V30 66 1 37 62
M  V30 67 1 37 63
M  V30 END BOND
M  V30 END CTAB
M  END
>  <Dataset>  (506) 
ChEMBL_Kinases

>  <Ligand_Instance>  (506) 
nan

>  <PDB_ID>  (506) 
nan

>  <Standardized_SMILES>  (506) 
COc1cccc(F)c1CN1CCC[C@@H](NC(=O)Nc2cc3[nH]nc(-c4ccc(C#N)cc4)c3cn2)C1

>  <Name>  (506) 
nan

>  <Pocket>  (506) 
nan

>  <ATP_Site>  (506) 
nan

>  <Peripheral>  (506) 
nan

>  <Num_H_Atoms_ProtBoundConf>  (506) 
nan

>  <Num_Resolved_Atoms>  (506) 
nan

>  <Num_Not_Resolved_Atoms>  (506) 
nan

$$$$
CHEMBL3663098
     RDKit          3D

  0  0  0  0  0  0  0  0  0  0999 V3000
M  V30 BEGIN CTAB
M  V30 COUNTS 46 49 0 0 0
M  V30 BEGIN ATOM
M  V30 1 C -0.315872 -5.260209 2.057982 0
M  V30 2 C -0.688547 -4.287616 0.959229 0 CFG=1
M  V30 3 N 0.448593 -3.507985 0.510729 0
M  V30 4 C 0.487088 -2.095191 0.666174 0
M  V30 5 O -0.464804 -1.467662 1.199170 0
M  V30 6 N 1.621884 -1.376156 0.211340 0
M  V30 7 C 1.632393 0.037439 0.380307 0
M  V30 8 C 2.692464 0.820353 -0.030853 0
M  V30 9 C 2.703511 2.189482 0.132446 0
M  V30 10 N 3.527023 3.187860 -0.148949 0
M  V30 11 N 3.042037 4.324957 0.218043 0
M  V30 12 C 1.801727 4.211892 0.804583 0
M  V30 13 C 0.990976 5.277580 1.347956 0
M  V30 14 C -0.423813 5.331323 1.556856 0
M  V30 15 C 0.610881 5.623982 2.701239 0
M  V30 16 C 0.618556 4.767594 3.877406 0
M  V30 17 O 0.653822 3.489690 3.925095 0
M  V30 18 O 0.618710 4.161761 5.088457 0
M  V30 19 C 1.631623 2.828988 0.724896 0
M  V30 20 C 0.597272 2.008952 1.118810 0
M  V30 21 N 0.606923 0.696168 0.952360 0
M  V30 22 C -1.375300 -4.946970 -0.181781 0
M  V30 23 C -0.644359 -5.594364 -1.167252 0
M  V30 24 C -1.244143 -6.223657 -2.250877 0
M  V30 25 C -2.627402 -6.205973 -2.354753 0
M  V30 26 C -3.378403 -5.573126 -1.394927 0
M  V30 27 C -2.742484 -4.952363 -0.321741 0
M  V30 28 H 0.688446 -5.686980 1.935052 0
M  V30 29 H -0.322018 -4.729955 3.050458 0
M  V30 30 H -1.088201 -6.059116 2.106807 0
M  V30 31 H -1.445331 -3.587897 1.407378 0
M  V30 32 H 1.241508 -4.022129 0.067817 0
M  V30 33 H 2.455970 -1.810117 -0.241426 0
M  V30 34 H 3.565961 0.367226 -0.504884 0
M  V30 35 H 4.470493 3.098071 -0.615269 0
M  V30 36 H 1.327459 6.256427 0.800062 0
M  V30 37 H -1.026807 6.250331 1.263341 0
M  V30 38 H -1.158673 4.564343 1.807356 0
M  V30 39 H 0.586593 6.716308 3.035961 0
M  V30 40 H 0.580102 4.722742 5.946062 0
M  V30 41 H -0.252210 2.444066 1.576824 0
M  V30 42 H 0.448017 -5.593853 -1.061617 0
M  V30 43 H -0.622181 -6.717833 -2.996987 0
M  V30 44 H -3.098496 -6.704280 -3.212430 0
M  V30 45 H -4.473496 -5.556053 -1.472150 0
M  V30 46 H -3.369195 -4.464520 0.413599 0
M  V30 END ATOM
M  V30 BEGIN BOND
M  V30 1 1 1 2
M  V30 2 1 2 3
M  V30 3 1 3 4
M  V30 4 2 4 5
M  V30 5 1 4 6
M  V30 6 1 6 7
M  V30 7 2 7 8
M  V30 8 1 8 9
M  V30 9 1 9 10
M  V30 10 1 10 11
M  V30 11 2 11 12
M  V30 12 1 12 13
M  V30 13 1 13 14
M  V30 14 1 14 15
M  V30 15 1 15 16
M  V30 16 2 16 17
M  V30 17 1 16 18
M  V30 18 1 12 19
M  V30 19 1 19 20
M  V30 20 2 20 21
M  V30 21 1 2 22
M  V30 22 2 22 23
M  V30 23 1 23 24
M  V30 24 2 24 25
M  V30 25 1 25 26
M  V30 26 2 26 27
M  V30 27 1 21 7
M  V30 28 1 27 22
M  V30 29 2 19 9
M  V30 30 1 15 13
M  V30 31 1 1 28
M  V30 32 1 1 29
M  V30 33 1 1 30
M  V30 34 1 2 31 CFG=1
M  V30 35 1 3 32
M  V30 36 1 6 33
M  V30 37 1 8 34
M  V30 38 1 10 35
M  V30 39 1 13 36
M  V30 40 1 14 37
M  V30 41 1 14 38
M  V30 42 1 15 39
M  V30 43 1 18 40
M  V30 44 1 20 41
M  V30 45 1 23 42
M  V30 46 1 24 43
M  V30 47 1 25 44
M  V30 48 1 26 45
M  V30 49 1 27 46
M  V30 END BOND
M  V30 END CTAB
M  END
>  <Dataset>  (507) 
ChEMBL_Kinases

>  <Ligand_Instance>  (507) 
nan

>  <PDB_ID>  (507) 
nan

>  <Standardized_SMILES>  (507) 
C[C@@H](NC(=O)Nc1cc2[nH]nc(C3CC3C(=O)O)c2cn1)c1ccccc1

>  <Name>  (507) 
nan

>  <Pocket>  (507) 
nan

>  <ATP_Site>  (507) 
nan

>  <Peripheral>  (507) 
nan

>  <Num_H_Atoms_ProtBoundConf>  (507) 
nan

>  <Num_Resolved_Atoms>  (507) 
nan

>  <Num_Not_Resolved_Atoms>  (507) 
nan

$$$$
CHEMBL3663099
     RDKit          3D

  0  0  0  0  0  0  0  0  0  0999 V3000
M  V30 BEGIN CTAB
M  V30 COUNTS 49 52 0 0 0
M  V30 BEGIN ATOM
M  V30 1 C -1.741314 -2.425524 -7.678040 0
M  V30 2 O -1.531591 -2.220720 -6.306663 0
M  V30 3 C -0.862406 -3.082626 -5.469499 0
M  V30 4 C -0.713278 -2.787221 -4.151177 0
M  V30 5 C -0.037358 -3.667588 -3.329441 0
M  V30 6 C 0.213323 -3.510627 -1.902024 0
M  V30 7 N 0.047648 -4.497682 -0.987420 0
M  V30 8 N 0.353611 -4.053491 0.228360 0
M  V30 9 C 0.731902 -2.747746 0.141155 0
M  V30 10 C 1.147536 -1.774355 1.028762 0
M  V30 11 C 1.469610 -0.485835 0.593094 0
M  V30 12 N 1.861273 0.323257 1.693208 0
M  V30 13 C 0.817702 1.033221 2.364367 0
M  V30 14 O -0.375618 0.911935 1.946831 0
M  V30 15 N 0.990393 1.881550 3.482061 0
M  V30 16 C -0.180233 2.548071 4.075485 0 CFG=2
M  V30 17 C 0.116887 4.029119 4.050023 0
M  V30 18 C -0.337782 2.146356 5.500131 0
M  V30 19 C 0.729714 2.110797 6.373960 0
M  V30 20 C 0.471715 1.712238 7.691501 0
M  V30 21 C -0.824546 1.367120 8.087899 0
M  V30 22 C -1.878956 1.408714 7.200830 0
M  V30 23 C -1.627039 1.802516 5.898229 0
M  V30 24 N 1.366100 -0.206422 -0.728098 0
M  V30 25 C 0.964299 -1.131723 -1.618341 0
M  V30 26 C 0.644028 -2.409663 -1.191155 0
M  V30 27 C 0.445685 -4.796421 -3.902483 0
M  V30 28 C 0.299775 -5.102840 -5.232014 0
M  V30 29 N -0.363131 -4.221562 -5.997888 0
M  V30 30 H -0.923997 -3.056648 -8.112973 0
M  V30 31 H -2.715365 -2.940484 -7.911553 0
M  V30 32 H -1.829240 -1.433864 -8.157426 0
M  V30 33 H -1.096817 -1.877018 -3.666225 0
M  V30 34 H 0.323045 -4.588272 1.133005 0
M  V30 35 H 1.183120 -2.146022 2.060521 0
M  V30 36 H 2.820758 0.479730 2.101648 0
M  V30 37 H 1.948525 2.011259 3.854284 0
M  V30 38 H -1.064258 2.321399 3.484412 0
M  V30 39 H 1.156945 4.253137 4.393689 0
M  V30 40 H 0.072245 4.415329 2.997823 0
M  V30 41 H -0.556938 4.609448 4.719385 0
M  V30 42 H 1.711783 2.377194 6.051825 0
M  V30 43 H 1.258597 1.660998 8.430326 0
M  V30 44 H -1.099643 1.050343 9.082119 0
M  V30 45 H -2.902369 1.152447 7.453150 0
M  V30 46 H -2.459254 1.839760 5.179178 0
M  V30 47 H 0.902760 -0.845620 -2.658681 0
M  V30 48 H 0.995227 -5.551075 -3.329123 0
M  V30 49 H 0.669829 -5.992342 -5.721440 0
M  V30 END ATOM
M  V30 BEGIN BOND
M  V30 1 1 1 2
M  V30 2 1 2 3
M  V30 3 2 3 4
M  V30 4 1 4 5
M  V30 5 1 5 6
M  V30 6 2 6 7
M  V30 7 1 7 8
M  V30 8 1 8 9
M  V30 9 2 9 10
M  V30 10 1 10 11
M  V30 11 1 11 12
M  V30 12 1 12 13
M  V30 13 2 13 14
M  V30 14 1 13 15
M  V30 15 1 15 16
M  V30 16 1 16 17
M  V30 17 1 16 18
M  V30 18 2 18 19
M  V30 19 1 19 20
M  V30 20 2 20 21
M  V30 21 1 21 22
M  V30 22 2 22 23
M  V30 23 2 11 24
M  V30 24 1 24 25
M  V30 25 2 25 26
M  V30 26 2 5 27
M  V30 27 1 27 28
M  V30 28 2 28 29
M  V30 29 1 29 3
M  V30 30 1 26 6
M  V30 31 1 26 9
M  V30 32 1 23 18
M  V30 33 1 1 30
M  V30 34 1 1 31
M  V30 35 1 1 32
M  V30 36 1 4 33
M  V30 37 1 8 34
M  V30 38 1 10 35
M  V30 39 1 12 36
M  V30 40 1 15 37
M  V30 41 1 16 38 CFG=3
M  V30 42 1 17 39
M  V30 43 1 17 40
M  V30 44 1 17 41
M  V30 45 1 19 42
M  V30 46 1 20 43
M  V30 47 1 21 44
M  V30 48 1 22 45
M  V30 49 1 23 46
M  V30 50 1 25 47
M  V30 51 1 27 48
M  V30 52 1 28 49
M  V30 END BOND
M  V30 END CTAB
M  END
>  <Dataset>  (508) 
ChEMBL_Kinases

>  <Ligand_Instance>  (508) 
nan

>  <PDB_ID>  (508) 
nan

>  <Standardized_SMILES>  (508) 
COc1cc(-c2n[nH]c3cc(NC(=O)N[C@H](C)c4ccccc4)ncc23)ccn1

>  <Name>  (508) 
nan

>  <Pocket>  (508) 
nan

>  <ATP_Site>  (508) 
nan

>  <Peripheral>  (508) 
nan

>  <Num_H_Atoms_ProtBoundConf>  (508) 
nan

>  <Num_Resolved_Atoms>  (508) 
nan

>  <Num_Not_Resolved_Atoms>  (508) 
nan

$$$$
CHEMBL3663100
     RDKit          3D

  0  0  0  0  0  0  0  0  0  0999 V3000
M  V30 BEGIN CTAB
M  V30 COUNTS 68 73 0 0 0
M  V30 BEGIN ATOM
M  V30 1 C 3.653294 0.433715 3.001928 0
M  V30 2 O 4.037402 1.338908 1.992753 0
M  V30 3 C 3.790877 2.683402 2.053278 0
M  V30 4 C 3.137663 3.255769 3.125455 0
M  V30 5 C 2.878501 4.610240 3.208088 0
M  V30 6 C 3.298971 5.406389 2.163561 0
M  V30 7 C 3.951931 4.834687 1.091735 0
M  V30 8 F 4.323425 5.697761 0.121274 0
M  V30 9 C 4.224637 3.470647 0.986164 0
M  V30 10 C 4.932147 2.963660 -0.217655 0
M  V30 11 N 4.148610 2.313835 -1.177453 0
M  V30 12 C 3.076767 2.990806 -1.790489 0
M  V30 13 C 2.836424 2.538907 -3.208175 0
M  V30 14 C 2.937909 1.039530 -3.389028 0
M  V30 15 C 2.948978 0.446749 -1.998194 0 CFG=1
M  V30 16 N 2.755788 -0.963462 -1.975861 0
M  V30 17 C 1.567801 -1.474115 -1.405355 0
M  V30 18 O 0.634386 -0.798443 -0.902666 0
M  V30 19 N 1.310431 -2.882025 -1.348014 0
M  V30 20 C 0.131818 -3.458830 -0.798868 0
M  V30 21 C -0.072051 -4.819133 -0.747292 0
M  V30 22 C -1.248947 -5.341657 -0.207229 0
M  V30 23 N -1.678802 -6.605644 -0.046321 0
M  V30 24 N -2.879216 -6.571679 0.522451 0
M  V30 25 C -3.240981 -5.284554 0.736625 0
M  V30 26 C -4.478008 -4.789177 1.333909 0
M  V30 27 C -4.856291 -5.463719 2.476528 0
M  V30 28 C -6.019837 -5.083929 3.129104 0
M  V30 29 C -6.772287 -4.048476 2.630263 0
M  V30 30 N -7.908718 -3.459970 3.011667 0
M  V30 31 N -8.235453 -2.482810 2.178463 0
M  V30 32 C -9.415191 -1.647647 2.311115 0
M  V30 33 C -7.308031 -2.397100 1.206975 0
M  V30 34 C -6.378812 -3.382600 1.483648 0
M  V30 35 C -5.209425 -3.743086 0.803120 0
M  V30 36 C -2.225793 -4.465805 0.284286 0
M  V30 37 C -1.950572 -3.119652 0.198675 0
M  V30 38 N -0.815737 -2.619177 -0.322096 0
M  V30 39 C 4.233017 0.924740 -1.358945 0
M  V30 40 H 3.861251 0.864295 4.020176 0
M  V30 41 H 4.374759 -0.431167 2.904554 0
M  V30 42 H 2.611716 0.095672 2.924413 0
M  V30 43 H 2.806719 2.608850 3.953631 0
M  V30 44 H 2.360777 4.965558 4.087888 0
M  V30 45 H 3.100619 6.469002 2.218436 0
M  V30 46 H 5.717145 2.244495 0.161480 0
M  V30 47 H 5.471106 3.821859 -0.670204 0
M  V30 48 H 2.138031 3.018367 -1.193842 0
M  V30 49 H 3.370769 4.081646 -1.861701 0
M  V30 50 H 3.563576 3.078588 -3.856733 0
M  V30 51 H 1.819730 2.916614 -3.523500 0
M  V30 52 H 2.042806 0.724747 -3.981945 0
M  V30 53 H 3.884268 0.843593 -3.945995 0
M  V30 54 H 2.091999 0.935664 -1.473914 0
M  V30 55 H 3.443274 -1.649945 -2.358463 0
M  V30 56 H 2.030974 -3.555434 -1.741788 0
M  V30 57 H 0.712348 -5.429781 -1.138595 0
M  V30 58 H -1.140764 -7.454869 -0.329171 0
M  V30 59 H -4.312436 -6.287147 2.924002 0
M  V30 60 H -6.371156 -5.572219 4.029165 0
M  V30 61 H -9.896272 -1.747030 3.288924 0
M  V30 62 H -10.158829 -1.850752 1.485319 0
M  V30 63 H -9.187893 -0.555332 2.196069 0
M  V30 64 H -7.278421 -1.707887 0.375034 0
M  V30 65 H -4.865126 -3.256382 -0.088129 0
M  V30 66 H -2.708790 -2.445967 0.580574 0
M  V30 67 H 4.527784 0.308792 -0.492692 0
M  V30 68 H 5.056185 0.738252 -2.115655 0
M  V30 END ATOM
M  V30 BEGIN BOND
M  V30 1 1 1 2
M  V30 2 1 2 3
M  V30 3 2 3 4
M  V30 4 1 4 5
M  V30 5 2 5 6
M  V30 6 1 6 7
M  V30 7 1 7 8
M  V30 8 2 7 9
M  V30 9 1 9 10
M  V30 10 1 10 11
M  V30 11 1 11 12
M  V30 12 1 12 13
M  V30 13 1 13 14
M  V30 14 1 14 15
M  V30 15 1 15 16
M  V30 16 1 16 17
M  V30 17 2 17 18
M  V30 18 1 17 19
M  V30 19 1 19 20
M  V30 20 2 20 21
M  V30 21 1 21 22
M  V30 22 1 22 23
M  V30 23 1 23 24
M  V30 24 2 24 25
M  V30 25 1 25 26
M  V30 26 1 26 27
M  V30 27 2 27 28
M  V30 28 1 28 29
M  V30 29 2 29 30
M  V30 30 1 30 31
M  V30 31 1 31 32
M  V30 32 1 31 33
M  V30 33 2 33 34
M  V30 34 1 34 35
M  V30 35 1 25 36
M  V30 36 1 36 37
M  V30 37 2 37 38
M  V30 38 1 15 39
M  V30 39 1 9 3
M  V30 40 1 39 11
M  V30 41 1 38 20
M  V30 42 2 36 22
M  V30 43 2 35 26
M  V30 44 1 34 29
M  V30 45 1 1 40
M  V30 46 1 1 41
M  V30 47 1 1 42
M  V30 48 1 4 43
M  V30 49 1 5 44
M  V30 50 1 6 45
M  V30 51 1 10 46
M  V30 52 1 10 47
M  V30 53 1 12 48
M  V30 54 1 12 49
M  V30 55 1 13 50
M  V30 56 1 13 51
M  V30 57 1 14 52
M  V30 58 1 14 53
M  V30 59 1 15 54 CFG=1
M  V30 60 1 16 55
M  V30 61 1 19 56
M  V30 62 1 21 57
M  V30 63 1 23 58
M  V30 64 1 27 59
M  V30 65 1 28 60
M  V30 66 1 32 61
M  V30 67 1 32 62
M  V30 68 1 32 63
M  V30 69 1 33 64
M  V30 70 1 35 65
M  V30 71 1 37 66
M  V30 72 1 39 67
M  V30 73 1 39 68
M  V30 END BOND
M  V30 END CTAB
M  END
>  <Dataset>  (509) 
ChEMBL_Kinases

>  <Ligand_Instance>  (509) 
nan

>  <PDB_ID>  (509) 
nan

>  <Standardized_SMILES>  (509) 
COc1cccc(F)c1CN1CCC[C@@H](NC(=O)Nc2cc3[nH]nc(-c4ccc5nn(C)cc5c4)c3cn2)C1

>  <Name>  (509) 
nan

>  <Pocket>  (509) 
nan

>  <ATP_Site>  (509) 
nan

>  <Peripheral>  (509) 
nan

>  <Num_H_Atoms_ProtBoundConf>  (509) 
nan

>  <Num_Resolved_Atoms>  (509) 
nan

>  <Num_Not_Resolved_Atoms>  (509) 
nan

$$$$
CHEMBL3663101
     RDKit          3D

  0  0  0  0  0  0  0  0  0  0999 V3000
M  V30 BEGIN CTAB
M  V30 COUNTS 46 49 0 0 0
M  V30 BEGIN ATOM
M  V30 1 C -0.062016 -5.005255 3.691459 0
M  V30 2 C -0.848721 -4.246475 2.624300 0 CFG=1
M  V30 3 N 0.094766 -3.781973 1.615053 0
M  V30 4 C 0.269749 -2.396970 1.480768 0
M  V30 5 O -0.334233 -1.510464 2.175073 0
M  V30 6 N 1.193143 -1.917204 0.494017 0
M  V30 7 C 1.391639 -0.515316 0.334795 0
M  V30 8 C 2.353015 0.183456 1.039077 0
M  V30 9 C 2.572727 1.540398 0.910027 0
M  V30 10 N 3.397082 2.458226 1.436765 0
M  V30 11 N 3.142343 3.634700 0.920324 0
M  V30 12 C 2.143521 3.586724 0.024360 0
M  V30 13 C 1.684882 4.750441 -0.674231 0
M  V30 14 C 2.286200 5.895649 -0.405243 0
M  V30 15 N 1.945455 7.123661 -1.012293 0
M  V30 16 C 0.903635 7.275926 -1.995654 0
M  V30 17 N 0.293099 5.995074 -2.240186 0
M  V30 18 C 0.651380 4.924907 -1.655494 0
M  V30 19 C 1.801556 2.265076 0.033765 0
M  V30 20 C 0.851250 1.572759 -0.662027 0
M  V30 21 N 0.672648 0.252836 -0.504584 0
M  V30 22 C -1.932184 -5.081164 2.061847 0
M  V30 23 C -3.291635 -4.983313 2.358373 0
M  V30 24 C -4.213174 -5.817293 1.771441 0
M  V30 25 C -3.787608 -6.782100 0.861040 0
M  V30 26 F -4.735508 -7.592528 0.298812 0
M  V30 27 C -2.434572 -6.889669 0.557002 0
M  V30 28 C -1.531438 -6.040425 1.160148 0
M  V30 29 H 1.021333 -4.998955 3.451568 0
M  V30 30 H -0.444117 -6.065580 3.712212 0
M  V30 31 H -0.192290 -4.565377 4.704453 0
M  V30 32 H -1.280372 -3.361241 3.130620 0
M  V30 33 H 0.618716 -4.459516 1.016486 0
M  V30 34 H 1.752554 -2.509606 -0.139744 0
M  V30 35 H 2.980524 -0.359183 1.740709 0
M  V30 36 H 4.131309 2.269885 2.149545 0
M  V30 37 H 3.110446 6.019479 0.313697 0
M  V30 38 H 2.405541 8.023385 -0.812272 0
M  V30 39 H 0.161321 8.006431 -1.598552 0
M  V30 40 H 1.315490 7.635435 -2.981946 0
M  V30 41 H 0.078297 4.096234 -1.975496 0
M  V30 42 H 0.215433 2.063628 -1.358674 0
M  V30 43 H -3.528422 -4.194227 3.085697 0
M  V30 44 H -5.249982 -5.698895 2.035902 0
M  V30 45 H -2.194284 -7.671643 -0.164649 0
M  V30 46 H -0.490201 -6.176407 0.879611 0
M  V30 END ATOM
M  V30 BEGIN BOND
M  V30 1 1 1 2
M  V30 2 1 2 3
M  V30 3 1 3 4
M  V30 4 2 4 5
M  V30 5 1 4 6
M  V30 6 1 6 7
M  V30 7 2 7 8
M  V30 8 1 8 9
M  V30 9 1 9 10
M  V30 10 1 10 11
M  V30 11 2 11 12
M  V30 12 1 12 13
M  V30 13 2 13 14
M  V30 14 1 14 15
M  V30 15 1 15 16
M  V30 16 1 16 17
M  V30 17 2 17 18
M  V30 18 1 12 19
M  V30 19 1 19 20
M  V30 20 2 20 21
M  V30 21 1 2 22
M  V30 22 2 22 23
M  V30 23 1 23 24
M  V30 24 2 24 25
M  V30 25 1 25 26
M  V30 26 1 25 27
M  V30 27 2 27 28
M  V30 28 1 21 7
M  V30 29 1 28 22
M  V30 30 2 19 9
M  V30 31 1 18 13
M  V30 32 1 1 29
M  V30 33 1 1 30
M  V30 34 1 1 31
M  V30 35 1 2 32 CFG=1
M  V30 36 1 3 33
M  V30 37 1 6 34
M  V30 38 1 8 35
M  V30 39 1 10 36
M  V30 40 1 14 37
M  V30 41 1 15 38
M  V30 42 1 16 39
M  V30 43 1 16 40
M  V30 44 1 18 41
M  V30 45 1 20 42
M  V30 46 1 23 43
M  V30 47 1 24 44
M  V30 48 1 27 45
M  V30 49 1 28 46
M  V30 END BOND
M  V30 END CTAB
M  END
>  <Dataset>  (510) 
ChEMBL_Kinases

>  <Ligand_Instance>  (510) 
nan

>  <PDB_ID>  (510) 
nan

>  <Standardized_SMILES>  (510) 
C[C@@H](NC(=O)Nc1cc2[nH]nc(C3=CNCN=C3)c2cn1)c1ccc(F)cc1

>  <Name>  (510) 
nan

>  <Pocket>  (510) 
nan

>  <ATP_Site>  (510) 
nan

>  <Peripheral>  (510) 
nan

>  <Num_H_Atoms_ProtBoundConf>  (510) 
nan

>  <Num_Resolved_Atoms>  (510) 
nan

>  <Num_Not_Resolved_Atoms>  (510) 
nan

$$$$
CHEMBL3663102
     RDKit          3D

  0  0  0  0  0  0  0  0  0  0999 V3000
M  V30 BEGIN CTAB
M  V30 COUNTS 45 48 0 0 0
M  V30 BEGIN ATOM
M  V30 1 C -3.490551 -4.026179 0.107511 0
M  V30 2 C -2.885473 -2.961722 0.956329 0 CFG=1
M  V30 3 N -2.555684 -1.748167 0.231431 0
M  V30 4 C -1.190187 -1.339289 0.265302 0
M  V30 5 O -0.249127 -1.898368 0.842309 0
M  V30 6 N -0.922967 -0.137149 -0.466345 0
M  V30 7 C 0.399240 0.438128 -0.548422 0
M  V30 8 C 0.710407 1.591207 -1.242281 0
M  V30 9 C 2.017186 2.052697 -1.249126 0
M  V30 10 N 2.593197 3.124090 -1.829425 0
M  V30 11 N 3.886930 3.098873 -1.516401 0
M  V30 12 C 4.184589 2.038667 -0.743450 0
M  V30 13 C 5.492451 1.664181 -0.194975 0
M  V30 14 C 6.675847 1.644800 -0.899638 0
M  V30 15 N 7.823229 1.280922 -0.264123 0
M  V30 16 C 7.858565 0.935639 1.031857 0
M  V30 17 C 6.718871 0.928539 1.808728 0
M  V30 18 F 6.741112 0.585529 3.104511 0
M  V30 19 C 5.549407 1.301711 1.152777 0
M  V30 20 C 3.002072 1.352332 -0.558550 0
M  V30 21 C 2.653345 0.206490 0.121640 0
M  V30 22 N 1.381002 -0.229570 0.119362 0
M  V30 23 C -3.837378 -2.547454 2.044930 0
M  V30 24 C -4.877582 -1.685227 1.751578 0
M  V30 25 C -5.750878 -1.313015 2.778041 0
M  V30 26 C -5.504196 -1.842314 4.024229 0
M  V30 27 F -6.328459 -1.504603 5.048121 0
M  V30 28 C -4.482911 -2.704624 4.369217 0
M  V30 29 C -3.634141 -3.054248 3.326789 0
M  V30 30 H -4.420446 -3.750704 -0.391881 0
M  V30 31 H -3.716497 -4.889460 0.783868 0
M  V30 32 H -2.737575 -4.412258 -0.602203 0
M  V30 33 H -1.962635 -3.392381 1.424473 0
M  V30 34 H -3.305490 -1.231273 -0.274328 0
M  V30 35 H -1.663622 0.390563 -0.978532 0
M  V30 36 H -0.096066 2.092814 -1.759762 0
M  V30 37 H 2.070699 3.817875 -2.410615 0
M  V30 38 H 6.635617 1.924909 -1.945388 0
M  V30 39 H 8.793489 0.645460 1.524655 0
M  V30 40 H 4.665387 1.285721 1.810005 0
M  V30 41 H 3.386986 -0.368305 0.667727 0
M  V30 42 H -5.053635 -1.282647 0.772028 0
M  V30 43 H -6.600824 -0.639088 2.649804 0
M  V30 44 H -4.354645 -3.079034 5.374642 0
M  V30 45 H -2.789824 -3.737073 3.503725 0
M  V30 END ATOM
M  V30 BEGIN BOND
M  V30 1 1 1 2
M  V30 2 1 2 3
M  V30 3 1 3 4
M  V30 4 2 4 5
M  V30 5 1 4 6
M  V30 6 1 6 7
M  V30 7 2 7 8
M  V30 8 1 8 9
M  V30 9 1 9 10
M  V30 10 1 10 11
M  V30 11 2 11 12
M  V30 12 1 12 13
M  V30 13 2 13 14
M  V30 14 1 14 15
M  V30 15 2 15 16
M  V30 16 1 16 17
M  V30 17 1 17 18
M  V30 18 2 17 19
M  V30 19 1 12 20
M  V30 20 1 20 21
M  V30 21 2 21 22
M  V30 22 1 2 23
M  V30 23 2 23 24
M  V30 24 1 24 25
M  V30 25 2 25 26
M  V30 26 1 26 27
M  V30 27 1 26 28
M  V30 28 2 28 29
M  V30 29 1 22 7
M  V30 30 1 29 23
M  V30 31 2 20 9
M  V30 32 1 19 13
M  V30 33 1 1 30
M  V30 34 1 1 31
M  V30 35 1 1 32
M  V30 36 1 2 33 CFG=1
M  V30 37 1 3 34
M  V30 38 1 6 35
M  V30 39 1 8 36
M  V30 40 1 10 37
M  V30 41 1 14 38
M  V30 42 1 16 39
M  V30 43 1 19 40
M  V30 44 1 21 41
M  V30 45 1 24 42
M  V30 46 1 25 43
M  V30 47 1 28 44
M  V30 48 1 29 45
M  V30 END BOND
M  V30 END CTAB
M  END
>  <Dataset>  (511) 
ChEMBL_Kinases

>  <Ligand_Instance>  (511) 
nan

>  <PDB_ID>  (511) 
nan

>  <Standardized_SMILES>  (511) 
C[C@@H](NC(=O)Nc1cc2[nH]nc(-c3cncc(F)c3)c2cn1)c1ccc(F)cc1

>  <Name>  (511) 
nan

>  <Pocket>  (511) 
nan

>  <ATP_Site>  (511) 
nan

>  <Peripheral>  (511) 
nan

>  <Num_H_Atoms_ProtBoundConf>  (511) 
nan

>  <Num_Resolved_Atoms>  (511) 
nan

>  <Num_Not_Resolved_Atoms>  (511) 
nan

$$$$
CHEMBL3663103
     RDKit          3D

  0  0  0  0  0  0  0  0  0  0999 V3000
M  V30 BEGIN CTAB
M  V30 COUNTS 42 44 0 0 0
M  V30 BEGIN ATOM
M  V30 1 C -0.531144 -4.971058 2.270177 0
M  V30 2 C 0.436515 -4.003061 1.682572 0 CFG=1
M  V30 3 N 0.177026 -2.624412 2.110028 0
M  V30 4 C -0.148221 -1.493691 1.352573 0
M  V30 5 O -0.229574 -1.696070 0.117681 0
M  V30 6 N -0.351951 -0.252600 2.024762 0
M  V30 7 C -0.680390 0.862847 1.198464 0
M  V30 8 C -1.946337 1.295111 0.816707 0
M  V30 9 C -2.050772 2.406181 0.004676 0
M  V30 10 N -3.173426 2.984373 -0.474946 0
M  V30 11 N -2.781558 4.017210 -1.203343 0
M  V30 12 C -1.449695 4.141233 -1.222040 0
M  V30 13 C -0.592273 5.144254 -1.905365 0
M  V30 14 C 0.366706 4.509894 -2.898165 0
M  V30 15 F 0.156100 5.824986 -0.988079 0
M  V30 16 F -1.432401 5.989645 -2.612439 0
M  V30 17 C -0.946383 3.102807 -0.441587 0
M  V30 18 C 0.302017 2.645046 -0.042256 0
M  V30 19 N 0.382080 1.559651 0.749849 0
M  V30 20 C 1.857703 -4.366585 1.980454 0
M  V30 21 C 2.324719 -5.524808 2.548688 0
M  V30 22 C 3.680270 -5.678381 2.745462 0
M  V30 23 C 4.624043 -4.740540 2.409381 0
M  V30 24 F 5.938642 -4.971724 2.637527 0
M  V30 25 C 4.146314 -3.565303 1.832428 0
M  V30 26 C 2.791959 -3.398147 1.629642 0
M  V30 27 H -0.247061 -5.975667 1.909831 0
M  V30 28 H -0.528993 -5.004176 3.369967 0
M  V30 29 H -1.535843 -4.737089 1.872077 0
M  V30 30 H 0.324991 -4.020775 0.578883 0
M  V30 31 H 0.273337 -2.582312 3.148989 0
M  V30 32 H -0.272360 -0.137721 3.054592 0
M  V30 33 H -2.755351 0.695027 1.208728 0
M  V30 34 H -4.173930 2.698329 -0.320946 0
M  V30 35 H -0.013775 3.489054 -3.156423 0
M  V30 36 H 0.447402 5.075329 -3.849991 0
M  V30 37 H 1.370881 4.416542 -2.439805 0
M  V30 38 H 1.166737 3.189414 -0.390695 0
M  V30 39 H 1.564049 -6.247961 2.804790 0
M  V30 40 H 4.033407 -6.593977 3.193286 0
M  V30 41 H 4.848826 -2.801568 1.552613 0
M  V30 42 H 2.492607 -2.451853 1.172968 0
M  V30 END ATOM
M  V30 BEGIN BOND
M  V30 1 1 1 2
M  V30 2 1 2 3
M  V30 3 1 3 4
M  V30 4 2 4 5
M  V30 5 1 4 6
M  V30 6 1 6 7
M  V30 7 2 7 8
M  V30 8 1 8 9
M  V30 9 1 9 10
M  V30 10 1 10 11
M  V30 11 2 11 12
M  V30 12 1 12 13
M  V30 13 1 13 14
M  V30 14 1 13 15
M  V30 15 1 13 16
M  V30 16 1 12 17
M  V30 17 1 17 18
M  V30 18 2 18 19
M  V30 19 1 2 20
M  V30 20 2 20 21
M  V30 21 1 21 22
M  V30 22 2 22 23
M  V30 23 1 23 24
M  V30 24 1 23 25
M  V30 25 2 25 26
M  V30 26 1 19 7
M  V30 27 1 26 20
M  V30 28 2 17 9
M  V30 29 1 1 27
M  V30 30 1 1 28
M  V30 31 1 1 29
M  V30 32 1 2 30 CFG=3
M  V30 33 1 3 31
M  V30 34 1 6 32
M  V30 35 1 8 33
M  V30 36 1 10 34
M  V30 37 1 14 35
M  V30 38 1 14 36
M  V30 39 1 14 37
M  V30 40 1 18 38
M  V30 41 1 21 39
M  V30 42 1 22 40
M  V30 43 1 25 41
M  V30 44 1 26 42
M  V30 END BOND
M  V30 END CTAB
M  END
>  <Dataset>  (512) 
ChEMBL_Kinases

>  <Ligand_Instance>  (512) 
nan

>  <PDB_ID>  (512) 
nan

>  <Standardized_SMILES>  (512) 
C[C@@H](NC(=O)Nc1cc2[nH]nc(C(C)(F)F)c2cn1)c1ccc(F)cc1

>  <Name>  (512) 
nan

>  <Pocket>  (512) 
nan

>  <ATP_Site>  (512) 
nan

>  <Peripheral>  (512) 
nan

>  <Num_H_Atoms_ProtBoundConf>  (512) 
nan

>  <Num_Resolved_Atoms>  (512) 
nan

>  <Num_Not_Resolved_Atoms>  (512) 
nan

$$$$
CHEMBL3663104
     RDKit          3D

  0  0  0  0  0  0  0  0  0  0999 V3000
M  V30 BEGIN CTAB
M  V30 COUNTS 42 44 0 0 0
M  V30 BEGIN ATOM
M  V30 1 C -0.871383 -4.355441 2.785982 0
M  V30 2 C -0.361320 -2.930663 2.798900 0 CFG=1
M  V30 3 N -1.058913 -2.207218 1.758680 0
M  V30 4 C -0.402130 -1.499054 0.702240 0
M  V30 5 O 0.862528 -1.609066 0.827372 0
M  V30 6 N -1.109314 -0.793790 -0.311035 0
M  V30 7 C -0.187194 -0.189118 -1.223384 0
M  V30 8 C 0.337856 -0.734525 -2.375295 0
M  V30 9 C 1.217224 0.035292 -3.108037 0
M  V30 10 N 1.850965 -0.271693 -4.248686 0
M  V30 11 N 2.595756 0.787357 -4.579956 0
M  V30 12 C 2.431624 1.749227 -3.657331 0
M  V30 13 C 3.040465 3.121248 -3.568211 0
M  V30 14 C 3.815776 3.160044 -2.255514 0
M  V30 15 F 2.044097 4.058077 -3.452746 0
M  V30 16 F 3.879226 3.369298 -4.627476 0
M  V30 17 C 1.551707 1.309281 -2.689302 0
M  V30 18 C 1.007363 1.827335 -1.528748 0
M  V30 19 N 0.141935 1.054363 -0.818543 0
M  V30 20 C -0.644605 -2.354489 4.152552 0
M  V30 21 C 0.348087 -2.129475 5.088264 0
M  V30 22 C -0.023074 -1.593978 6.306510 0
M  V30 23 C -1.349418 -1.289415 6.587896 0
M  V30 24 C -2.333359 -1.517910 5.646608 0
M  V30 25 C -1.969642 -2.059678 4.409746 0
M  V30 26 H -1.711527 -4.487169 3.527762 0
M  V30 27 H -1.270695 -4.675102 1.813351 0
M  V30 28 H -0.051479 -5.001419 3.160246 0
M  V30 29 H 0.728476 -2.851279 2.651507 0
M  V30 30 H -2.121511 -2.212669 1.796961 0
M  V30 31 H -2.165369 -0.811268 -0.255303 0
M  V30 32 H 0.000482 -1.734040 -2.594714 0
M  V30 33 H 1.788807 -1.161885 -4.790984 0
M  V30 34 H 3.554598 4.026650 -1.632437 0
M  V30 35 H 3.626038 2.265365 -1.631481 0
M  V30 36 H 4.917284 3.242870 -2.453949 0
M  V30 37 H 1.288481 2.835820 -1.221064 0
M  V30 38 H 1.368792 -2.381278 4.827605 0
M  V30 39 H 0.774224 -1.429492 7.016941 0
M  V30 40 H -1.520534 -0.874696 7.574277 0
M  V30 41 H -3.357841 -1.269940 5.896166 0
M  V30 42 H -2.797590 -2.209021 3.726341 0
M  V30 END ATOM
M  V30 BEGIN BOND
M  V30 1 1 1 2
M  V30 2 1 2 3
M  V30 3 1 3 4
M  V30 4 2 4 5
M  V30 5 1 4 6
M  V30 6 1 6 7
M  V30 7 2 7 8
M  V30 8 1 8 9
M  V30 9 1 9 10
M  V30 10 1 10 11
M  V30 11 2 11 12
M  V30 12 1 12 13
M  V30 13 1 13 14
M  V30 14 1 13 15
M  V30 15 1 13 16
M  V30 16 1 12 17
M  V30 17 1 17 18
M  V30 18 2 18 19
M  V30 19 1 2 20
M  V30 20 2 20 21
M  V30 21 1 21 22
M  V30 22 2 22 23
M  V30 23 1 23 24
M  V30 24 2 24 25
M  V30 25 1 19 7
M  V30 26 1 25 20
M  V30 27 2 17 9
M  V30 28 1 1 26
M  V30 29 1 1 27
M  V30 30 1 1 28
M  V30 31 1 2 29 CFG=3
M  V30 32 1 3 30
M  V30 33 1 6 31
M  V30 34 1 8 32
M  V30 35 1 10 33
M  V30 36 1 14 34
M  V30 37 1 14 35
M  V30 38 1 14 36
M  V30 39 1 18 37
M  V30 40 1 21 38
M  V30 41 1 22 39
M  V30 42 1 23 40
M  V30 43 1 24 41
M  V30 44 1 25 42
M  V30 END BOND
M  V30 END CTAB
M  END
>  <Dataset>  (513) 
ChEMBL_Kinases

>  <Ligand_Instance>  (513) 
nan

>  <PDB_ID>  (513) 
nan

>  <Standardized_SMILES>  (513) 
C[C@@H](NC(=O)Nc1cc2[nH]nc(C(C)(F)F)c2cn1)c1ccccc1

>  <Name>  (513) 
nan

>  <Pocket>  (513) 
nan

>  <ATP_Site>  (513) 
nan

>  <Peripheral>  (513) 
nan

>  <Num_H_Atoms_ProtBoundConf>  (513) 
nan

>  <Num_Resolved_Atoms>  (513) 
nan

>  <Num_Not_Resolved_Atoms>  (513) 
nan

$$$$
CHEMBL3663114
     RDKit          3D

  0  0  0  0  0  0  0  0  0  0999 V3000
M  V30 BEGIN CTAB
M  V30 COUNTS 50 53 0 0 0
M  V30 BEGIN ATOM
M  V30 1 C 2.483845 -9.281269 -1.629926 0
M  V30 2 O 3.390881 -8.215682 -1.830725 0
M  V30 3 C 2.993410 -6.890534 -1.894412 0
M  V30 4 C 3.927598 -5.889888 -2.093517 0
M  V30 5 C 3.609593 -4.548993 -2.168117 0
M  V30 6 C 2.272478 -4.167177 -2.036735 0
M  V30 7 C 1.870909 -2.763371 -2.106721 0
M  V30 8 N 2.305175 -1.864659 -3.031191 0
M  V30 9 N 1.739508 -0.669950 -2.804436 0
M  V30 10 C 0.927957 -0.791518 -1.720639 0
M  V30 11 C 0.119218 0.120756 -1.067254 0
M  V30 12 C -0.611743 -0.282328 0.030593 0
M  V30 13 N -1.481198 0.549459 0.794144 0
M  V30 14 C -0.985454 1.274808 1.913629 0
M  V30 15 O 0.218707 1.216631 2.273414 0
M  V30 16 N -1.924859 2.079137 2.616886 0
M  V30 17 C -1.534524 2.869322 3.782336 0 CFG=2
M  V30 18 C -2.281494 2.425593 5.021643 0
M  V30 19 C -1.794988 4.309942 3.524216 0
M  V30 20 C -1.385018 4.757660 2.274614 0
M  V30 21 C -1.562046 6.078814 1.891407 0
M  V30 22 C -2.156593 6.975206 2.761801 0
M  V30 23 C -2.554828 6.510481 3.993851 0
M  V30 24 C -2.389578 5.202564 4.397169 0
M  V30 25 N -0.516719 -1.561526 0.438194 0
M  V30 26 C 0.257944 -2.482606 -0.168104 0
M  V30 27 C 0.997998 -2.095747 -1.270897 0
M  V30 28 C 1.341967 -5.164639 -1.838413 0
M  V30 29 C 1.660520 -6.508836 -1.763591 0
M  V30 30 H 2.924348 -10.260857 -1.807658 0
M  V30 31 H 2.041780 -9.152978 -0.620405 0
M  V30 32 H 1.667590 -9.129974 -2.388559 0
M  V30 33 H 4.957873 -6.203176 -2.193078 0
M  V30 34 H 4.378223 -3.800517 -2.325510 0
M  V30 35 H 1.887742 0.199709 -3.352540 0
M  V30 36 H 0.025150 1.148560 -1.371804 0
M  V30 37 H -2.499194 0.601156 0.493112 0
M  V30 38 H -2.936916 2.171420 2.370532 0
M  V30 39 H -0.461525 2.711717 3.964691 0
M  V30 40 H -2.097939 1.367040 5.238747 0
M  V30 41 H -1.851497 2.998930 5.868374 0
M  V30 42 H -3.365199 2.672537 4.972835 0
M  V30 43 H -0.910737 4.157279 1.510627 0
M  V30 44 H -1.271598 6.504627 0.940010 0
M  V30 45 H -2.364358 8.026369 2.616671 0
M  V30 46 H -3.033765 7.121211 4.762951 0
M  V30 47 H -2.687681 4.797745 5.354061 0
M  V30 48 H 0.312380 -3.503619 0.184662 0
M  V30 49 H 0.287357 -4.953749 -1.727323 0
M  V30 50 H 0.960825 -7.306519 -1.610349 0
M  V30 END ATOM
M  V30 BEGIN BOND
M  V30 1 1 1 2
M  V30 2 1 2 3
M  V30 3 2 3 4
M  V30 4 1 4 5
M  V30 5 2 5 6
M  V30 6 1 6 7
M  V30 7 2 7 8
M  V30 8 1 8 9
M  V30 9 1 9 10
M  V30 10 2 10 11
M  V30 11 1 11 12
M  V30 12 1 12 13
M  V30 13 1 13 14
M  V30 14 2 14 15
M  V30 15 1 14 16
M  V30 16 1 16 17
M  V30 17 1 17 18
M  V30 18 1 17 19
M  V30 19 2 19 20
M  V30 20 1 20 21
M  V30 21 2 21 22
M  V30 22 1 22 23
M  V30 23 2 23 24
M  V30 24 2 12 25
M  V30 25 1 25 26
M  V30 26 2 26 27
M  V30 27 1 6 28
M  V30 28 2 28 29
M  V30 29 1 29 3
M  V30 30 1 27 7
M  V30 31 1 27 10
M  V30 32 1 24 19
M  V30 33 1 1 30
M  V30 34 1 1 31
M  V30 35 1 1 32
M  V30 36 1 4 33
M  V30 37 1 5 34
M  V30 38 1 9 35
M  V30 39 1 11 36
M  V30 40 1 13 37
M  V30 41 1 16 38
M  V30 42 1 17 39 CFG=1
M  V30 43 1 18 40
M  V30 44 1 18 41
M  V30 45 1 18 42
M  V30 46 1 20 43
M  V30 47 1 21 44
M  V30 48 1 22 45
M  V30 49 1 23 46
M  V30 50 1 24 47
M  V30 51 1 26 48
M  V30 52 1 28 49
M  V30 53 1 29 50
M  V30 END BOND
M  V30 END CTAB
M  END
>  <Dataset>  (514) 
ChEMBL_Kinases

>  <Ligand_Instance>  (514) 
nan

>  <PDB_ID>  (514) 
nan

>  <Standardized_SMILES>  (514) 
COc1ccc(-c2n[nH]c3cc(NC(=O)N[C@H](C)c4ccccc4)ncc23)cc1

>  <Name>  (514) 
nan

>  <Pocket>  (514) 
nan

>  <ATP_Site>  (514) 
nan

>  <Peripheral>  (514) 
nan

>  <Num_H_Atoms_ProtBoundConf>  (514) 
nan

>  <Num_Resolved_Atoms>  (514) 
nan

>  <Num_Not_Resolved_Atoms>  (514) 
nan

$$$$
CHEMBL3663106
     RDKit          3D

  0  0  0  0  0  0  0  0  0  0999 V3000
M  V30 BEGIN CTAB
M  V30 COUNTS 39 41 0 0 0
M  V30 BEGIN ATOM
M  V30 1 C 1.051156 -5.921933 -0.989834 0
M  V30 2 C 1.771901 -5.410319 0.203865 0
M  V30 3 F 0.899037 -5.425853 1.300200 0
M  V30 4 F 2.787610 -6.314475 0.552313 0
M  V30 5 C 2.407822 -4.089912 0.046744 0
M  V30 6 N 3.700591 -3.735848 0.163086 0
M  V30 7 N 3.843608 -2.457176 -0.050369 0
M  V30 8 C 2.669287 -1.871812 -0.321567 0
M  V30 9 C 2.326519 -0.569440 -0.607988 0
M  V30 10 C 0.986457 -0.342313 -0.839311 0
M  V30 11 N 0.387714 0.912501 -1.138465 0
M  V30 12 C -0.124415 1.681988 -0.057955 0
M  V30 13 O -0.031908 1.233627 1.094812 0
M  V30 14 N -0.748003 2.950535 -0.199019 0
M  V30 15 C -1.296421 3.780633 0.846839 0
M  V30 16 C -1.508278 3.037484 2.109197 0
M  V30 17 C -0.609348 2.940387 3.166184 0
M  V30 18 C -0.939648 2.191871 4.299607 0
M  V30 19 C -2.174494 1.552288 4.345864 0
M  V30 20 F -2.385069 0.847029 5.508555 0
M  V30 21 C -3.082560 1.629400 3.318013 0
M  V30 22 C -2.743775 2.382318 2.185706 0
M  V30 23 N 0.089560 -1.356544 -0.781153 0
M  V30 24 C 0.411320 -2.624515 -0.503127 0
M  V30 25 C 1.744830 -2.897575 -0.264081 0
M  V30 26 H -0.034426 -5.742586 -0.854002 0
M  V30 27 H 1.428597 -5.617028 -1.967464 0
M  V30 28 H 1.131723 -7.049324 -0.965914 0
M  V30 29 H 4.754082 -1.945792 -0.016201 0
M  V30 30 H 2.993988 0.252160 -0.664999 0
M  V30 31 H 0.244285 1.409065 -2.063057 0
M  V30 32 H -0.831919 3.354752 -1.160649 0
M  V30 33 H -0.537706 4.576060 1.067996 0
M  V30 34 H -2.262068 4.236039 0.542224 0
M  V30 35 H 0.296367 3.490383 2.970505 0
M  V30 36 H -0.181724 2.173920 5.069433 0
M  V30 37 H -4.018388 1.098633 3.445394 0
M  V30 38 H -3.506499 2.397097 1.420211 0
M  V30 39 H -0.322841 -3.396530 -0.465478 0
M  V30 END ATOM
M  V30 BEGIN BOND
M  V30 1 1 1 2
M  V30 2 1 2 3
M  V30 3 1 2 4
M  V30 4 1 2 5
M  V30 5 2 5 6
M  V30 6 1 6 7
M  V30 7 1 7 8
M  V30 8 2 8 9
M  V30 9 1 9 10
M  V30 10 1 10 11
M  V30 11 1 11 12
M  V30 12 2 12 13
M  V30 13 1 12 14
M  V30 14 1 14 15
M  V30 15 1 15 16
M  V30 16 2 16 17
M  V30 17 1 17 18
M  V30 18 2 18 19
M  V30 19 1 19 20
M  V30 20 1 19 21
M  V30 21 2 21 22
M  V30 22 2 10 23
M  V30 23 1 23 24
M  V30 24 2 24 25
M  V30 25 1 25 5
M  V30 26 1 25 8
M  V30 27 1 22 16
M  V30 28 1 1 26
M  V30 29 1 1 27
M  V30 30 1 1 28
M  V30 31 1 7 29
M  V30 32 1 9 30
M  V30 33 1 11 31
M  V30 34 1 14 32
M  V30 35 1 15 33
M  V30 36 1 15 34
M  V30 37 1 17 35
M  V30 38 1 18 36
M  V30 39 1 21 37
M  V30 40 1 22 38
M  V30 41 1 24 39
M  V30 END BOND
M  V30 END CTAB
M  END
>  <Dataset>  (515) 
ChEMBL_Kinases

>  <Ligand_Instance>  (515) 
nan

>  <PDB_ID>  (515) 
nan

>  <Standardized_SMILES>  (515) 
CC(F)(F)c1n[nH]c2cc(NC(=O)NCc3ccc(F)cc3)ncc12

>  <Name>  (515) 
nan

>  <Pocket>  (515) 
nan

>  <ATP_Site>  (515) 
nan

>  <Peripheral>  (515) 
nan

>  <Num_H_Atoms_ProtBoundConf>  (515) 
nan

>  <Num_Resolved_Atoms>  (515) 
nan

>  <Num_Not_Resolved_Atoms>  (515) 
nan

$$$$
CHEMBL3663107
     RDKit          3D

  0  0  0  0  0  0  0  0  0  0999 V3000
M  V30 BEGIN CTAB
M  V30 COUNTS 39 41 0 0 0
M  V30 BEGIN ATOM
M  V30 1 C 0.400837 -4.307629 2.459415 0
M  V30 2 C -0.330177 -3.043460 2.047174 0 CFG=1
M  V30 3 N 0.206684 -2.555221 0.787164 0
M  V30 4 C 0.803814 -1.282256 0.643191 0
M  V30 5 O 0.811841 -0.628114 1.738630 0
M  V30 6 N 1.329520 -0.801869 -0.586554 0
M  V30 7 C 1.878043 0.507520 -0.477613 0
M  V30 8 C 0.971202 1.519513 -0.721864 0
M  V30 9 C 1.353226 2.848945 -0.654400 0
M  V30 10 N 0.737263 4.032777 -0.830326 0
M  V30 11 N 1.606146 5.001396 -0.635415 0
M  V30 12 C 2.824317 4.523359 -0.325092 0
M  V30 13 C 4.060724 5.299447 -0.035553 0
M  V30 14 F 4.338534 6.057132 -1.174680 0
M  V30 15 F 3.837659 6.107441 1.051419 0
M  V30 16 C 2.681217 3.151372 -0.332724 0
M  V30 17 C 3.557509 2.100469 -0.095228 0
M  V30 18 N 3.167376 0.794640 -0.165170 0
M  V30 19 C -1.789253 -3.310730 1.914638 0
M  V30 20 C -2.299137 -3.980288 0.819094 0
M  V30 21 C -3.655638 -4.197542 0.752720 0
M  V30 22 C -4.562566 -3.793591 1.708474 0
M  V30 23 F -5.893610 -4.012435 1.633028 0
M  V30 24 C -4.048088 -3.118813 2.812411 0
M  V30 25 C -2.694168 -2.892830 2.895308 0
M  V30 26 H -0.192805 -5.163180 2.041626 0
M  V30 27 H 1.377502 -4.335909 1.920877 0
M  V30 28 H 0.587616 -4.378934 3.537563 0
M  V30 29 H -0.194326 -2.268641 2.850701 0
M  V30 30 H 0.133060 -3.198378 -0.032747 0
M  V30 31 H 1.227677 -1.494026 -1.380336 0
M  V30 32 H -0.072387 1.363210 -0.976292 0
M  V30 33 H -0.272124 4.101362 -1.080854 0
M  V30 34 H 4.880843 4.589513 0.181243 0
M  V30 35 H 4.588232 2.312112 0.154907 0
M  V30 36 H -1.632877 -4.314380 0.048995 0
M  V30 37 H -4.088829 -4.727185 -0.106656 0
M  V30 38 H -4.716059 -2.775926 3.598973 0
M  V30 39 H -2.331833 -2.369675 3.760067 0
M  V30 END ATOM
M  V30 BEGIN BOND
M  V30 1 1 1 2
M  V30 2 1 2 3
M  V30 3 1 3 4
M  V30 4 2 4 5
M  V30 5 1 4 6
M  V30 6 1 6 7
M  V30 7 2 7 8
M  V30 8 1 8 9
M  V30 9 1 9 10
M  V30 10 1 10 11
M  V30 11 2 11 12
M  V30 12 1 12 13
M  V30 13 1 13 14
M  V30 14 1 13 15
M  V30 15 1 12 16
M  V30 16 1 16 17
M  V30 17 2 17 18
M  V30 18 1 2 19
M  V30 19 2 19 20
M  V30 20 1 20 21
M  V30 21 2 21 22
M  V30 22 1 22 23
M  V30 23 1 22 24
M  V30 24 2 24 25
M  V30 25 1 18 7
M  V30 26 1 25 19
M  V30 27 2 16 9
M  V30 28 1 1 26
M  V30 29 1 1 27
M  V30 30 1 1 28
M  V30 31 1 2 29 CFG=1
M  V30 32 1 3 30
M  V30 33 1 6 31
M  V30 34 1 8 32
M  V30 35 1 10 33
M  V30 36 1 13 34
M  V30 37 1 17 35
M  V30 38 1 20 36
M  V30 39 1 21 37
M  V30 40 1 24 38
M  V30 41 1 25 39
M  V30 END BOND
M  V30 END CTAB
M  END
>  <Dataset>  (516) 
ChEMBL_Kinases

>  <Ligand_Instance>  (516) 
nan

>  <PDB_ID>  (516) 
nan

>  <Standardized_SMILES>  (516) 
C[C@@H](NC(=O)Nc1cc2[nH]nc(C(F)F)c2cn1)c1ccc(F)cc1

>  <Name>  (516) 
nan

>  <Pocket>  (516) 
nan

>  <ATP_Site>  (516) 
nan

>  <Peripheral>  (516) 
nan

>  <Num_H_Atoms_ProtBoundConf>  (516) 
nan

>  <Num_Resolved_Atoms>  (516) 
nan

>  <Num_Not_Resolved_Atoms>  (516) 
nan

$$$$
CHEMBL3663108
     RDKit          3D

  0  0  0  0  0  0  0  0  0  0999 V3000
M  V30 BEGIN CTAB
M  V30 COUNTS 39 41 0 0 0
M  V30 BEGIN ATOM
M  V30 1 C -0.277809 -4.451557 0.666592 0
M  V30 2 C -0.446645 -3.253295 1.611884 0 CFG=1
M  V30 3 N -0.509458 -2.109119 0.719342 0
M  V30 4 C 0.353326 -1.000351 0.500027 0
M  V30 5 O 1.379784 -1.041954 1.245735 0
M  V30 6 N 0.003784 -0.032850 -0.459179 0
M  V30 7 C 0.936818 1.046972 -0.609015 0
M  V30 8 C 0.815334 2.208417 0.164541 0
M  V30 9 C 1.761822 3.202711 -0.047249 0
M  V30 10 N 1.956835 4.416982 0.494258 0
M  V30 11 N 3.037788 4.957714 -0.091570 0
M  V30 12 C 3.500724 4.069036 -0.991636 0
M  V30 13 C 4.689229 4.467359 -1.748981 0
M  V30 14 F 4.345815 5.603494 -2.491156 0
M  V30 15 F 5.695728 4.834835 -0.871512 0
M  V30 16 C 2.707477 2.933543 -0.989806 0
M  V30 17 C 2.855043 1.809933 -1.763076 0
M  V30 18 N 1.909151 0.851093 -1.531307 0
M  V30 19 C -1.688148 -3.437542 2.404794 0
M  V30 20 C -1.705014 -3.709662 3.757176 0
M  V30 21 C -2.815907 -3.893121 4.552293 0
M  V30 22 C -4.016613 -3.784094 3.882483 0
M  V30 23 C -4.128442 -3.516343 2.537913 0
M  V30 24 C -2.949569 -3.353649 1.853603 0
M  V30 25 H -0.320785 -5.411854 1.175783 0
M  V30 26 H -0.953354 -4.349652 -0.213722 0
M  V30 27 H 0.757018 -4.319215 0.232899 0
M  V30 28 H 0.444499 -3.251758 2.243592 0
M  V30 29 H -1.395398 -2.159420 0.136454 0
M  V30 30 H -0.881031 -0.131665 -1.002187 0
M  V30 31 H 0.019725 2.315678 0.887948 0
M  V30 32 H 1.360264 4.842562 1.237237 0
M  V30 33 H 5.034876 3.711094 -2.473806 0
M  V30 34 H 3.649333 1.699122 -2.488249 0
M  V30 35 H -0.735126 -3.793052 4.273543 0
M  V30 36 H -2.710753 -4.102969 5.607639 0
M  V30 37 H -4.936007 -3.917071 4.445572 0
M  V30 38 H -5.102654 -3.448614 2.096336 0
M  V30 39 H -3.054697 -3.142543 0.790922 0
M  V30 END ATOM
M  V30 BEGIN BOND
M  V30 1 1 1 2
M  V30 2 1 2 3
M  V30 3 1 3 4
M  V30 4 2 4 5
M  V30 5 1 4 6
M  V30 6 1 6 7
M  V30 7 2 7 8
M  V30 8 1 8 9
M  V30 9 1 9 10
M  V30 10 1 10 11
M  V30 11 2 11 12
M  V30 12 1 12 13
M  V30 13 1 13 14
M  V30 14 1 13 15
M  V30 15 1 12 16
M  V30 16 1 16 17
M  V30 17 2 17 18
M  V30 18 1 2 19
M  V30 19 2 19 20
M  V30 20 1 20 21
M  V30 21 2 21 22
M  V30 22 1 22 23
M  V30 23 2 23 24
M  V30 24 1 18 7
M  V30 25 1 24 19
M  V30 26 2 16 9
M  V30 27 1 1 25
M  V30 28 1 1 26
M  V30 29 1 1 27
M  V30 30 1 2 28 CFG=1
M  V30 31 1 3 29
M  V30 32 1 6 30
M  V30 33 1 8 31
M  V30 34 1 10 32
M  V30 35 1 13 33
M  V30 36 1 17 34
M  V30 37 1 20 35
M  V30 38 1 21 36
M  V30 39 1 22 37
M  V30 40 1 23 38
M  V30 41 1 24 39
M  V30 END BOND
M  V30 END CTAB
M  END
>  <Dataset>  (517) 
ChEMBL_Kinases

>  <Ligand_Instance>  (517) 
nan

>  <PDB_ID>  (517) 
nan

>  <Standardized_SMILES>  (517) 
C[C@@H](NC(=O)Nc1cc2[nH]nc(C(F)F)c2cn1)c1ccccc1

>  <Name>  (517) 
nan

>  <Pocket>  (517) 
nan

>  <ATP_Site>  (517) 
nan

>  <Peripheral>  (517) 
nan

>  <Num_H_Atoms_ProtBoundConf>  (517) 
nan

>  <Num_Resolved_Atoms>  (517) 
nan

>  <Num_Not_Resolved_Atoms>  (517) 
nan

$$$$
CHEMBL3663109
     RDKit          3D

  0  0  0  0  0  0  0  0  0  0999 V3000
M  V30 BEGIN CTAB
M  V30 COUNTS 44 47 0 0 0
M  V30 BEGIN ATOM
M  V30 1 C 1.350851 -3.351183 4.715695 0
M  V30 2 C 0.964494 -3.355574 3.275590 0 CFG=1
M  V30 3 N 1.660215 -2.260978 2.580095 0
M  V30 4 C 1.022544 -1.187296 1.857367 0
M  V30 5 O -0.229909 -1.305643 1.896433 0
M  V30 6 N 1.854369 -0.212784 1.244687 0
M  V30 7 C 1.108034 0.794412 0.562108 0
M  V30 8 C 0.828827 0.530853 -0.766834 0
M  V30 9 C 0.110443 1.447736 -1.511966 0
M  V30 10 N -0.325626 1.515004 -2.784626 0
M  V30 11 N -0.987749 2.653706 -2.979113 0
M  V30 12 C -0.994353 3.362015 -1.812530 0
M  V30 13 C -1.636294 4.665299 -1.666960 0
M  V30 14 C -2.447470 5.048972 -0.599598 0
M  V30 15 N -3.003110 6.258288 -0.530392 0
M  V30 16 C -2.764163 7.125481 -1.530297 0
M  V30 17 N -1.987635 6.789260 -2.573794 0
M  V30 18 C -1.404362 5.579447 -2.688149 0
M  V30 19 C -0.301641 2.607718 -0.876369 0
M  V30 20 C -0.018282 2.868579 0.461253 0
M  V30 21 N 0.685802 1.944687 1.149189 0
M  V30 22 C 1.339687 -4.624205 2.567424 0
M  V30 23 C 2.628212 -4.925789 2.192439 0
M  V30 24 C 2.912593 -6.104180 1.545661 0
M  V30 25 C 1.885945 -6.991112 1.272610 0
M  V30 26 F 2.064652 -8.185496 0.635927 0
M  V30 27 C 0.576038 -6.727886 1.631823 0
M  V30 28 C 0.317404 -5.528024 2.285056 0
M  V30 29 H 2.253711 -2.730603 4.869981 0
M  V30 30 H 1.436919 -4.383602 5.109999 0
M  V30 31 H 0.552477 -2.863155 5.331821 0
M  V30 32 H -0.112867 -3.151528 3.108914 0
M  V30 33 H 2.708040 -2.329588 2.657196 0
M  V30 34 H 2.908891 -0.260100 1.308043 0
M  V30 35 H 1.141625 -0.370112 -1.283583 0
M  V30 36 H -0.125183 0.729381 -3.464975 0
M  V30 37 H -2.588945 4.287012 0.166229 0
M  V30 38 H -3.196006 8.130935 -1.522372 0
M  V30 39 H -0.776445 5.344578 -3.557831 0
M  V30 40 H -0.353501 3.784755 0.932298 0
M  V30 41 H 3.418455 -4.225967 2.411306 0
M  V30 42 H 3.888655 -6.391621 1.231687 0
M  V30 43 H -0.259816 -7.394401 1.437707 0
M  V30 44 H -0.707643 -5.278113 2.588439 0
M  V30 END ATOM
M  V30 BEGIN BOND
M  V30 1 1 1 2
M  V30 2 1 2 3
M  V30 3 1 3 4
M  V30 4 2 4 5
M  V30 5 1 4 6
M  V30 6 1 6 7
M  V30 7 2 7 8
M  V30 8 1 8 9
M  V30 9 1 9 10
M  V30 10 1 10 11
M  V30 11 2 11 12
M  V30 12 1 12 13
M  V30 13 2 13 14
M  V30 14 1 14 15
M  V30 15 2 15 16
M  V30 16 1 16 17
M  V30 17 2 17 18
M  V30 18 1 12 19
M  V30 19 1 19 20
M  V30 20 2 20 21
M  V30 21 1 2 22
M  V30 22 2 22 23
M  V30 23 1 23 24
M  V30 24 2 24 25
M  V30 25 1 25 26
M  V30 26 1 25 27
M  V30 27 2 27 28
M  V30 28 1 21 7
M  V30 29 1 28 22
M  V30 30 2 19 9
M  V30 31 1 18 13
M  V30 32 1 1 29
M  V30 33 1 1 30
M  V30 34 1 1 31
M  V30 35 1 2 32 CFG=1
M  V30 36 1 3 33
M  V30 37 1 6 34
M  V30 38 1 8 35
M  V30 39 1 10 36
M  V30 40 1 14 37
M  V30 41 1 16 38
M  V30 42 1 18 39
M  V30 43 1 20 40
M  V30 44 1 23 41
M  V30 45 1 24 42
M  V30 46 1 27 43
M  V30 47 1 28 44
M  V30 END BOND
M  V30 END CTAB
M  END
>  <Dataset>  (518) 
ChEMBL_Kinases

>  <Ligand_Instance>  (518) 
nan

>  <PDB_ID>  (518) 
nan

>  <Standardized_SMILES>  (518) 
C[C@@H](NC(=O)Nc1cc2[nH]nc(-c3cncnc3)c2cn1)c1ccc(F)cc1

>  <Name>  (518) 
nan

>  <Pocket>  (518) 
nan

>  <ATP_Site>  (518) 
nan

>  <Peripheral>  (518) 
nan

>  <Num_H_Atoms_ProtBoundConf>  (518) 
nan

>  <Num_Resolved_Atoms>  (518) 
nan

>  <Num_Not_Resolved_Atoms>  (518) 
nan

$$$$
CHEMBL3663110
     RDKit          3D

  0  0  0  0  0  0  0  0  0  0999 V3000
M  V30 BEGIN CTAB
M  V30 COUNTS 47 50 0 0 0
M  V30 BEGIN ATOM
M  V30 1 C -1.328198 -3.272516 5.093738 0
M  V30 2 C -1.023947 -3.482578 3.624215 0 CFG=1
M  V30 3 N 0.241947 -2.849520 3.264939 0
M  V30 4 C 0.351042 -1.769946 2.349344 0
M  V30 5 O -0.751174 -1.407194 1.873413 0
M  V30 6 N 1.639320 -1.201584 2.049177 0
M  V30 7 C 1.500972 -0.123364 1.098180 0
M  V30 8 C 1.577281 -0.448844 -0.262571 0
M  V30 9 C 1.447462 0.567838 -1.190195 0
M  V30 10 N 1.474270 0.577867 -2.539816 0
M  V30 11 N 1.298660 1.830155 -2.933306 0
M  V30 12 C 1.156699 2.646060 -1.875279 0
M  V30 13 C 0.946042 4.091680 -1.950864 0
M  V30 14 C 1.595081 5.035895 -1.181859 0
M  V30 15 C 1.332066 6.383696 -1.321638 0
M  V30 16 C 0.392579 6.838853 -2.253839 0
M  V30 17 C -0.273772 5.895593 -3.040761 0
M  V30 18 C -1.244004 6.328270 -4.007200 0
M  V30 19 N -2.031548 6.674691 -4.810363 0
M  V30 20 C 0.006085 4.539926 -2.884242 0
M  V30 21 C 1.248989 1.853800 -0.728725 0
M  V30 22 C 1.173916 2.172018 0.623864 0
M  V30 23 N 1.304779 1.155781 1.498598 0
M  V30 24 C -1.093885 -4.901716 3.282129 0
M  V30 25 C -2.221135 -5.456753 2.668141 0
M  V30 26 C -2.323784 -6.803134 2.327734 0
M  V30 27 C -1.252884 -7.635284 2.612566 0
M  V30 28 C -0.120645 -7.107848 3.222673 0
M  V30 29 C -0.042014 -5.769797 3.550767 0
M  V30 30 H -1.637194 -4.223870 5.555335 0
M  V30 31 H -2.132806 -2.498370 5.232047 0
M  V30 32 H -0.438610 -2.883775 5.653483 0
M  V30 33 H -1.821650 -2.946733 3.043683 0
M  V30 34 H 1.101977 -3.239422 3.728541 0
M  V30 35 H 2.508063 -1.586316 2.509590 0
M  V30 36 H 1.735903 -1.484486 -0.576097 0
M  V30 37 H 1.614041 -0.292994 -3.108793 0
M  V30 38 H 2.316975 4.657953 -0.468358 0
M  V30 39 H 1.850974 7.109300 -0.709734 0
M  V30 40 H 0.168984 7.890947 -2.381966 0
M  V30 41 H -0.552303 3.869034 -3.531805 0
M  V30 42 H 1.016101 3.200723 0.947577 0
M  V30 43 H -3.036170 -4.745457 2.468470 0
M  V30 44 H -3.217223 -7.183547 1.854162 0
M  V30 45 H -1.387063 -8.673448 2.326056 0
M  V30 46 H 0.656094 -7.845396 3.399861 0
M  V30 47 H 0.863797 -5.430458 4.020724 0
M  V30 END ATOM
M  V30 BEGIN BOND
M  V30 1 1 1 2
M  V30 2 1 2 3
M  V30 3 1 3 4
M  V30 4 2 4 5
M  V30 5 1 4 6
M  V30 6 1 6 7
M  V30 7 2 7 8
M  V30 8 1 8 9
M  V30 9 1 9 10
M  V30 10 1 10 11
M  V30 11 2 11 12
M  V30 12 1 12 13
M  V30 13 2 13 14
M  V30 14 1 14 15
M  V30 15 2 15 16
M  V30 16 1 16 17
M  V30 17 1 17 18
M  V30 18 3 18 19
M  V30 19 2 17 20
M  V30 20 1 12 21
M  V30 21 1 21 22
M  V30 22 2 22 23
M  V30 23 1 2 24
M  V30 24 2 24 25
M  V30 25 1 25 26
M  V30 26 2 26 27
M  V30 27 1 27 28
M  V30 28 2 28 29
M  V30 29 1 23 7
M  V30 30 1 29 24
M  V30 31 2 21 9
M  V30 32 1 20 13
M  V30 33 1 1 30
M  V30 34 1 1 31
M  V30 35 1 1 32
M  V30 36 1 2 33 CFG=3
M  V30 37 1 3 34
M  V30 38 1 6 35
M  V30 39 1 8 36
M  V30 40 1 10 37
M  V30 41 1 14 38
M  V30 42 1 15 39
M  V30 43 1 16 40
M  V30 44 1 20 41
M  V30 45 1 22 42
M  V30 46 1 25 43
M  V30 47 1 26 44
M  V30 48 1 27 45
M  V30 49 1 28 46
M  V30 50 1 29 47
M  V30 END BOND
M  V30 END CTAB
M  END
>  <Dataset>  (519) 
ChEMBL_Kinases

>  <Ligand_Instance>  (519) 
nan

>  <PDB_ID>  (519) 
nan

>  <Standardized_SMILES>  (519) 
C[C@@H](NC(=O)Nc1cc2[nH]nc(-c3cccc(C#N)c3)c2cn1)c1ccccc1

>  <Name>  (519) 
nan

>  <Pocket>  (519) 
nan

>  <ATP_Site>  (519) 
nan

>  <Peripheral>  (519) 
nan

>  <Num_H_Atoms_ProtBoundConf>  (519) 
nan

>  <Num_Resolved_Atoms>  (519) 
nan

>  <Num_Not_Resolved_Atoms>  (519) 
nan

$$$$
CHEMBL3663111
     RDKit          3D

  0  0  0  0  0  0  0  0  0  0999 V3000
M  V30 BEGIN CTAB
M  V30 COUNTS 44 47 0 0 0
M  V30 BEGIN ATOM
M  V30 1 N 4.464839 -5.151255 -0.967092 0
M  V30 2 C 4.770621 -4.029456 -1.099666 0
M  V30 3 C 5.165680 -2.645675 -1.253071 0
M  V30 4 C 6.516713 -2.280307 -1.290183 0
M  V30 5 C 6.902092 -0.965967 -1.435859 0
M  V30 6 C 5.943057 0.041336 -1.550833 0
M  V30 7 C 4.586173 -0.299577 -1.516371 0
M  V30 8 C 3.538244 0.712758 -1.633671 0
M  V30 9 N 3.485020 1.727382 -2.522396 0
M  V30 10 N 2.398698 2.463579 -2.353834 0
M  V30 11 C 1.662572 1.974067 -1.333440 0
M  V30 12 C 0.473375 2.253216 -0.664975 0
M  V30 13 C 0.041773 1.473617 0.385963 0
M  V30 14 N -1.177473 1.776128 1.056015 0
M  V30 15 C -1.609310 0.970116 2.137009 0
M  V30 16 O -0.867584 0.000071 2.456715 0
M  V30 17 N -2.814851 1.217298 2.846650 0
M  V30 18 C -3.344039 0.456779 3.961471 0
M  V30 19 C -3.949523 -0.822168 3.540156 0
M  V30 20 C -5.297004 -0.903666 3.197344 0
M  V30 21 C -5.903097 -2.076827 2.798886 0
M  V30 22 C -5.180225 -3.237227 2.724323 0
M  V30 23 F -5.707142 -4.424416 2.342136 0
M  V30 24 C -3.841464 -3.216136 3.052239 0
M  V30 25 C -3.287156 -2.009754 3.445181 0
M  V30 26 N 0.782619 0.410887 0.784997 0
M  V30 27 C 1.937505 0.105172 0.167492 0
M  V30 28 C 2.385261 0.879124 -0.890881 0
M  V30 29 C 4.204891 -1.635482 -1.368363 0
M  V30 30 H 7.218292 -3.115229 -1.195260 0
M  V30 31 H 7.953941 -0.720225 -1.460326 0
M  V30 32 H 6.227371 1.084033 -1.666372 0
M  V30 33 H 2.079476 3.309381 -2.881057 0
M  V30 34 H -0.075356 3.111117 -1.025890 0
M  V30 35 H -1.742508 2.593972 0.740015 0
M  V30 36 H -3.361742 2.059115 2.493597 0
M  V30 37 H -2.455215 0.165445 4.595247 0
M  V30 38 H -4.025665 1.100247 4.532885 0
M  V30 39 H -5.906612 0.005696 3.245444 0
M  V30 40 H -6.957821 -2.123312 2.533804 0
M  V30 41 H -3.225516 -4.118891 3.006800 0
M  V30 42 H -2.229435 -2.038909 3.694783 0
M  V30 43 H 2.431249 -0.763434 0.581391 0
M  V30 44 H 3.187160 -1.983448 -1.333416 0
M  V30 END ATOM
M  V30 BEGIN BOND
M  V30 1 3 1 2
M  V30 2 1 2 3
M  V30 3 2 3 4
M  V30 4 1 4 5
M  V30 5 2 5 6
M  V30 6 1 6 7
M  V30 7 1 7 8
M  V30 8 2 8 9
M  V30 9 1 9 10
M  V30 10 1 10 11
M  V30 11 2 11 12
M  V30 12 1 12 13
M  V30 13 1 13 14
M  V30 14 1 14 15
M  V30 15 2 15 16
M  V30 16 1 15 17
M  V30 17 1 17 18
M  V30 18 1 18 19
M  V30 19 2 19 20
M  V30 20 1 20 21
M  V30 21 2 21 22
M  V30 22 1 22 23
M  V30 23 1 22 24
M  V30 24 2 24 25
M  V30 25 2 13 26
M  V30 26 1 26 27
M  V30 27 2 27 28
M  V30 28 2 7 29
M  V30 29 1 29 3
M  V30 30 1 28 8
M  V30 31 1 28 11
M  V30 32 1 25 19
M  V30 33 1 4 30
M  V30 34 1 5 31
M  V30 35 1 6 32
M  V30 36 1 10 33
M  V30 37 1 12 34
M  V30 38 1 14 35
M  V30 39 1 17 36
M  V30 40 1 18 37
M  V30 41 1 18 38
M  V30 42 1 20 39
M  V30 43 1 21 40
M  V30 44 1 24 41
M  V30 45 1 25 42
M  V30 46 1 27 43
M  V30 47 1 29 44
M  V30 END BOND
M  V30 END CTAB
M  END
>  <Dataset>  (520) 
ChEMBL_Kinases

>  <Ligand_Instance>  (520) 
nan

>  <PDB_ID>  (520) 
nan

>  <Standardized_SMILES>  (520) 
N#Cc1cccc(-c2n[nH]c3cc(NC(=O)NCc4ccc(F)cc4)ncc23)c1

>  <Name>  (520) 
nan

>  <Pocket>  (520) 
nan

>  <ATP_Site>  (520) 
nan

>  <Peripheral>  (520) 
nan

>  <Num_H_Atoms_ProtBoundConf>  (520) 
nan

>  <Num_Resolved_Atoms>  (520) 
nan

>  <Num_Not_Resolved_Atoms>  (520) 
nan

$$$$
CHEMBL3663112
     RDKit          3D

  0  0  0  0  0  0  0  0  0  0999 V3000
M  V30 BEGIN CTAB
M  V30 COUNTS 50 53 0 0 0
M  V30 BEGIN ATOM
M  V30 1 C 3.165389 -5.865508 0.937570 0
M  V30 2 C 2.328573 -5.114747 -0.055738 0 CFG=1
M  V30 3 N 2.669906 -3.709073 -0.132418 0
M  V30 4 C 1.689809 -2.745388 0.173692 0
M  V30 5 O 0.517321 -3.026718 0.515248 0
M  V30 6 N 1.972453 -1.358612 0.114017 0
M  V30 7 C 1.103526 -0.265644 0.389502 0
M  V30 8 C 0.390343 0.212093 -0.678228 0
M  V30 9 C -0.488144 1.278304 -0.519390 0
M  V30 10 N -1.316861 1.986877 -1.286638 0
M  V30 11 N -1.923673 2.917923 -0.576594 0
M  V30 12 C -1.508929 2.858281 0.717515 0
M  V30 13 C -2.003906 3.759251 1.733328 0
M  V30 14 C -1.269756 4.430109 2.688620 0
M  V30 15 C -1.865912 5.267191 3.607811 0
M  V30 16 C -3.237981 5.462272 3.599570 0
M  V30 17 O -3.933303 6.280133 4.477292 0
M  V30 18 C -4.426219 5.759995 5.689911 0
M  V30 19 F -5.093354 6.734169 6.430356 0
M  V30 20 F -5.305434 4.743799 5.377838 0
M  V30 21 F -3.359527 5.298812 6.469043 0
M  V30 22 C -4.014275 4.811992 2.661915 0
M  V30 23 C -3.386753 3.972539 1.745474 0
M  V30 24 C -0.602654 1.825338 0.760351 0
M  V30 25 C 0.119507 1.336600 1.826134 0
M  V30 26 N 0.972083 0.288660 1.631321 0
M  V30 27 C 2.394091 -5.715327 -1.416687 0
M  V30 28 C 1.417886 -6.559625 -1.909074 0
M  V30 29 C 1.458849 -7.126438 -3.165736 0
M  V30 30 C 2.560889 -6.793441 -3.925152 0
M  V30 31 C 3.565824 -5.953593 -3.480415 0
M  V30 32 C 3.459810 -5.419486 -2.206604 0
M  V30 33 H 2.748372 -6.884976 1.014492 0
M  V30 34 H 3.067620 -5.352052 1.904468 0
M  V30 35 H 4.210053 -5.967707 0.597427 0
M  V30 36 H 1.264758 -5.174820 0.257516 0
M  V30 37 H 3.610015 -3.349174 -0.403965 0
M  V30 38 H 2.932240 -1.020662 -0.163728 0
M  V30 39 H 0.468090 -0.194004 -1.654141 0
M  V30 40 H -1.424214 1.775622 -2.321054 0
M  V30 41 H -0.214198 4.256255 2.665799 0
M  V30 42 H -1.295124 5.787884 4.349444 0
M  V30 43 H -5.087571 4.928844 2.611621 0
M  V30 44 H -4.028190 3.470159 1.013554 0
M  V30 45 H 0.018676 1.773127 2.813658 0
M  V30 46 H 0.584922 -6.771590 -1.250823 0
M  V30 47 H 0.673970 -7.784777 -3.518172 0
M  V30 48 H 2.656795 -7.202652 -4.920620 0
M  V30 49 H 4.404133 -5.744211 -4.151252 0
M  V30 50 H 4.261596 -4.757441 -1.868793 0
M  V30 END ATOM
M  V30 BEGIN BOND
M  V30 1 1 1 2
M  V30 2 1 2 3
M  V30 3 1 3 4
M  V30 4 2 4 5
M  V30 5 1 4 6
M  V30 6 1 6 7
M  V30 7 2 7 8
M  V30 8 1 8 9
M  V30 9 1 9 10
M  V30 10 1 10 11
M  V30 11 2 11 12
M  V30 12 1 12 13
M  V30 13 2 13 14
M  V30 14 1 14 15
M  V30 15 2 15 16
M  V30 16 1 16 17
M  V30 17 1 17 18
M  V30 18 1 18 19
M  V30 19 1 18 20
M  V30 20 1 18 21
M  V30 21 1 16 22
M  V30 22 2 22 23
M  V30 23 1 12 24
M  V30 24 1 24 25
M  V30 25 2 25 26
M  V30 26 1 2 27
M  V30 27 2 27 28
M  V30 28 1 28 29
M  V30 29 2 29 30
M  V30 30 1 30 31
M  V30 31 2 31 32
M  V30 32 1 26 7
M  V30 33 1 32 27
M  V30 34 2 24 9
M  V30 35 1 23 13
M  V30 36 1 1 33
M  V30 37 1 1 34
M  V30 38 1 1 35
M  V30 39 1 2 36 CFG=1
M  V30 40 1 3 37
M  V30 41 1 6 38
M  V30 42 1 8 39
M  V30 43 1 10 40
M  V30 44 1 14 41
M  V30 45 1 15 42
M  V30 46 1 22 43
M  V30 47 1 23 44
M  V30 48 1 25 45
M  V30 49 1 28 46
M  V30 50 1 29 47
M  V30 51 1 30 48
M  V30 52 1 31 49
M  V30 53 1 32 50
M  V30 END BOND
M  V30 END CTAB
M  END
>  <Dataset>  (521) 
ChEMBL_Kinases

>  <Ligand_Instance>  (521) 
nan

>  <PDB_ID>  (521) 
nan

>  <Standardized_SMILES>  (521) 
C[C@@H](NC(=O)Nc1cc2[nH]nc(-c3ccc(OC(F)(F)F)cc3)c2cn1)c1ccccc1

>  <Name>  (521) 
nan

>  <Pocket>  (521) 
nan

>  <ATP_Site>  (521) 
nan

>  <Peripheral>  (521) 
nan

>  <Num_H_Atoms_ProtBoundConf>  (521) 
nan

>  <Num_Resolved_Atoms>  (521) 
nan

>  <Num_Not_Resolved_Atoms>  (521) 
nan

$$$$
CHEMBL3663113
     RDKit          3D

  0  0  0  0  0  0  0  0  0  0999 V3000
M  V30 BEGIN CTAB
M  V30 COUNTS 47 50 0 0 0
M  V30 BEGIN ATOM
M  V30 1 O 2.665651 -0.816844 2.224601 0
M  V30 2 C 2.719978 0.246419 2.916693 0
M  V30 3 N 3.888631 0.594138 3.637335 0
M  V30 4 C 5.122011 -0.158588 3.693571 0
M  V30 5 C 5.909950 -0.001053 2.451852 0
M  V30 6 C 5.845594 -0.793153 1.326137 0
M  V30 7 C 6.628811 -0.554958 0.215810 0
M  V30 8 C 7.518767 0.524656 0.228844 0
M  V30 9 F 8.240017 0.666699 -0.913634 0
M  V30 10 C 7.587138 1.321099 1.353537 0
M  V30 11 C 6.796078 1.067847 2.455222 0
M  V30 12 N 1.543746 1.023144 2.900221 0
M  V30 13 C 0.388731 0.641117 2.162367 0
M  V30 14 C 0.365992 1.131725 0.851069 0
M  V30 15 C -0.715899 0.817075 0.052184 0
M  V30 16 N -1.024601 1.131497 -1.230536 0
M  V30 17 N -2.186385 0.592010 -1.565113 0
M  V30 18 C -2.709357 -0.109413 -0.519571 0
M  V30 19 C -3.960790 -0.851838 -0.458313 0
M  V30 20 C -5.102557 -0.261064 -0.975934 0
M  V30 21 C -6.283387 -0.960137 -0.918718 0
M  V30 22 C -6.376825 -2.232693 -0.363967 0
M  V30 23 O -7.539875 -2.983029 -0.279745 0
M  V30 24 C -7.834570 -3.842141 -1.367300 0
M  V30 25 F -6.853475 -4.781371 -1.572904 0
M  V30 26 F -9.023679 -4.519602 -1.143806 0
M  V30 27 F -8.006837 -3.112867 -2.532202 0
M  V30 28 C -5.219164 -2.814246 0.152931 0
M  V30 29 C -4.015754 -2.108610 0.097862 0
M  V30 30 C -1.774957 0.043035 0.483634 0
M  V30 31 C -1.690026 -0.409215 1.787999 0
M  V30 32 N -0.653638 -0.126006 2.600294 0
M  V30 33 H 3.776253 1.509289 4.164765 0
M  V30 34 H 5.670656 0.194969 4.579619 0
M  V30 35 H 4.865353 -1.238251 3.805985 0
M  V30 36 H 5.147942 -1.610598 1.363576 0
M  V30 37 H 6.536299 -1.215716 -0.650270 0
M  V30 38 H 8.302087 2.130115 1.273322 0
M  V30 39 H 6.977285 1.788368 3.247708 0
M  V30 40 H 1.538101 1.911676 3.457894 0
M  V30 41 H 1.138637 1.735605 0.437640 0
M  V30 42 H -0.425470 1.721326 -1.869381 0
M  V30 43 H -5.073654 0.734673 -1.419311 0
M  V30 44 H -7.210098 -0.546315 -1.309469 0
M  V30 45 H -5.264711 -3.799009 0.587586 0
M  V30 46 H -3.152467 -2.602835 0.509953 0
M  V30 47 H -2.485441 -1.021202 2.191559 0
M  V30 END ATOM
M  V30 BEGIN BOND
M  V30 1 2 1 2
M  V30 2 1 2 3
M  V30 3 1 3 4
M  V30 4 1 4 5
M  V30 5 2 5 6
M  V30 6 1 6 7
M  V30 7 2 7 8
M  V30 8 1 8 9
M  V30 9 1 8 10
M  V30 10 2 10 11
M  V30 11 1 2 12
M  V30 12 1 12 13
M  V30 13 2 13 14
M  V30 14 1 14 15
M  V30 15 1 15 16
M  V30 16 1 16 17
M  V30 17 2 17 18
M  V30 18 1 18 19
M  V30 19 2 19 20
M  V30 20 1 20 21
M  V30 21 2 21 22
M  V30 22 1 22 23
M  V30 23 1 23 24
M  V30 24 1 24 25
M  V30 25 1 24 26
M  V30 26 1 24 27
M  V30 27 1 22 28
M  V30 28 2 28 29
M  V30 29 1 18 30
M  V30 30 1 30 31
M  V30 31 2 31 32
M  V30 32 1 11 5
M  V30 33 1 32 13
M  V30 34 2 30 15
M  V30 35 1 29 19
M  V30 36 1 3 33
M  V30 37 1 4 34
M  V30 38 1 4 35
M  V30 39 1 6 36
M  V30 40 1 7 37
M  V30 41 1 10 38
M  V30 42 1 11 39
M  V30 43 1 12 40
M  V30 44 1 14 41
M  V30 45 1 16 42
M  V30 46 1 20 43
M  V30 47 1 21 44
M  V30 48 1 28 45
M  V30 49 1 29 46
M  V30 50 1 31 47
M  V30 END BOND
M  V30 END CTAB
M  END
>  <Dataset>  (522) 
ChEMBL_Kinases

>  <Ligand_Instance>  (522) 
nan

>  <PDB_ID>  (522) 
nan

>  <Standardized_SMILES>  (522) 
O=C(NCc1ccc(F)cc1)Nc1cc2[nH]nc(-c3ccc(OC(F)(F)F)cc3)c2cn1

>  <Name>  (522) 
nan

>  <Pocket>  (522) 
nan

>  <ATP_Site>  (522) 
nan

>  <Peripheral>  (522) 
nan

>  <Num_H_Atoms_ProtBoundConf>  (522) 
nan

>  <Num_Resolved_Atoms>  (522) 
nan

>  <Num_Not_Resolved_Atoms>  (522) 
nan

$$$$
CHEMBL3663105
     RDKit          3D

  0  0  0  0  0  0  0  0  0  0999 V3000
M  V30 BEGIN CTAB
M  V30 COUNTS 39 41 0 0 0
M  V30 BEGIN ATOM
M  V30 1 C 0.371859 -5.678745 0.752590 0
M  V30 2 C 1.685551 -5.538277 0.057326 0
M  V30 3 F 2.553380 -6.469807 0.630951 0
M  V30 4 F 1.615397 -5.872555 -1.294882 0
M  V30 5 C 2.311701 -4.198488 0.188931 0
M  V30 6 N 3.502044 -3.868341 0.726804 0
M  V30 7 N 3.702573 -2.578533 0.657268 0
M  V30 8 C 2.620136 -2.047276 0.060261 0
M  V30 9 C 2.377073 -0.725781 -0.229797 0
M  V30 10 C 1.180254 -0.435230 -0.851376 0
M  V30 11 N 0.678615 0.835119 -1.260956 0
M  V30 12 C -0.097368 1.587645 -0.361092 0
M  V30 13 O -0.323362 1.104425 0.789149 0
M  V30 14 N -0.640744 2.847111 -0.657200 0
M  V30 15 C -1.449403 3.658548 0.246265 0
M  V30 16 C -1.639308 2.974168 1.566591 0
M  V30 17 C -0.665819 3.258878 2.529127 0
M  V30 18 C -0.661110 2.728679 3.808787 0
M  V30 19 C -1.697642 1.869749 4.116964 0
M  V30 20 C -2.680803 1.566272 3.183095 0
M  V30 21 C -2.655680 2.111365 1.918139 0
M  V30 22 N 0.289521 -1.417128 -1.158511 0
M  V30 23 C 0.523117 -2.712461 -0.876465 0
M  V30 24 C 1.709918 -3.034228 -0.255725 0
M  V30 25 H 0.400844 -6.393976 1.605752 0
M  V30 26 H -0.325691 -6.169453 0.013894 0
M  V30 27 H -0.055325 -4.738890 1.146972 0
M  V30 28 H 4.550388 -2.082997 1.006587 0
M  V30 29 H 2.988792 0.123241 -0.041545 0
M  V30 30 H 0.871582 1.232268 -2.223578 0
M  V30 31 H -0.483448 3.287987 -1.590059 0
M  V30 32 H -2.447025 3.800514 -0.259319 0
M  V30 33 H -1.036399 4.653842 0.425489 0
M  V30 34 H 0.160562 3.935885 2.302106 0
M  V30 35 H 0.122160 2.988874 4.508673 0
M  V30 36 H -1.707847 1.452487 5.100538 0
M  V30 37 H -3.500094 0.884511 3.433531 0
M  V30 38 H -3.375036 1.924423 1.150639 0
M  V30 39 H -0.186399 -3.504630 -1.119811 0
M  V30 END ATOM
M  V30 BEGIN BOND
M  V30 1 1 1 2
M  V30 2 1 2 3
M  V30 3 1 2 4
M  V30 4 1 2 5
M  V30 5 2 5 6
M  V30 6 1 6 7
M  V30 7 1 7 8
M  V30 8 2 8 9
M  V30 9 1 9 10
M  V30 10 1 10 11
M  V30 11 1 11 12
M  V30 12 2 12 13
M  V30 13 1 12 14
M  V30 14 1 14 15
M  V30 15 1 15 16
M  V30 16 2 16 17
M  V30 17 1 17 18
M  V30 18 2 18 19
M  V30 19 1 19 20
M  V30 20 2 20 21
M  V30 21 2 10 22
M  V30 22 1 22 23
M  V30 23 2 23 24
M  V30 24 1 24 5
M  V30 25 1 24 8
M  V30 26 1 21 16
M  V30 27 1 1 25
M  V30 28 1 1 26
M  V30 29 1 1 27
M  V30 30 1 7 28
M  V30 31 1 9 29
M  V30 32 1 11 30
M  V30 33 1 14 31
M  V30 34 1 15 32
M  V30 35 1 15 33
M  V30 36 1 17 34
M  V30 37 1 18 35
M  V30 38 1 19 36
M  V30 39 1 20 37
M  V30 40 1 21 38
M  V30 41 1 23 39
M  V30 END BOND
M  V30 END CTAB
M  END
>  <Dataset>  (523) 
ChEMBL_Kinases

>  <Ligand_Instance>  (523) 
nan

>  <PDB_ID>  (523) 
nan

>  <Standardized_SMILES>  (523) 
CC(F)(F)c1n[nH]c2cc(NC(=O)NCc3ccccc3)ncc12

>  <Name>  (523) 
nan

>  <Pocket>  (523) 
nan

>  <ATP_Site>  (523) 
nan

>  <Peripheral>  (523) 
nan

>  <Num_H_Atoms_ProtBoundConf>  (523) 
nan

>  <Num_Resolved_Atoms>  (523) 
nan

>  <Num_Not_Resolved_Atoms>  (523) 
nan

$$$$
CHEMBL3663030
     RDKit          3D

  0  0  0  0  0  0  0  0  0  0999 V3000
M  V30 BEGIN CTAB
M  V30 COUNTS 51 54 0 0 0
M  V30 BEGIN ATOM
M  V30 1 C 0.024724 -8.398578 -0.166220 0
M  V30 2 C 0.156048 -7.198897 -1.028653 0
M  V30 3 C 0.800037 -6.087868 -0.564895 0
M  V30 4 C 0.951731 -4.933097 -1.333980 0
M  V30 5 C 1.654969 -3.771164 -0.776998 0
M  V30 6 N 2.830362 -3.770350 -0.082485 0
M  V30 7 N 3.137829 -2.520128 0.251374 0
M  V30 8 C 2.205188 -1.656136 -0.194437 0
M  V30 9 C 2.106956 -0.274565 -0.084301 0
M  V30 10 C 0.968363 0.262422 -0.691634 0
M  V30 11 N 0.798401 1.693782 -0.617768 0
M  V30 12 C 0.063868 2.033653 0.553372 0
M  V30 13 O -0.173616 0.908825 1.111650 0
M  V30 14 N -0.263427 3.368796 0.902947 0
M  V30 15 C 0.224554 4.362020 -0.080054 0
M  V30 16 C -0.986221 3.788134 2.086347 0
M  V30 17 C -0.219505 3.646180 3.365814 0
M  V30 18 C -0.243254 2.313645 4.003240 0
M  V30 19 C -1.574750 1.657274 3.957242 0
M  V30 20 C -2.688980 2.555562 3.490802 0
M  V30 21 C -2.369640 3.265187 2.204054 0
M  V30 22 N 0.055618 -0.498777 -1.323555 0
M  V30 23 C 0.169684 -1.842975 -1.419784 0
M  V30 24 C 1.271582 -2.444140 -0.841942 0
M  V30 25 C 0.423882 -4.948178 -2.594893 0
M  V30 26 C -0.218941 -6.078427 -3.036925 0
M  V30 27 N -0.353872 -7.186180 -2.273575 0
M  V30 28 H 0.859557 -9.110570 -0.252038 0
M  V30 29 H -0.908909 -8.938720 -0.433236 0
M  V30 30 H -0.099335 -8.127652 0.910857 0
M  V30 31 H 1.207262 -6.120712 0.451647 0
M  V30 32 H 3.989170 -2.239030 0.788562 0
M  V30 33 H 2.836885 0.331721 0.420745 0
M  V30 34 H 1.132348 2.444606 -1.282468 0
M  V30 35 H -0.240140 4.205072 -1.067764 0
M  V30 36 H 1.325670 4.169149 -0.216055 0
M  V30 37 H 0.139395 5.372785 0.322113 0
M  V30 38 H -1.059562 4.927903 1.961643 0
M  V30 39 H -0.657268 4.383958 4.088128 0
M  V30 40 H 0.826716 3.997629 3.177255 0
M  V30 41 H 0.099158 2.479895 5.081402 0
M  V30 42 H 0.538555 1.618330 3.612491 0
M  V30 43 H -1.857300 1.389869 5.020789 0
M  V30 44 H -1.582717 0.664207 3.446322 0
M  V30 45 H -2.989448 3.223492 4.316320 0
M  V30 46 H -3.560033 1.883985 3.292068 0
M  V30 47 H -3.125314 4.076506 2.125949 0
M  V30 48 H -2.650609 2.579909 1.350262 0
M  V30 49 H -0.599113 -2.397360 -1.941493 0
M  V30 50 H 0.507236 -4.096802 -3.230727 0
M  V30 51 H -0.636092 -6.090898 -4.032854 0
M  V30 END ATOM
M  V30 BEGIN BOND
M  V30 1 1 1 2
M  V30 2 2 2 3
M  V30 3 1 3 4
M  V30 4 1 4 5
M  V30 5 2 5 6
M  V30 6 1 6 7
M  V30 7 1 7 8
M  V30 8 2 8 9
M  V30 9 1 9 10
M  V30 10 1 10 11
M  V30 11 1 11 12
M  V30 12 2 12 13
M  V30 13 1 12 14
M  V30 14 1 14 15
M  V30 15 1 14 16
M  V30 16 1 16 17
M  V30 17 1 17 18
M  V30 18 1 18 19
M  V30 19 1 19 20
M  V30 20 1 20 21
M  V30 21 2 10 22
M  V30 22 1 22 23
M  V30 23 2 23 24
M  V30 24 2 4 25
M  V30 25 1 25 26
M  V30 26 2 26 27
M  V30 27 1 27 2
M  V30 28 1 24 5
M  V30 29 1 24 8
M  V30 30 1 21 16
M  V30 31 1 1 28
M  V30 32 1 1 29
M  V30 33 1 1 30
M  V30 34 1 3 31
M  V30 35 1 7 32
M  V30 36 1 9 33
M  V30 37 1 11 34
M  V30 38 1 15 35
M  V30 39 1 15 36
M  V30 40 1 15 37
M  V30 41 1 16 38
M  V30 42 1 17 39
M  V30 43 1 17 40
M  V30 44 1 18 41
M  V30 45 1 18 42
M  V30 46 1 19 43
M  V30 47 1 19 44
M  V30 48 1 20 45
M  V30 49 1 20 46
M  V30 50 1 21 47
M  V30 51 1 21 48
M  V30 52 1 23 49
M  V30 53 1 25 50
M  V30 54 1 26 51
M  V30 END BOND
M  V30 END CTAB
M  END
>  <Dataset>  (524) 
ChEMBL_Kinases

>  <Ligand_Instance>  (524) 
nan

>  <PDB_ID>  (524) 
nan

>  <Standardized_SMILES>  (524) 
Cc1cc(-c2n[nH]c3cc(NC(=O)N(C)C4CCCCC4)ncc23)ccn1

>  <Name>  (524) 
nan

>  <Pocket>  (524) 
nan

>  <ATP_Site>  (524) 
nan

>  <Peripheral>  (524) 
nan

>  <Num_H_Atoms_ProtBoundConf>  (524) 
nan

>  <Num_Resolved_Atoms>  (524) 
nan

>  <Num_Not_Resolved_Atoms>  (524) 
nan

$$$$
CHEMBL3663029
     RDKit          3D

  0  0  0  0  0  0  0  0  0  0999 V3000
M  V30 BEGIN CTAB
M  V30 COUNTS 54 57 0 0 0
M  V30 BEGIN ATOM
M  V30 1 C -0.010954 -9.082449 -1.368836 0
M  V30 2 C 0.411790 -7.850625 -2.099679 0
M  V30 3 C 0.857172 -6.727438 -1.430785 0
M  V30 4 C 1.245151 -5.591500 -2.146414 0
M  V30 5 C 1.688131 -4.495694 -1.305635 0
M  V30 6 N 2.528786 -4.633247 -0.252721 0
M  V30 7 N 2.740978 -3.465879 0.307254 0
M  V30 8 C 2.070315 -2.480799 -0.318507 0
M  V30 9 C 1.908948 -1.127671 -0.195912 0
M  V30 10 C 1.095043 -0.451059 -1.082320 0
M  V30 11 N 1.000220 0.955413 -0.860668 0
M  V30 12 C -0.066066 1.328957 0.024149 0
M  V30 13 O -0.909318 0.581455 0.615310 0
M  V30 14 N -0.302218 2.713461 0.355621 0
M  V30 15 C -1.370995 3.114988 1.245225 0 CFG=2
M  V30 16 C -2.302063 4.001184 0.443632 0
M  V30 17 C -0.804676 3.961416 2.389430 0
M  V30 18 C 0.211522 3.208250 3.196317 0
M  V30 19 C -0.308483 2.390502 4.306945 0
M  V30 20 C -1.782667 2.235315 4.407567 0
M  V30 21 C -2.597417 3.442335 4.077969 0
M  V30 22 C -1.899604 4.468810 3.261082 0
M  V30 23 N 0.450293 -1.105124 -2.075759 0
M  V30 24 C 0.573561 -2.440824 -2.243335 0
M  V30 25 C 1.394824 -3.130377 -1.350587 0
M  V30 26 C 1.163178 -5.648200 -3.506072 0
M  V30 27 C 0.715003 -6.780814 -4.159443 0
M  V30 28 N 0.342515 -7.873583 -3.454407 0
M  V30 29 H 0.669370 -9.938076 -1.629773 0
M  V30 30 H 0.079018 -8.939754 -0.280225 0
M  V30 31 H -1.024198 -9.360177 -1.659041 0
M  V30 32 H 0.868890 -6.826621 -0.352214 0
M  V30 33 H 3.333258 -3.186508 1.141160 0
M  V30 34 H 2.435231 -0.626025 0.607122 0
M  V30 35 H 1.615800 1.714129 -1.270042 0
M  V30 36 H 0.301648 3.464152 -0.045240 0
M  V30 37 H -1.951854 2.265210 1.616962 0
M  V30 38 H -2.004092 5.062989 0.555597 0
M  V30 39 H -2.206998 3.763908 -0.637765 0
M  V30 40 H -3.356647 3.931344 0.774901 0
M  V30 41 H -0.338884 4.839088 1.892233 0
M  V30 42 H 0.898188 2.602528 2.538955 0
M  V30 43 H 0.902173 3.975078 3.616239 0
M  V30 44 H 0.105555 1.345242 4.233997 0
M  V30 45 H 0.078373 2.735436 5.309466 0
M  V30 46 H -2.119358 1.330421 3.821861 0
M  V30 47 H -2.032060 1.956486 5.458376 0
M  V30 48 H -3.530575 3.093819 3.555938 0
M  V30 49 H -3.002008 3.948154 5.003323 0
M  V30 50 H -1.434132 5.199772 3.974184 0
M  V30 51 H -2.648325 5.050916 2.694451 0
M  V30 52 H 0.054760 -2.953349 -3.039337 0
M  V30 53 H 1.476243 -4.740101 -4.013613 0
M  V30 54 H 0.678616 -6.748318 -5.238241 0
M  V30 END ATOM
M  V30 BEGIN BOND
M  V30 1 1 1 2
M  V30 2 2 2 3
M  V30 3 1 3 4
M  V30 4 1 4 5
M  V30 5 2 5 6
M  V30 6 1 6 7
M  V30 7 1 7 8
M  V30 8 2 8 9
M  V30 9 1 9 10
M  V30 10 1 10 11
M  V30 11 1 11 12
M  V30 12 2 12 13
M  V30 13 1 12 14
M  V30 14 1 14 15
M  V30 15 1 15 16
M  V30 16 1 15 17
M  V30 17 1 17 18
M  V30 18 1 18 19
M  V30 19 1 19 20
M  V30 20 1 20 21
M  V30 21 1 21 22
M  V30 22 2 10 23
M  V30 23 1 23 24
M  V30 24 2 24 25
M  V30 25 2 4 26
M  V30 26 1 26 27
M  V30 27 2 27 28
M  V30 28 1 28 2
M  V30 29 1 25 5
M  V30 30 1 25 8
M  V30 31 1 22 17
M  V30 32 1 1 29
M  V30 33 1 1 30
M  V30 34 1 1 31
M  V30 35 1 3 32
M  V30 36 1 7 33
M  V30 37 1 9 34
M  V30 38 1 11 35
M  V30 39 1 14 36
M  V30 40 1 15 37 CFG=1
M  V30 41 1 16 38
M  V30 42 1 16 39
M  V30 43 1 16 40
M  V30 44 1 17 41
M  V30 45 1 18 42
M  V30 46 1 18 43
M  V30 47 1 19 44
M  V30 48 1 19 45
M  V30 49 1 20 46
M  V30 50 1 20 47
M  V30 51 1 21 48
M  V30 52 1 21 49
M  V30 53 1 22 50
M  V30 54 1 22 51
M  V30 55 1 24 52
M  V30 56 1 26 53
M  V30 57 1 27 54
M  V30 END BOND
M  V30 END CTAB
M  END
>  <Dataset>  (525) 
ChEMBL_Kinases

>  <Ligand_Instance>  (525) 
nan

>  <PDB_ID>  (525) 
nan

>  <Standardized_SMILES>  (525) 
Cc1cc(-c2n[nH]c3cc(NC(=O)N[C@H](C)C4CCCCC4)ncc23)ccn1

>  <Name>  (525) 
nan

>  <Pocket>  (525) 
nan

>  <ATP_Site>  (525) 
nan

>  <Peripheral>  (525) 
nan

>  <Num_H_Atoms_ProtBoundConf>  (525) 
nan

>  <Num_Resolved_Atoms>  (525) 
nan

>  <Num_Not_Resolved_Atoms>  (525) 
nan

$$$$
CHEMBL3663028
     RDKit          3D

  0  0  0  0  0  0  0  0  0  0999 V3000
M  V30 BEGIN CTAB
M  V30 COUNTS 45 48 0 0 0
M  V30 BEGIN ATOM
M  V30 1 C -3.747482 -6.395083 3.332847 0
M  V30 2 C -3.556382 -5.496257 2.140127 0
M  V30 3 C -3.428200 -4.128531 2.356122 0
M  V30 4 C -3.252756 -3.335183 1.218747 0
M  V30 5 C -3.120192 -1.899671 1.470089 0
M  V30 6 N -3.864909 -1.118938 2.295872 0
M  V30 7 N -3.448323 0.136976 2.262149 0
M  V30 8 C -2.413998 0.163613 1.396291 0
M  V30 9 C -1.661956 1.264881 1.040431 0
M  V30 10 C -0.639707 1.080594 0.131391 0
M  V30 11 N 0.284259 2.022012 -0.409954 0
M  V30 12 C 1.531339 2.274363 0.227008 0
M  V30 13 O 1.756388 1.635867 1.260646 0
M  V30 14 N 2.420396 3.206398 -0.329037 0
M  V30 15 C 3.711227 3.517527 0.260254 0
M  V30 16 C 4.510803 2.232910 0.289303 0
M  V30 17 C 5.896594 2.369057 0.876620 0
M  V30 18 C 6.390025 1.547336 -0.319474 0
M  V30 19 C 5.080471 1.819221 -1.043978 0
M  V30 20 N -0.400150 -0.159570 -0.384447 0
M  V30 21 C -1.153974 -1.229704 -0.019207 0
M  V30 22 C -2.173085 -1.091149 0.875615 0
M  V30 23 C -3.215355 -3.927503 -0.035276 0
M  V30 24 C -3.349759 -5.296276 -0.174953 0
M  V30 25 N -3.521208 -6.074362 0.932794 0
M  V30 26 H -4.802932 -6.612532 3.512657 0
M  V30 27 H -3.093132 -7.300154 3.257051 0
M  V30 28 H -3.380366 -5.851539 4.238330 0
M  V30 29 H -3.464615 -3.718346 3.355892 0
M  V30 30 H -3.853688 0.932744 2.805447 0
M  V30 31 H -1.743943 2.274517 1.365019 0
M  V30 32 H 0.025005 2.533624 -1.299949 0
M  V30 33 H 2.149246 3.715180 -1.222276 0
M  V30 34 H 3.558462 3.826607 1.324283 0
M  V30 35 H 4.248877 4.290639 -0.288997 0
M  V30 36 H 4.015264 1.367884 0.771430 0
M  V30 37 H 6.075456 1.787203 1.810885 0
M  V30 38 H 6.317119 3.372872 0.954581 0
M  V30 39 H 6.534404 0.469529 -0.101898 0
M  V30 40 H 7.277325 2.065321 -0.745107 0
M  V30 41 H 5.103729 2.692464 -1.717212 0
M  V30 42 H 4.591264 0.920264 -1.488765 0
M  V30 43 H -0.963495 -2.224187 -0.431489 0
M  V30 44 H -3.076976 -3.269591 -0.889584 0
M  V30 45 H -3.322235 -5.764034 -1.140132 0
M  V30 END ATOM
M  V30 BEGIN BOND
M  V30 1 1 1 2
M  V30 2 2 2 3
M  V30 3 1 3 4
M  V30 4 1 4 5
M  V30 5 2 5 6
M  V30 6 1 6 7
M  V30 7 1 7 8
M  V30 8 2 8 9
M  V30 9 1 9 10
M  V30 10 1 10 11
M  V30 11 1 11 12
M  V30 12 2 12 13
M  V30 13 1 12 14
M  V30 14 1 14 15
M  V30 15 1 15 16
M  V30 16 1 16 17
M  V30 17 1 17 18
M  V30 18 1 18 19
M  V30 19 2 10 20
M  V30 20 1 20 21
M  V30 21 2 21 22
M  V30 22 2 4 23
M  V30 23 1 23 24
M  V30 24 2 24 25
M  V30 25 1 25 2
M  V30 26 1 22 5
M  V30 27 1 22 8
M  V30 28 1 19 16
M  V30 29 1 1 26
M  V30 30 1 1 27
M  V30 31 1 1 28
M  V30 32 1 3 29
M  V30 33 1 7 30
M  V30 34 1 9 31
M  V30 35 1 11 32
M  V30 36 1 14 33
M  V30 37 1 15 34
M  V30 38 1 15 35
M  V30 39 1 16 36
M  V30 40 1 17 37
M  V30 41 1 17 38
M  V30 42 1 18 39
M  V30 43 1 18 40
M  V30 44 1 19 41
M  V30 45 1 19 42
M  V30 46 1 21 43
M  V30 47 1 23 44
M  V30 48 1 24 45
M  V30 END BOND
M  V30 END CTAB
M  END
>  <Dataset>  (526) 
ChEMBL_Kinases

>  <Ligand_Instance>  (526) 
nan

>  <PDB_ID>  (526) 
nan

>  <Standardized_SMILES>  (526) 
Cc1cc(-c2n[nH]c3cc(NC(=O)NCC4CCC4)ncc23)ccn1

>  <Name>  (526) 
nan

>  <Pocket>  (526) 
nan

>  <ATP_Site>  (526) 
nan

>  <Peripheral>  (526) 
nan

>  <Num_H_Atoms_ProtBoundConf>  (526) 
nan

>  <Num_Resolved_Atoms>  (526) 
nan

>  <Num_Not_Resolved_Atoms>  (526) 
nan

$$$$
CHEMBL3663027
     RDKit          3D

  0  0  0  0  0  0  0  0  0  0999 V3000
M  V30 BEGIN CTAB
M  V30 COUNTS 39 41 0 0 0
M  V30 BEGIN ATOM
M  V30 1 C -1.712903 -5.651621 3.463001 0
M  V30 2 C -0.482472 -4.843450 3.699312 0
M  V30 3 C 0.046449 -4.103371 2.646726 0
M  V30 4 C 1.182016 -3.382715 2.938918 0
M  V30 5 C 1.834963 -2.564589 1.920205 0
M  V30 6 N 3.165368 -2.480342 1.639506 0
M  V30 7 N 3.369414 -1.627078 0.643414 0
M  V30 8 C 2.203387 -1.099399 0.207245 0
M  V30 9 C 1.858530 -0.189082 -0.777158 0
M  V30 10 C 0.530338 0.140423 -0.966005 0
M  V30 11 N 0.116442 1.080512 -1.974569 0
M  V30 12 C 0.016946 2.487506 -1.678956 0
M  V30 13 O 0.323195 2.794165 -0.476087 0
M  V30 14 N -0.381313 3.446720 -2.624515 0
M  V30 15 C -0.436977 4.810921 -2.196222 0
M  V30 16 C -1.375900 5.078460 -1.068155 0
M  V30 17 O -2.696025 4.754316 -1.357675 0
M  V30 18 N -0.406109 -0.447064 -0.169405 0
M  V30 19 C -0.061683 -1.333823 0.788340 0
M  V30 20 C 1.254736 -1.695956 1.015831 0
M  V30 21 C 1.746890 -3.403083 4.197811 0
M  V30 22 C 1.203255 -4.145319 5.225502 0
M  V30 23 N 0.098459 -4.835509 4.909080 0
M  V30 24 H -1.499592 -6.723869 3.307481 0
M  V30 25 H -2.395291 -5.526226 4.351614 0
M  V30 26 H -2.265978 -5.200366 2.612690 0
M  V30 27 H -0.405490 -4.100777 1.679788 0
M  V30 28 H 4.315422 -1.386697 0.239143 0
M  V30 29 H 2.633626 0.265173 -1.400209 0
M  V30 30 H -0.126035 0.785935 -2.950547 0
M  V30 31 H -0.616828 3.119783 -3.591070 0
M  V30 32 H -0.780526 5.457114 -3.052836 0
M  V30 33 H 0.549820 5.216786 -1.908806 0
M  V30 34 H -1.373489 6.182048 -0.903305 0
M  V30 35 H -1.042599 4.653174 -0.096755 0
M  V30 36 H -3.241601 4.579040 -0.576139 0
M  V30 37 H -0.859342 -1.762188 1.385165 0
M  V30 38 H 2.653245 -2.827927 4.431113 0
M  V30 39 H 1.644615 -4.162428 6.212642 0
M  V30 END ATOM
M  V30 BEGIN BOND
M  V30 1 1 1 2
M  V30 2 2 2 3
M  V30 3 1 3 4
M  V30 4 1 4 5
M  V30 5 2 5 6
M  V30 6 1 6 7
M  V30 7 1 7 8
M  V30 8 2 8 9
M  V30 9 1 9 10
M  V30 10 1 10 11
M  V30 11 1 11 12
M  V30 12 2 12 13
M  V30 13 1 12 14
M  V30 14 1 14 15
M  V30 15 1 15 16
M  V30 16 1 16 17
M  V30 17 2 10 18
M  V30 18 1 18 19
M  V30 19 2 19 20
M  V30 20 2 4 21
M  V30 21 1 21 22
M  V30 22 2 22 23
M  V30 23 1 23 2
M  V30 24 1 20 5
M  V30 25 1 20 8
M  V30 26 1 1 24
M  V30 27 1 1 25
M  V30 28 1 1 26
M  V30 29 1 3 27
M  V30 30 1 7 28
M  V30 31 1 9 29
M  V30 32 1 11 30
M  V30 33 1 14 31
M  V30 34 1 15 32
M  V30 35 1 15 33
M  V30 36 1 16 34
M  V30 37 1 16 35
M  V30 38 1 17 36
M  V30 39 1 19 37
M  V30 40 1 21 38
M  V30 41 1 22 39
M  V30 END BOND
M  V30 END CTAB
M  END
>  <Dataset>  (527) 
ChEMBL_Kinases

>  <Ligand_Instance>  (527) 
nan

>  <PDB_ID>  (527) 
nan

>  <Standardized_SMILES>  (527) 
Cc1cc(-c2n[nH]c3cc(NC(=O)NCCO)ncc23)ccn1

>  <Name>  (527) 
nan

>  <Pocket>  (527) 
nan

>  <ATP_Site>  (527) 
nan

>  <Peripheral>  (527) 
nan

>  <Num_H_Atoms_ProtBoundConf>  (527) 
nan

>  <Num_Resolved_Atoms>  (527) 
nan

>  <Num_Not_Resolved_Atoms>  (527) 
nan

$$$$
CHEMBL3663026
     RDKit          3D

  0  0  0  0  0  0  0  0  0  0999 V3000
M  V30 BEGIN CTAB
M  V30 COUNTS 48 51 0 0 0
M  V30 BEGIN ATOM
M  V30 1 C -2.364555 -5.038377 -4.529833 0
M  V30 2 C -1.606570 -5.661237 -3.430152 0
M  V30 3 C -0.690842 -4.845088 -2.802715 0
M  V30 4 C 0.083629 -5.295647 -1.762203 0
M  V30 5 C 1.080022 -4.562010 -1.010481 0
M  V30 6 N 2.309244 -5.054832 -0.688412 0
M  V30 7 N 2.978698 -4.128111 0.004512 0
M  V30 8 C 2.212941 -3.037761 0.143086 0
M  V30 9 C 2.425262 -1.804882 0.769457 0
M  V30 10 Cl 3.941288 -1.449223 1.583868 0
M  V30 11 C 1.386900 -0.868349 0.722677 0
M  V30 12 N 1.557959 0.404886 1.348562 0
M  V30 13 C 0.552576 1.409600 1.345639 0
M  V30 14 O -0.500651 1.090867 0.748760 0
M  V30 15 N 0.797716 2.647397 1.988461 0
M  V30 16 C -0.267671 3.651903 1.959307 0 CFG=2
M  V30 17 C 0.353071 4.904807 1.371206 0
M  V30 18 C -0.621782 4.018454 3.377068 0
M  V30 19 C 0.398212 4.252057 4.272456 0
M  V30 20 C 0.105576 4.589449 5.577248 0
M  V30 21 C -1.192507 4.701448 6.018267 0
M  V30 22 C -2.224882 4.466986 5.119647 0
M  V30 23 C -1.934160 4.128252 3.809681 0
M  V30 24 N 0.218296 -1.127873 0.101224 0
M  V30 25 C -0.003327 -2.325496 -0.513932 0
M  V30 26 C 1.003196 -3.270026 -0.484484 0
M  V30 27 C -0.088718 -6.619668 -1.357199 0
M  V30 28 C -1.033463 -7.397852 -2.033044 0
M  V30 29 N -1.777973 -6.927246 -3.050052 0
M  V30 30 H -2.899896 -4.114910 -4.236707 0
M  V30 31 H -1.720803 -4.834438 -5.406001 0
M  V30 32 H -3.156082 -5.759150 -4.849111 0
M  V30 33 H -0.499584 -3.800674 -3.062267 0
M  V30 34 H 3.945327 -4.183637 0.401549 0
M  V30 35 H 2.464974 0.619933 1.836841 0
M  V30 36 H 1.678253 2.891733 2.477892 0
M  V30 37 H -1.150816 3.292588 1.418949 0
M  V30 38 H 1.370622 4.984640 1.854815 0
M  V30 39 H -0.271742 5.801263 1.560755 0
M  V30 40 H 0.571467 4.761059 0.293148 0
M  V30 41 H 1.449282 4.191867 4.033117 0
M  V30 42 H 0.847076 4.788734 6.341952 0
M  V30 43 H -1.460948 4.967415 7.047097 0
M  V30 44 H -3.272361 4.539340 5.405932 0
M  V30 45 H -2.661568 3.927325 3.038557 0
M  V30 46 H -0.918451 -2.588534 -1.026484 0
M  V30 47 H 0.478532 -7.075798 -0.538724 0
M  V30 48 H -1.146741 -8.428393 -1.695203 0
M  V30 END ATOM
M  V30 BEGIN BOND
M  V30 1 1 1 2
M  V30 2 2 2 3
M  V30 3 1 3 4
M  V30 4 1 4 5
M  V30 5 2 5 6
M  V30 6 1 6 7
M  V30 7 1 7 8
M  V30 8 2 8 9
M  V30 9 1 9 10
M  V30 10 1 9 11
M  V30 11 1 11 12
M  V30 12 1 12 13
M  V30 13 2 13 14
M  V30 14 1 13 15
M  V30 15 1 15 16
M  V30 16 1 16 17
M  V30 17 1 16 18
M  V30 18 2 18 19
M  V30 19 1 19 20
M  V30 20 2 20 21
M  V30 21 1 21 22
M  V30 22 2 22 23
M  V30 23 2 11 24
M  V30 24 1 24 25
M  V30 25 2 25 26
M  V30 26 2 4 27
M  V30 27 1 27 28
M  V30 28 2 28 29
M  V30 29 1 29 2
M  V30 30 1 26 5
M  V30 31 1 26 8
M  V30 32 1 23 18
M  V30 33 1 1 30
M  V30 34 1 1 31
M  V30 35 1 1 32
M  V30 36 1 3 33
M  V30 37 1 7 34
M  V30 38 1 12 35
M  V30 39 1 15 36
M  V30 40 1 16 37 CFG=3
M  V30 41 1 17 38
M  V30 42 1 17 39
M  V30 43 1 17 40
M  V30 44 1 19 41
M  V30 45 1 20 42
M  V30 46 1 21 43
M  V30 47 1 22 44
M  V30 48 1 23 45
M  V30 49 1 25 46
M  V30 50 1 27 47
M  V30 51 1 28 48
M  V30 END BOND
M  V30 END CTAB
M  END
>  <Dataset>  (528) 
ChEMBL_Kinases

>  <Ligand_Instance>  (528) 
nan

>  <PDB_ID>  (528) 
nan

>  <Standardized_SMILES>  (528) 
Cc1cc(-c2n[nH]c3c(Cl)c(NC(=O)N[C@H](C)c4ccccc4)ncc23)ccn1

>  <Name>  (528) 
nan

>  <Pocket>  (528) 
nan

>  <ATP_Site>  (528) 
nan

>  <Peripheral>  (528) 
nan

>  <Num_H_Atoms_ProtBoundConf>  (528) 
nan

>  <Num_Resolved_Atoms>  (528) 
nan

>  <Num_Not_Resolved_Atoms>  (528) 
nan

$$$$
CHEMBL3663025
     RDKit          3D

  0  0  0  0  0  0  0  0  0  0999 V3000
M  V30 BEGIN CTAB
M  V30 COUNTS 52 55 0 0 0
M  V30 BEGIN ATOM
M  V30 1 C -2.064628 -3.545614 -2.456037 0
M  V30 2 S -1.537174 -4.736845 -1.193470 0
M  V30 3 C 0.138016 -5.313123 -1.533689 0
M  V30 4 C 1.151372 -4.196415 -1.389767 0 CFG=1
M  V30 5 N 1.127933 -3.664252 -0.039255 0
M  V30 6 C 0.835641 -2.303522 0.111166 0
M  V30 7 O 0.578191 -1.429350 -0.753185 0
M  V30 8 N 0.778089 -1.643494 1.350095 0
M  V30 9 C 0.502396 -0.301073 1.696903 0
M  V30 10 C 1.394760 0.738639 1.817864 0
M  V30 11 C 0.908950 1.989689 2.172349 0
M  V30 12 N 1.554301 3.149200 2.353559 0
M  V30 13 N 0.687179 4.109031 2.691531 0
M  V30 14 C -0.561832 3.573564 2.735390 0
M  V30 15 C -1.834765 4.219041 3.055194 0
M  V30 16 C -1.845468 5.061575 4.155578 0
M  V30 17 C -2.967262 5.746596 4.591996 0
M  V30 18 N -4.103372 5.566850 3.888694 0
M  V30 19 C -4.127356 4.756290 2.815990 0
M  V30 20 C -5.409074 4.598110 2.080612 0
M  V30 21 C -3.020595 4.066011 2.366367 0
M  V30 22 C -0.429157 2.238896 2.409351 0
M  V30 23 C -1.257161 1.145173 2.267336 0
M  V30 24 N -0.829602 -0.083817 1.925660 0
M  V30 25 C 2.500004 -4.769388 -1.640744 0
M  V30 26 C 3.197824 -4.529671 -2.808900 0
M  V30 27 C 4.447114 -5.116075 -2.936212 0
M  V30 28 C 5.051141 -5.920273 -1.990562 0
M  V30 29 C 4.325583 -6.146179 -0.820798 0
M  V30 30 C 3.072317 -5.573748 -0.662875 0
M  V30 31 H -3.035843 -3.889124 -2.883333 0
M  V30 32 H -2.175803 -2.557204 -1.933817 0
M  V30 33 H -1.308774 -3.409371 -3.249786 0
M  V30 34 H 0.174475 -5.705868 -2.561675 0
M  V30 35 H 0.384342 -6.142272 -0.851502 0
M  V30 36 H 0.940354 -3.387066 -2.108094 0
M  V30 37 H 1.319524 -4.263812 0.784841 0
M  V30 38 H 0.966467 -2.205388 2.221403 0
M  V30 39 H 2.404924 0.499260 1.626746 0
M  V30 40 H 2.583576 3.324642 2.255974 0
M  V30 41 H -0.930224 5.216354 4.735440 0
M  V30 42 H -2.906043 6.392423 5.463795 0
M  V30 43 H -6.232314 4.706423 2.815906 0
M  V30 44 H -5.442899 5.314317 1.242190 0
M  V30 45 H -5.512782 3.584046 1.615029 0
M  V30 46 H -2.998339 3.406057 1.509828 0
M  V30 47 H -2.330046 1.301466 2.447093 0
M  V30 48 H 2.773827 -3.908818 -3.581087 0
M  V30 49 H 4.986754 -4.925504 -3.849441 0
M  V30 50 H 6.037295 -6.339184 -2.176063 0
M  V30 51 H 4.800108 -6.777160 -0.079639 0
M  V30 52 H 2.602395 -5.816581 0.279739 0
M  V30 END ATOM
M  V30 BEGIN BOND
M  V30 1 1 1 2
M  V30 2 1 2 3
M  V30 3 1 3 4
M  V30 4 1 4 5
M  V30 5 1 5 6
M  V30 6 2 6 7
M  V30 7 1 6 8
M  V30 8 1 8 9
M  V30 9 2 9 10
M  V30 10 1 10 11
M  V30 11 1 11 12
M  V30 12 1 12 13
M  V30 13 2 13 14
M  V30 14 1 14 15
M  V30 15 2 15 16
M  V30 16 1 16 17
M  V30 17 2 17 18
M  V30 18 1 18 19
M  V30 19 1 19 20
M  V30 20 2 19 21
M  V30 21 1 14 22
M  V30 22 1 22 23
M  V30 23 2 23 24
M  V30 24 1 4 25
M  V30 25 2 25 26
M  V30 26 1 26 27
M  V30 27 2 27 28
M  V30 28 1 28 29
M  V30 29 2 29 30
M  V30 30 1 24 9
M  V30 31 1 30 25
M  V30 32 2 22 11
M  V30 33 1 21 15
M  V30 34 1 1 31
M  V30 35 1 1 32
M  V30 36 1 1 33
M  V30 37 1 3 34
M  V30 38 1 3 35
M  V30 39 1 4 36 CFG=3
M  V30 40 1 5 37
M  V30 41 1 8 38
M  V30 42 1 10 39
M  V30 43 1 12 40
M  V30 44 1 16 41
M  V30 45 1 17 42
M  V30 46 1 20 43
M  V30 47 1 20 44
M  V30 48 1 20 45
M  V30 49 1 21 46
M  V30 50 1 23 47
M  V30 51 1 26 48
M  V30 52 1 27 49
M  V30 53 1 28 50
M  V30 54 1 29 51
M  V30 55 1 30 52
M  V30 END BOND
M  V30 END CTAB
M  END
>  <Dataset>  (529) 
ChEMBL_Kinases

>  <Ligand_Instance>  (529) 
nan

>  <PDB_ID>  (529) 
nan

>  <Standardized_SMILES>  (529) 
CSC[C@@H](NC(=O)Nc1cc2[nH]nc(-c3ccnc(C)c3)c2cn1)c1ccccc1

>  <Name>  (529) 
nan

>  <Pocket>  (529) 
nan

>  <ATP_Site>  (529) 
nan

>  <Peripheral>  (529) 
nan

>  <Num_H_Atoms_ProtBoundConf>  (529) 
nan

>  <Num_Resolved_Atoms>  (529) 
nan

>  <Num_Not_Resolved_Atoms>  (529) 
nan

$$$$
CHEMBL3663024
     RDKit          3D

  0  0  0  0  0  0  0  0  0  0999 V3000
M  V30 BEGIN CTAB
M  V30 COUNTS 60 64 0 0 0
M  V30 BEGIN ATOM
M  V30 1 C 5.916420 4.989999 -0.034779 0
M  V30 2 C 6.358774 3.769494 -0.732233 0
M  V30 3 C 5.428769 2.811439 -1.076089 0
M  V30 4 C 5.839824 1.683938 -1.720778 0
M  V30 5 C 4.995932 0.566777 -2.159981 0
M  V30 6 N 5.053604 -0.045272 -3.359264 0
M  V30 7 N 4.160341 -1.014949 -3.444016 0
M  V30 8 C 3.525517 -1.009749 -2.264347 0
M  V30 9 C 2.499543 -1.847441 -1.868705 0
M  V30 10 C 1.996349 -1.655479 -0.598174 0
M  V30 11 N 0.947252 -2.377113 0.047328 0
M  V30 12 C -0.364101 -1.896164 -0.112208 0
M  V30 13 O -0.710957 -0.886929 -0.770755 0
M  V30 14 N -1.419682 -2.612360 0.530383 0
M  V30 15 C -2.852674 -2.302357 0.506691 0 CFG=1
M  V30 16 C -3.628920 -3.528707 0.162331 0
M  V30 17 N -4.276294 -4.008305 1.365802 0
M  V30 18 C -4.209882 -5.461820 1.452869 0
M  V30 19 C -3.625281 -3.366398 2.466950 0 CFG=2
M  V30 20 C -4.488399 -3.311794 3.709577 0
M  V30 21 F -4.839868 -4.572013 4.142355 0
M  V30 22 F -3.662384 -2.772697 4.703719 0
M  V30 23 C -3.296194 -2.014686 1.933229 0 CFG=2
M  V30 24 C -4.371391 -1.023667 2.006265 0
M  V30 25 C -5.587903 -1.183471 1.402974 0
M  V30 26 C -6.629895 -0.266433 1.450532 0
M  V30 27 C -6.398841 0.900665 2.173764 0
M  V30 28 C -5.199626 1.150203 2.817733 0
M  V30 29 C -4.239819 0.163073 2.697672 0
M  V30 30 N 2.490549 -0.691287 0.212508 0
M  V30 31 C 3.496262 0.140892 -0.155636 0
M  V30 32 C 4.005933 -0.035757 -1.410759 0
M  V30 33 C 7.199637 1.562888 -1.999754 0
M  V30 34 C 8.138663 2.525187 -1.655162 0
M  V30 35 N 7.681416 3.624366 -1.017656 0
M  V30 36 H 4.882418 5.307894 -0.320048 0
M  V30 37 H 5.861988 4.792862 1.070733 0
M  V30 38 H 6.614362 5.841569 -0.161393 0
M  V30 39 H 4.369693 2.882118 -0.870943 0
M  V30 40 H 4.007458 -1.634567 -4.268645 0
M  V30 41 H 2.024989 -2.645684 -2.419251 0
M  V30 42 H 1.116890 -3.243187 0.629694 0
M  V30 43 H -1.285341 -3.482003 1.120021 0
M  V30 44 H -3.077218 -1.406907 -0.088684 0
M  V30 45 H -4.374056 -3.416086 -0.622851 0
M  V30 46 H -2.920239 -4.333342 -0.189854 0
M  V30 47 H -3.211292 -5.792761 1.805378 0
M  V30 48 H -4.468633 -5.905149 0.471483 0
M  V30 49 H -4.953418 -5.801658 2.198467 0
M  V30 50 H -2.663135 -3.883823 2.657187 0
M  V30 51 H -5.326133 -2.614888 3.588182 0
M  V30 52 H -2.429308 -1.633227 2.506829 0
M  V30 53 H -5.806548 -2.076681 0.831708 0
M  V30 54 H -7.574440 -0.407371 0.973099 0
M  V30 55 H -7.149040 1.682441 2.273101 0
M  V30 56 H -5.001919 2.050252 3.383787 0
M  V30 57 H -3.288090 0.366364 3.211547 0
M  V30 58 H 3.898279 0.910666 0.477719 0
M  V30 59 H 7.587286 0.699675 -2.504961 0
M  V30 60 H 9.189449 2.394454 -1.889822 0
M  V30 END ATOM
M  V30 BEGIN BOND
M  V30 1 1 1 2
M  V30 2 2 2 3
M  V30 3 1 3 4
M  V30 4 1 4 5
M  V30 5 2 5 6
M  V30 6 1 6 7
M  V30 7 1 7 8
M  V30 8 2 8 9
M  V30 9 1 9 10
M  V30 10 1 10 11
M  V30 11 1 11 12
M  V30 12 2 12 13
M  V30 13 1 12 14
M  V30 14 1 14 15
M  V30 15 1 15 16
M  V30 16 1 16 17
M  V30 17 1 17 18
M  V30 18 1 17 19
M  V30 19 1 19 20
M  V30 20 1 20 21
M  V30 21 1 20 22
M  V30 22 1 19 23
M  V30 23 1 23 24
M  V30 24 2 24 25
M  V30 25 1 25 26
M  V30 26 2 26 27
M  V30 27 1 27 28
M  V30 28 2 28 29
M  V30 29 2 10 30
M  V30 30 1 30 31
M  V30 31 2 31 32
M  V30 32 2 4 33
M  V30 33 1 33 34
M  V30 34 2 34 35
M  V30 35 1 35 2
M  V30 36 1 32 5
M  V30 37 1 32 8
M  V30 38 1 23 15
M  V30 39 1 29 24
M  V30 40 1 1 36
M  V30 41 1 1 37
M  V30 42 1 1 38
M  V30 43 1 3 39
M  V30 44 1 7 40
M  V30 45 1 9 41
M  V30 46 1 11 42
M  V30 47 1 14 43
M  V30 48 1 15 44 CFG=3
M  V30 49 1 16 45
M  V30 50 1 16 46
M  V30 51 1 18 47
M  V30 52 1 18 48
M  V30 53 1 18 49
M  V30 54 1 19 50 CFG=1
M  V30 55 1 20 51
M  V30 56 1 23 52 CFG=1
M  V30 57 1 25 53
M  V30 58 1 26 54
M  V30 59 1 27 55
M  V30 60 1 28 56
M  V30 61 1 29 57
M  V30 62 1 31 58
M  V30 63 1 33 59
M  V30 64 1 34 60
M  V30 END BOND
M  V30 END CTAB
M  END
>  <Dataset>  (530) 
ChEMBL_Kinases

>  <Ligand_Instance>  (530) 
nan

>  <PDB_ID>  (530) 
nan

>  <Standardized_SMILES>  (530) 
Cc1cc(-c2n[nH]c3cc(NC(=O)N[C@H]4CN(C)[C@H](C(F)F)[C@@H]4c4ccccc4)ncc23)ccn1

>  <Name>  (530) 
nan

>  <Pocket>  (530) 
nan

>  <ATP_Site>  (530) 
nan

>  <Peripheral>  (530) 
nan

>  <Num_H_Atoms_ProtBoundConf>  (530) 
nan

>  <Num_Resolved_Atoms>  (530) 
nan

>  <Num_Not_Resolved_Atoms>  (530) 
nan

$$$$
CHEMBL3663023
     RDKit          3D

  0  0  0  0  0  0  0  0  0  0999 V3000
M  V30 BEGIN CTAB
M  V30 COUNTS 60 64 0 0 0
M  V30 BEGIN ATOM
M  V30 1 C 4.452462 -3.652703 6.861011 0
M  V30 2 C 3.686374 -2.373067 7.015047 0
M  V30 3 C 3.568317 -1.521015 5.930615 0
M  V30 4 C 2.883164 -0.319123 5.971114 0
M  V30 5 C 2.763459 0.569913 4.829130 0
M  V30 6 N 2.928865 1.912290 4.837626 0
M  V30 7 N 2.746198 2.406929 3.621189 0
M  V30 8 C 2.459757 1.356934 2.828271 0
M  V30 9 C 2.187030 1.335812 1.475830 0
M  V30 10 C 1.917116 0.133523 0.858597 0
M  V30 11 N 1.612629 -0.111436 -0.516245 0
M  V30 12 C 0.228133 -0.061466 -0.844855 0
M  V30 13 O -0.701085 0.175064 -0.032325 0
M  V30 14 N -0.164219 -0.291273 -2.179587 0
M  V30 15 C -1.543569 -0.266795 -2.635764 0 CFG=2
M  V30 16 C -1.881011 -1.640110 -3.168563 0 CFG=1
M  V30 17 C -2.924847 -2.317234 -2.358132 0
M  V30 18 C -4.090219 -1.594862 -2.278692 0
M  V30 19 C -5.193705 -2.053000 -1.565796 0
M  V30 20 C -5.090322 -3.287072 -0.919625 0
M  V30 21 C -3.909281 -4.022513 -0.998260 0
M  V30 22 C -2.825021 -3.545747 -1.713592 0
M  V30 23 C -2.266970 -1.446584 -4.604400 0
M  V30 24 N -1.869794 -0.117073 -4.987465 0
M  V30 25 C -2.911281 0.418512 -5.853093 0
M  V30 26 C -1.730667 0.665518 -3.783727 0 CFG=2
M  V30 27 C -0.663347 1.718138 -3.901866 0
M  V30 28 N 1.920406 -1.007775 1.571854 0
M  V30 29 C 2.184760 -1.023153 2.904664 0
M  V30 30 C 2.456992 0.172350 3.537635 0
M  V30 31 C 2.300154 0.017750 7.166172 0
M  V30 32 C 2.413892 -0.835012 8.264883 0
M  V30 33 N 3.096967 -2.014668 8.193046 0
M  V30 34 H 5.362926 -3.447532 6.227053 0
M  V30 35 H 3.784418 -4.408569 6.374177 0
M  V30 36 H 4.754400 -4.059908 7.838266 0
M  V30 37 H 4.045612 -1.832168 5.012111 0
M  V30 38 H 2.808714 3.404419 3.325162 0
M  V30 39 H 2.157436 2.183448 0.810176 0
M  V30 40 H 2.345744 -0.313995 -1.238436 0
M  V30 41 H 0.584960 -0.492958 -2.890550 0
M  V30 42 H -2.186890 -0.041282 -1.759103 0
M  V30 43 H -1.005275 -2.322483 -3.150504 0
M  V30 44 H -4.270686 -0.640987 -2.736496 0
M  V30 45 H -6.137442 -1.536535 -1.463200 0
M  V30 46 H -5.881836 -3.765237 -0.324780 0
M  V30 47 H -3.798430 -4.983931 -0.507417 0
M  V30 48 H -1.873949 -4.038867 -1.832259 0
M  V30 49 H -1.777649 -2.151019 -5.309092 0
M  V30 50 H -3.366523 -1.632214 -4.737328 0
M  V30 51 H -3.450370 -0.408699 -6.342140 0
M  V30 52 H -2.475892 1.083445 -6.626047 0
M  V30 53 H -3.675093 0.948922 -5.218893 0
M  V30 54 H -2.697362 1.236601 -3.667598 0
M  V30 55 H -0.652300 2.071307 -4.973029 0
M  V30 56 H 0.357373 1.368485 -3.695769 0
M  V30 57 H -0.943068 2.610361 -3.304625 0
M  V30 58 H 2.191313 -1.930879 3.491678 0
M  V30 59 H 1.759232 0.943001 7.238141 0
M  V30 60 H 1.955975 -0.568739 9.200675 0
M  V30 END ATOM
M  V30 BEGIN BOND
M  V30 1 1 1 2
M  V30 2 2 2 3
M  V30 3 1 3 4
M  V30 4 1 4 5
M  V30 5 2 5 6
M  V30 6 1 6 7
M  V30 7 1 7 8
M  V30 8 2 8 9
M  V30 9 1 9 10
M  V30 10 1 10 11
M  V30 11 1 11 12
M  V30 12 2 12 13
M  V30 13 1 12 14
M  V30 14 1 14 15
M  V30 15 1 15 16
M  V30 16 1 16 17
M  V30 17 2 17 18
M  V30 18 1 18 19
M  V30 19 2 19 20
M  V30 20 1 20 21
M  V30 21 2 21 22
M  V30 22 1 16 23
M  V30 23 1 23 24
M  V30 24 1 24 25
M  V30 25 1 24 26
M  V30 26 1 26 27
M  V30 27 2 10 28
M  V30 28 1 28 29
M  V30 29 2 29 30
M  V30 30 2 4 31
M  V30 31 1 31 32
M  V30 32 2 32 33
M  V30 33 1 33 2
M  V30 34 1 30 5
M  V30 35 1 30 8
M  V30 36 1 26 15
M  V30 37 1 22 17
M  V30 38 1 1 34
M  V30 39 1 1 35
M  V30 40 1 1 36
M  V30 41 1 3 37
M  V30 42 1 7 38
M  V30 43 1 9 39
M  V30 44 1 11 40
M  V30 45 1 14 41
M  V30 46 1 15 42 CFG=1
M  V30 47 1 16 43 CFG=3
M  V30 48 1 18 44
M  V30 49 1 19 45
M  V30 50 1 20 46
M  V30 51 1 21 47
M  V30 52 1 22 48
M  V30 53 1 23 49
M  V30 54 1 23 50
M  V30 55 1 25 51
M  V30 56 1 25 52
M  V30 57 1 25 53
M  V30 58 1 26 54 CFG=1
M  V30 59 1 27 55
M  V30 60 1 27 56
M  V30 61 1 27 57
M  V30 62 1 29 58
M  V30 63 1 31 59
M  V30 64 1 32 60
M  V30 END BOND
M  V30 END CTAB
M  END
>  <Dataset>  (531) 
ChEMBL_Kinases

>  <Ligand_Instance>  (531) 
nan

>  <PDB_ID>  (531) 
nan

>  <Standardized_SMILES>  (531) 
Cc1cc(-c2n[nH]c3cc(NC(=O)N[C@@H]4[C@@H](c5ccccc5)CN(C)[C@@H]4C)ncc23)ccn1

>  <Name>  (531) 
nan

>  <Pocket>  (531) 
nan

>  <ATP_Site>  (531) 
nan

>  <Peripheral>  (531) 
nan

>  <Num_H_Atoms_ProtBoundConf>  (531) 
nan

>  <Num_Resolved_Atoms>  (531) 
nan

>  <Num_Not_Resolved_Atoms>  (531) 
nan

$$$$
CHEMBL3663022
     RDKit          3D

  0  0  0  0  0  0  0  0  0  0999 V3000
M  V30 BEGIN CTAB
M  V30 COUNTS 60 64 0 0 0
M  V30 BEGIN ATOM
M  V30 1 C 5.632877 0.127681 7.093823 0
M  V30 2 C 5.682461 -0.967910 6.095210 0
M  V30 3 C 5.270614 -0.775766 4.783420 0
M  V30 4 C 5.306759 -1.778495 3.834976 0
M  V30 5 C 4.860678 -1.524454 2.466476 0
M  V30 6 N 5.512614 -1.911549 1.337441 0
M  V30 7 N 4.847916 -1.528959 0.251537 0
M  V30 8 C 3.751472 -0.885774 0.697765 0
M  V30 9 C 2.745306 -0.301945 -0.051928 0
M  V30 10 C 1.725766 0.297629 0.663917 0
M  V30 11 N 0.582712 0.963513 0.119082 0
M  V30 12 C -0.587735 0.162999 -0.127377 0
M  V30 13 O -0.544622 -1.080936 0.148369 0
M  V30 14 N -1.764577 0.779761 -0.672739 0
M  V30 15 C -2.900945 -0.049276 -0.901081 0 CFG=1
M  V30 16 C -4.103218 0.293076 -0.018144 0
M  V30 17 N -5.121493 -0.500146 -0.659235 0
M  V30 18 C -6.411145 -0.408315 -0.079398 0
M  V30 19 C -4.991149 -0.215509 -2.036246 0 CFG=1
M  V30 20 C -5.690607 1.034779 -2.518589 0
M  V30 21 F -5.252380 2.186534 -1.908464 0
M  V30 22 F -5.517766 1.210315 -3.877193 0
M  V30 23 C -3.507837 -0.016176 -2.249975 0 CFG=2
M  V30 24 C -2.983422 -1.191248 -3.007783 0
M  V30 25 C -2.366504 -0.901074 -4.206798 0
M  V30 26 C -1.854378 -1.939936 -4.966537 0
M  V30 27 C -1.991748 -3.221032 -4.475532 0
M  V30 28 C -2.622782 -3.478881 -3.256181 0
M  V30 29 C -3.140283 -2.456909 -2.483515 0
M  V30 30 N 1.702852 0.318229 2.023933 0
M  V30 31 C 2.680227 -0.248868 2.758672 0
M  V30 32 C 3.716129 -0.857664 2.079360 0
M  V30 33 C 5.792197 -2.998155 4.309111 0
M  V30 34 C 6.189739 -3.152208 5.609289 0
M  V30 35 N 6.138345 -2.156633 6.494093 0
M  V30 36 H 6.646923 0.339172 7.471899 0
M  V30 37 H 5.016036 -0.176796 7.965197 0
M  V30 38 H 5.134252 0.993224 6.616285 0
M  V30 39 H 4.919810 0.222027 4.564702 0
M  V30 40 H 5.112849 -1.688873 -0.746610 0
M  V30 41 H 2.657654 -0.256738 -1.123687 0
M  V30 42 H 0.518708 1.979099 -0.116421 0
M  V30 43 H -1.786544 1.807627 -0.895543 0
M  V30 44 H -2.628719 -1.092873 -0.588585 0
M  V30 45 H -3.908536 -0.061727 1.033662 0
M  V30 46 H -4.310534 1.372292 -0.018965 0
M  V30 47 H -6.952086 -1.374321 -0.272733 0
M  V30 48 H -7.069654 0.380163 -0.435688 0
M  V30 49 H -6.285360 -0.397547 1.033111 0
M  V30 50 H -5.354351 -1.109786 -2.626370 0
M  V30 51 H -6.789871 1.008750 -2.356982 0
M  V30 52 H -3.292540 0.914647 -2.812900 0
M  V30 53 H -2.255201 0.095342 -4.596604 0
M  V30 54 H -1.372778 -1.747485 -5.896657 0
M  V30 55 H -1.585102 -4.045089 -5.078589 0
M  V30 56 H -2.699145 -4.507367 -2.925183 0
M  V30 57 H -3.623678 -2.644520 -1.551581 0
M  V30 58 H 2.683305 -0.245027 3.840161 0
M  V30 59 H 5.827571 -3.807417 3.564246 0
M  V30 60 H 6.567596 -4.128438 5.948948 0
M  V30 END ATOM
M  V30 BEGIN BOND
M  V30 1 1 1 2
M  V30 2 2 2 3
M  V30 3 1 3 4
M  V30 4 1 4 5
M  V30 5 2 5 6
M  V30 6 1 6 7
M  V30 7 1 7 8
M  V30 8 2 8 9
M  V30 9 1 9 10
M  V30 10 1 10 11
M  V30 11 1 11 12
M  V30 12 2 12 13
M  V30 13 1 12 14
M  V30 14 1 14 15
M  V30 15 1 15 16
M  V30 16 1 16 17
M  V30 17 1 17 18
M  V30 18 1 17 19
M  V30 19 1 19 20
M  V30 20 1 20 21
M  V30 21 1 20 22
M  V30 22 1 19 23
M  V30 23 1 23 24
M  V30 24 2 24 25
M  V30 25 1 25 26
M  V30 26 2 26 27
M  V30 27 1 27 28
M  V30 28 2 28 29
M  V30 29 2 10 30
M  V30 30 1 30 31
M  V30 31 2 31 32
M  V30 32 2 4 33
M  V30 33 1 33 34
M  V30 34 2 34 35
M  V30 35 1 35 2
M  V30 36 1 32 5
M  V30 37 1 32 8
M  V30 38 1 23 15
M  V30 39 1 29 24
M  V30 40 1 1 36
M  V30 41 1 1 37
M  V30 42 1 1 38
M  V30 43 1 3 39
M  V30 44 1 7 40
M  V30 45 1 9 41
M  V30 46 1 11 42
M  V30 47 1 14 43
M  V30 48 1 15 44 CFG=1
M  V30 49 1 16 45
M  V30 50 1 16 46
M  V30 51 1 18 47
M  V30 52 1 18 48
M  V30 53 1 18 49
M  V30 54 1 19 50 CFG=3
M  V30 55 1 20 51
M  V30 56 1 23 52 CFG=3
M  V30 57 1 25 53
M  V30 58 1 26 54
M  V30 59 1 27 55
M  V30 60 1 28 56
M  V30 61 1 29 57
M  V30 62 1 31 58
M  V30 63 1 33 59
M  V30 64 1 34 60
M  V30 END BOND
M  V30 END CTAB
M  END
>  <Dataset>  (532) 
ChEMBL_Kinases

>  <Ligand_Instance>  (532) 
nan

>  <PDB_ID>  (532) 
nan

>  <Standardized_SMILES>  (532) 
Cc1cc(-c2n[nH]c3cc(NC(=O)N[C@H]4CN(C)[C@@H](C(F)F)[C@@H]4c4ccccc4)ncc23)ccn1

>  <Name>  (532) 
nan

>  <Pocket>  (532) 
nan

>  <ATP_Site>  (532) 
nan

>  <Peripheral>  (532) 
nan

>  <Num_H_Atoms_ProtBoundConf>  (532) 
nan

>  <Num_Resolved_Atoms>  (532) 
nan

>  <Num_Not_Resolved_Atoms>  (532) 
nan

$$$$
CHEMBL3663021
     RDKit          3D

  0  0  0  0  0  0  0  0  0  0999 V3000
M  V30 BEGIN CTAB
M  V30 COUNTS 54 57 0 0 0
M  V30 BEGIN ATOM
M  V30 1 C 3.332676 4.249309 -5.747876 0
M  V30 2 C 4.060437 3.017239 -5.304644 0
M  V30 3 C 3.406429 2.162433 -4.443871 0
M  V30 4 C 4.000668 0.995406 -3.995193 0
M  V30 5 C 3.467131 -0.015621 -3.108093 0
M  V30 6 N 3.577180 -1.320230 -3.398263 0
M  V30 7 N 3.025319 -2.061860 -2.450736 0
M  V30 8 C 2.512659 -1.287441 -1.469367 0
M  V30 9 C 1.847971 -1.382020 -0.258901 0
M  V30 10 C 1.471807 -0.278226 0.516018 0
M  V30 11 N 0.811818 -0.853657 1.663535 0
M  V30 12 C -0.623197 -0.913670 1.475826 0
M  V30 13 O -1.367691 -0.513780 0.541623 0
M  V30 14 N -1.196987 -1.582147 2.631991 0
M  V30 15 C -2.622352 -1.838656 2.833866 0
M  V30 16 C -2.867893 -3.216389 2.293909 0
M  V30 17 S -4.488054 -3.841439 2.405635 0
M  V30 18 C -5.098491 -4.060202 4.057704 0
M  V30 19 O -5.477978 -3.050604 1.576572 0
M  V30 20 O -4.471140 -5.204088 1.757840 0
M  V30 21 C -3.120954 -1.538090 4.154566 0
M  V30 22 C -4.307237 -0.824258 4.380752 0
M  V30 23 C -4.726323 -0.578920 5.699443 0
M  V30 24 C -4.009013 -1.018063 6.781109 0
M  V30 25 C -2.835416 -1.722856 6.582485 0
M  V30 26 C -2.436491 -1.958505 5.279458 0
M  V30 27 N 1.790138 0.949380 0.028624 0
M  V30 28 C 2.432113 1.058266 -1.140651 0
M  V30 29 C 2.806629 -0.004539 -1.910403 0
M  V30 30 C 5.267856 0.805950 -4.490106 0
M  V30 31 C 5.954290 1.617019 -5.336370 0
M  V30 32 N 5.309873 2.750510 -5.742922 0
M  V30 33 H 2.231109 4.075440 -5.795070 0
M  V30 34 H 3.744111 4.518905 -6.740078 0
M  V30 35 H 3.552477 5.038376 -5.007931 0
M  V30 36 H 2.394861 2.329250 -4.054915 0
M  V30 37 H 2.951033 -3.107054 -2.383341 0
M  V30 38 H 1.707202 -2.448931 -0.062976 0
M  V30 39 H 1.486672 -1.157102 2.410278 0
M  V30 40 H -0.694972 -1.964972 3.456699 0
M  V30 41 H -3.129152 -1.134880 2.094038 0
M  V30 42 H -2.523330 -3.272185 1.252451 0
M  V30 43 H -2.219081 -3.967276 2.841763 0
M  V30 44 H -5.728733 -5.008959 4.047234 0
M  V30 45 H -4.292637 -4.211398 4.797898 0
M  V30 46 H -5.821311 -3.263910 4.275176 0
M  V30 47 H -4.853525 -0.493971 3.496315 0
M  V30 48 H -5.642962 -0.024093 5.820144 0
M  V30 49 H -4.349245 -0.818694 7.778902 0
M  V30 50 H -2.285188 -2.054574 7.454644 0
M  V30 51 H -1.499316 -2.523601 5.241573 0
M  V30 52 H 2.638565 2.073377 -1.449976 0
M  V30 53 H 5.842985 -0.086701 -4.212274 0
M  V30 54 H 6.955616 1.439248 -5.715418 0
M  V30 END ATOM
M  V30 BEGIN BOND
M  V30 1 1 1 2
M  V30 2 2 2 3
M  V30 3 1 3 4
M  V30 4 1 4 5
M  V30 5 2 5 6
M  V30 6 1 6 7
M  V30 7 1 7 8
M  V30 8 2 8 9
M  V30 9 1 9 10
M  V30 10 1 10 11
M  V30 11 1 11 12
M  V30 12 2 12 13
M  V30 13 1 12 14
M  V30 14 1 14 15
M  V30 15 1 15 16
M  V30 16 1 16 17
M  V30 17 1 17 18
M  V30 18 2 17 19
M  V30 19 2 17 20
M  V30 20 1 15 21
M  V30 21 2 21 22
M  V30 22 1 22 23
M  V30 23 2 23 24
M  V30 24 1 24 25
M  V30 25 2 25 26
M  V30 26 2 10 27
M  V30 27 1 27 28
M  V30 28 2 28 29
M  V30 29 2 4 30
M  V30 30 1 30 31
M  V30 31 2 31 32
M  V30 32 1 32 2
M  V30 33 1 29 5
M  V30 34 1 29 8
M  V30 35 1 26 21
M  V30 36 1 1 33
M  V30 37 1 1 34
M  V30 38 1 1 35
M  V30 39 1 3 36
M  V30 40 1 7 37
M  V30 41 1 9 38
M  V30 42 1 11 39
M  V30 43 1 14 40
M  V30 44 1 15 41
M  V30 45 1 16 42
M  V30 46 1 16 43
M  V30 47 1 18 44
M  V30 48 1 18 45
M  V30 49 1 18 46
M  V30 50 1 22 47
M  V30 51 1 23 48
M  V30 52 1 24 49
M  V30 53 1 25 50
M  V30 54 1 26 51
M  V30 55 1 28 52
M  V30 56 1 30 53
M  V30 57 1 31 54
M  V30 END BOND
M  V30 END CTAB
M  END
>  <Dataset>  (533) 
ChEMBL_Kinases

>  <Ligand_Instance>  (533) 
nan

>  <PDB_ID>  (533) 
nan

>  <Standardized_SMILES>  (533) 
Cc1cc(-c2n[nH]c3cc(NC(=O)NC(CS(C)(=O)=O)c4ccccc4)ncc23)ccn1

>  <Name>  (533) 
nan

>  <Pocket>  (533) 
nan

>  <ATP_Site>  (533) 
nan

>  <Peripheral>  (533) 
nan

>  <Num_H_Atoms_ProtBoundConf>  (533) 
nan

>  <Num_Resolved_Atoms>  (533) 
nan

>  <Num_Not_Resolved_Atoms>  (533) 
nan

$$$$
CHEMBL3663020
     RDKit          3D

  0  0  0  0  0  0  0  0  0  0999 V3000
M  V30 BEGIN CTAB
M  V30 COUNTS 43 46 0 0 0
M  V30 BEGIN ATOM
M  V30 1 O 1.959824 -1.069896 -0.461082 0
M  V30 2 C 1.145949 -1.108472 -1.423259 0
M  V30 3 N 1.654917 -1.504287 -2.672061 0
M  V30 4 C 3.060778 -1.841247 -2.788463 0
M  V30 5 C 3.941545 -0.671589 -2.411653 0
M  V30 6 C 3.683729 0.521536 -3.305564 0
M  V30 7 C 4.759221 -0.046096 -4.240823 0
M  V30 8 C 5.335461 -0.758421 -3.035809 0
M  V30 9 N -0.249891 -0.770696 -1.293449 0
M  V30 10 C -0.667653 -0.381859 0.013481 0
M  V30 11 C -0.691294 0.885183 0.566758 0
M  V30 12 C -1.140358 1.030311 1.866581 0
M  V30 13 N -1.242780 2.163973 2.586760 0
M  V30 14 N -1.722353 1.790847 3.771587 0
M  V30 15 C -1.923728 0.456248 3.815612 0
M  V30 16 C -2.438113 -0.321950 4.940968 0
M  V30 17 C -1.885198 -1.513997 5.363009 0
M  V30 18 C -2.370022 -2.247680 6.423873 0
M  V30 19 C -3.469655 -1.781287 7.116329 0
M  V30 20 F -3.935896 -2.516474 8.160358 0
M  V30 21 C -4.054199 -0.586854 6.723077 0
M  V30 22 C -3.544737 0.139899 5.643866 0
M  V30 23 C -1.555907 -0.071453 2.593535 0
M  V30 24 C -1.522741 -1.326410 2.018525 0
M  V30 25 N -1.079689 -1.432934 0.750219 0
M  V30 26 H 1.066323 -1.570577 -3.537120 0
M  V30 27 H 3.318312 -2.259772 -3.770158 0
M  V30 28 H 3.246428 -2.658304 -2.036676 0
M  V30 29 H 4.043800 -0.474413 -1.345240 0
M  V30 30 H 2.663481 0.517448 -3.779573 0
M  V30 31 H 4.034953 1.500210 -2.930747 0
M  V30 32 H 5.441724 0.703721 -4.673686 0
M  V30 33 H 4.279674 -0.751099 -4.934521 0
M  V30 34 H 6.074327 -0.140907 -2.503555 0
M  V30 35 H 5.670024 -1.796459 -3.195645 0
M  V30 36 H -0.844515 -0.833466 -2.148813 0
M  V30 37 H -0.342291 1.658715 -0.102225 0
M  V30 38 H -1.002968 3.137220 2.297143 0
M  V30 39 H -1.023835 -1.906487 4.842441 0
M  V30 40 H -1.914960 -3.181651 6.733331 0
M  V30 41 H -4.912381 -0.260524 7.293775 0
M  V30 42 H -4.017808 1.074086 5.351730 0
M  V30 43 H -1.852530 -2.173520 2.605953 0
M  V30 END ATOM
M  V30 BEGIN BOND
M  V30 1 2 1 2
M  V30 2 1 2 3
M  V30 3 1 3 4
M  V30 4 1 4 5
M  V30 5 1 5 6
M  V30 6 1 6 7
M  V30 7 1 7 8
M  V30 8 1 2 9
M  V30 9 1 9 10
M  V30 10 2 10 11
M  V30 11 1 11 12
M  V30 12 1 12 13
M  V30 13 1 13 14
M  V30 14 2 14 15
M  V30 15 1 15 16
M  V30 16 2 16 17
M  V30 17 1 17 18
M  V30 18 2 18 19
M  V30 19 1 19 20
M  V30 20 1 19 21
M  V30 21 2 21 22
M  V30 22 1 15 23
M  V30 23 1 23 24
M  V30 24 2 24 25
M  V30 25 1 8 5
M  V30 26 1 25 10
M  V30 27 2 23 12
M  V30 28 1 22 16
M  V30 29 1 3 26
M  V30 30 1 4 27
M  V30 31 1 4 28
M  V30 32 1 5 29
M  V30 33 1 6 30
M  V30 34 1 6 31
M  V30 35 1 7 32
M  V30 36 1 7 33
M  V30 37 1 8 34
M  V30 38 1 8 35
M  V30 39 1 9 36
M  V30 40 1 11 37
M  V30 41 1 13 38
M  V30 42 1 17 39
M  V30 43 1 18 40
M  V30 44 1 21 41
M  V30 45 1 22 42
M  V30 46 1 24 43
M  V30 END BOND
M  V30 END CTAB
M  END
>  <Dataset>  (534) 
ChEMBL_Kinases

>  <Ligand_Instance>  (534) 
nan

>  <PDB_ID>  (534) 
nan

>  <Standardized_SMILES>  (534) 
O=C(NCC1CCC1)Nc1cc2[nH]nc(-c3ccc(F)cc3)c2cn1

>  <Name>  (534) 
nan

>  <Pocket>  (534) 
nan

>  <ATP_Site>  (534) 
nan

>  <Peripheral>  (534) 
nan

>  <Num_H_Atoms_ProtBoundConf>  (534) 
nan

>  <Num_Resolved_Atoms>  (534) 
nan

>  <Num_Not_Resolved_Atoms>  (534) 
nan

$$$$
CHEMBL3663019
     RDKit          3D

  0  0  0  0  0  0  0  0  0  0999 V3000
M  V30 BEGIN CTAB
M  V30 COUNTS 47 49 0 0 0
M  V30 BEGIN ATOM
M  V30 1 C -4.472342 -6.148120 -0.087560 0
M  V30 2 N -3.432539 -5.829120 0.841230 0
M  V30 3 C -2.348794 -5.094087 0.268441 0
M  V30 4 C -1.371841 -4.703034 1.316245 0
M  V30 5 N -0.940624 -5.326435 2.440079 0
M  V30 6 N -0.046391 -4.595596 3.083132 0
M  V30 7 C 0.168322 -3.426809 2.409316 0
M  V30 8 C 1.008874 -2.337093 2.675338 0
M  V30 9 C 0.930042 -1.323319 1.717479 0
M  V30 10 N 1.735689 -0.156691 1.858781 0
M  V30 11 C 1.696223 0.920720 0.935387 0
M  V30 12 O 0.882607 0.781239 -0.039093 0
M  V30 13 N 2.429841 2.112633 0.952040 0
M  V30 14 C 2.264191 3.123222 -0.088578 0 CFG=2
M  V30 15 C 3.526462 3.482870 -0.783621 0
M  V30 16 C 1.630250 4.299412 0.607197 0
M  V30 17 C 2.076933 4.763220 1.823012 0
M  V30 18 C 1.566351 5.818040 2.529440 0
M  V30 19 C 0.491228 6.448359 1.913637 0
M  V30 20 C 0.001905 6.034136 0.705605 0
M  V30 21 C 0.545557 4.960388 0.018627 0
M  V30 22 N 0.120809 -1.375425 0.627827 0
M  V30 23 C -0.674219 -2.469103 0.428538 0
M  V30 24 C -0.667955 -3.521214 1.316932 0
M  V30 25 C -1.641965 -5.822264 -0.846901 0
M  V30 26 F -2.568777 -6.068368 -1.840923 0
M  V30 27 F -0.690699 -4.962718 -1.353111 0
M  V30 28 F -1.110226 -7.012205 -0.444698 0
M  V30 29 H -5.491044 -6.126510 0.397057 0
M  V30 30 H -4.322534 -7.094956 -0.650727 0
M  V30 31 H -4.495340 -5.316817 -0.852955 0
M  V30 32 H -3.111188 -6.647338 1.409841 0
M  V30 33 H -2.790699 -4.162984 -0.168441 0
M  V30 34 H 0.437257 -4.846754 3.967102 0
M  V30 35 H 1.640267 -2.297132 3.525974 0
M  V30 36 H 2.413026 0.054789 2.594639 0
M  V30 37 H 3.090429 2.231825 1.738741 0
M  V30 38 H 1.524342 2.771748 -0.853169 0
M  V30 39 H 3.331437 3.639160 -1.851455 0
M  V30 40 H 4.051675 4.356496 -0.343770 0
M  V30 41 H 4.237683 2.636773 -0.681855 0
M  V30 42 H 2.929695 4.246404 2.288005 0
M  V30 43 H 1.943015 6.156606 3.482989 0
M  V30 44 H -0.000395 7.299256 2.376824 0
M  V30 45 H -0.837689 6.480949 0.165525 0
M  V30 46 H 0.237749 4.554360 -0.934538 0
M  V30 47 H -1.306515 -2.452782 -0.471986 0
M  V30 END ATOM
M  V30 BEGIN BOND
M  V30 1 1 1 2
M  V30 2 1 2 3
M  V30 3 1 3 4
M  V30 4 2 4 5
M  V30 5 1 5 6
M  V30 6 1 6 7
M  V30 7 2 7 8
M  V30 8 1 8 9
M  V30 9 1 9 10
M  V30 10 1 10 11
M  V30 11 2 11 12
M  V30 12 1 11 13
M  V30 13 1 13 14
M  V30 14 1 14 15
M  V30 15 1 14 16
M  V30 16 2 16 17
M  V30 17 1 17 18
M  V30 18 2 18 19
M  V30 19 1 19 20
M  V30 20 2 20 21
M  V30 21 2 9 22
M  V30 22 1 22 23
M  V30 23 2 23 24
M  V30 24 1 3 25
M  V30 25 1 25 26
M  V30 26 1 25 27
M  V30 27 1 25 28
M  V30 28 1 24 4
M  V30 29 1 24 7
M  V30 30 1 21 16
M  V30 31 1 1 29
M  V30 32 1 1 30
M  V30 33 1 1 31
M  V30 34 1 2 32
M  V30 35 1 3 33
M  V30 36 1 6 34
M  V30 37 1 8 35
M  V30 38 1 10 36
M  V30 39 1 13 37
M  V30 40 1 14 38 CFG=3
M  V30 41 1 15 39
M  V30 42 1 15 40
M  V30 43 1 15 41
M  V30 44 1 17 42
M  V30 45 1 18 43
M  V30 46 1 19 44
M  V30 47 1 20 45
M  V30 48 1 21 46
M  V30 49 1 23 47
M  V30 END BOND
M  V30 END CTAB
M  END
>  <Dataset>  (535) 
ChEMBL_Kinases

>  <Ligand_Instance>  (535) 
nan

>  <PDB_ID>  (535) 
nan

>  <Standardized_SMILES>  (535) 
CNC(c1n[nH]c2cc(NC(=O)N[C@H](C)c3ccccc3)ncc12)C(F)(F)F

>  <Name>  (535) 
nan

>  <Pocket>  (535) 
nan

>  <ATP_Site>  (535) 
nan

>  <Peripheral>  (535) 
nan

>  <Num_H_Atoms_ProtBoundConf>  (535) 
nan

>  <Num_Resolved_Atoms>  (535) 
nan

>  <Num_Not_Resolved_Atoms>  (535) 
nan

$$$$
CHEMBL3663018
     RDKit          3D

  0  0  0  0  0  0  0  0  0  0999 V3000
M  V30 BEGIN CTAB
M  V30 COUNTS 44 46 0 0 0
M  V30 BEGIN ATOM
M  V30 1 C 0.254200 -4.313617 3.687128 0
M  V30 2 C 0.221603 -3.867250 2.266751 0 CFG=1
M  V30 3 N 1.075897 -2.708606 2.032746 0
M  V30 4 C 0.641607 -1.432106 1.587677 0
M  V30 5 O -0.592958 -1.302009 1.380267 0
M  V30 6 N 1.610845 -0.383081 1.402467 0
M  V30 7 C 1.141812 0.887423 0.954484 0
M  V30 8 C 1.106451 1.061763 -0.415017 0
M  V30 9 C 0.663324 2.266980 -0.922252 0
M  V30 10 N 0.502523 2.765892 -2.153965 0
M  V30 11 N 0.036144 3.996808 -2.050305 0
M  V30 12 C -0.125478 4.349640 -0.759930 0
M  V30 13 C -0.634915 5.676128 -0.341404 0
M  V30 14 N -0.042488 6.177847 0.867895 0
M  V30 15 C -2.153817 5.659624 -0.217354 0
M  V30 16 F -2.644992 6.911030 0.178460 0
M  V30 17 F -2.565477 4.733054 0.700812 0
M  V30 18 F -2.749055 5.405007 -1.431735 0
M  V30 19 C 0.267341 3.264667 -0.027082 0
M  V30 20 C 0.309998 3.071241 1.337961 0
M  V30 21 N 0.748984 1.880739 1.781744 0
M  V30 22 C 0.634608 -4.943060 1.341191 0
M  V30 23 C 1.968990 -5.220192 1.174973 0
M  V30 24 C 2.320766 -6.223679 0.309681 0
M  V30 25 C 1.388822 -6.955758 -0.391468 0
M  V30 26 C 0.034064 -6.700868 -0.246085 0
M  V30 27 C -0.289309 -5.682436 0.634072 0
M  V30 28 H 1.305140 -4.437621 4.015216 0
M  V30 29 H -0.316637 -3.623867 4.337839 0
M  V30 30 H -0.294232 -5.287192 3.734715 0
M  V30 31 H -0.814775 -3.496383 2.013568 0
M  V30 32 H 2.104363 -2.833242 2.210450 0
M  V30 33 H 2.636108 -0.581257 1.601968 0
M  V30 34 H 1.417495 0.276784 -1.096377 0
M  V30 35 H 0.732328 2.206431 -3.005728 0
M  V30 36 H -0.406136 6.442131 -1.130898 0
M  V30 37 H 0.929336 5.846729 1.004577 0
M  V30 38 H -0.657774 6.147036 1.693518 0
M  V30 39 H -0.001643 3.858198 2.012810 0
M  V30 40 H 2.757324 -4.695417 1.684645 0
M  V30 41 H 3.346798 -6.495827 0.129738 0
M  V30 42 H 1.651170 -7.747476 -1.075055 0
M  V30 43 H -0.786073 -7.209557 -0.743440 0
M  V30 44 H -1.334393 -5.415470 0.808332 0
M  V30 END ATOM
M  V30 BEGIN BOND
M  V30 1 1 1 2
M  V30 2 1 2 3
M  V30 3 1 3 4
M  V30 4 2 4 5
M  V30 5 1 4 6
M  V30 6 1 6 7
M  V30 7 2 7 8
M  V30 8 1 8 9
M  V30 9 1 9 10
M  V30 10 1 10 11
M  V30 11 2 11 12
M  V30 12 1 12 13
M  V30 13 1 13 14
M  V30 14 1 13 15
M  V30 15 1 15 16
M  V30 16 1 15 17
M  V30 17 1 15 18
M  V30 18 1 12 19
M  V30 19 1 19 20
M  V30 20 2 20 21
M  V30 21 1 2 22
M  V30 22 2 22 23
M  V30 23 1 23 24
M  V30 24 2 24 25
M  V30 25 1 25 26
M  V30 26 2 26 27
M  V30 27 1 21 7
M  V30 28 1 27 22
M  V30 29 2 19 9
M  V30 30 1 1 28
M  V30 31 1 1 29
M  V30 32 1 1 30
M  V30 33 1 2 31 CFG=3
M  V30 34 1 3 32
M  V30 35 1 6 33
M  V30 36 1 8 34
M  V30 37 1 10 35
M  V30 38 1 13 36
M  V30 39 1 14 37
M  V30 40 1 14 38
M  V30 41 1 20 39
M  V30 42 1 23 40
M  V30 43 1 24 41
M  V30 44 1 25 42
M  V30 45 1 26 43
M  V30 46 1 27 44
M  V30 END BOND
M  V30 END CTAB
M  END
>  <Dataset>  (536) 
ChEMBL_Kinases

>  <Ligand_Instance>  (536) 
nan

>  <PDB_ID>  (536) 
nan

>  <Standardized_SMILES>  (536) 
C[C@@H](NC(=O)Nc1cc2[nH]nc(C(N)C(F)(F)F)c2cn1)c1ccccc1

>  <Name>  (536) 
nan

>  <Pocket>  (536) 
nan

>  <ATP_Site>  (536) 
nan

>  <Peripheral>  (536) 
nan

>  <Num_H_Atoms_ProtBoundConf>  (536) 
nan

>  <Num_Resolved_Atoms>  (536) 
nan

>  <Num_Not_Resolved_Atoms>  (536) 
nan

$$$$
CHEMBL3663017
     RDKit          3D

  0  0  0  0  0  0  0  0  0  0999 V3000
M  V30 BEGIN CTAB
M  V30 COUNTS 47 49 0 0 0
M  V30 BEGIN ATOM
M  V30 1 C 1.760236 1.962557 -5.519658 0
M  V30 2 C 1.523295 0.626214 -4.934202 0 CFG=1
M  V30 3 N 0.257864 0.461945 -4.269911 0
M  V30 4 C 0.187257 0.059100 -2.922106 0
M  V30 5 O 1.253519 -0.149853 -2.328336 0
M  V30 6 N -0.991420 -0.133820 -2.165335 0
M  V30 7 C -1.162693 -0.529316 -0.824022 0
M  V30 8 C -0.190525 -0.833841 0.093080 0
M  V30 9 C -0.421934 -1.212958 1.396209 0
M  V30 10 N 0.343813 -1.547535 2.440284 0
M  V30 11 N -0.454459 -1.821826 3.456402 0
M  V30 12 C -1.746665 -1.685829 3.142227 0
M  V30 13 C -2.939122 -1.903659 4.018842 0
M  V30 14 N -3.509675 -0.655580 4.454437 0
M  V30 15 C -2.539428 0.119013 5.189513 0
M  V30 16 C -3.142627 1.449021 5.645839 0
M  V30 17 F -2.182550 2.142051 6.333222 0
M  V30 18 F -4.235129 1.276455 6.458342 0
M  V30 19 C -1.739327 -1.295209 1.820629 0
M  V30 20 C -2.704801 -0.992352 0.907648 0
M  V30 21 N -2.416819 -0.628046 -0.351782 0
M  V30 22 C 1.583021 -0.381156 -6.028171 0
M  V30 23 C 0.442974 -0.509114 -6.821817 0
M  V30 24 C 0.360608 -1.399913 -7.865656 0
M  V30 25 C 1.466139 -2.209839 -8.140644 0
M  V30 26 C 2.609601 -2.093540 -7.357722 0
M  V30 27 C 2.674504 -1.183606 -6.302954 0
M  V30 28 H 2.419036 2.624620 -4.926935 0
M  V30 29 H 0.822252 2.552247 -5.729210 0
M  V30 30 H 2.266503 1.854224 -6.499717 0
M  V30 31 H 2.323459 0.370305 -4.183222 0
M  V30 32 H -0.656321 0.637093 -4.766797 0
M  V30 33 H -1.820480 0.068411 -2.760101 0
M  V30 34 H 0.828316 -0.782549 -0.193141 0
M  V30 35 H 1.386540 -1.563532 2.377999 0
M  V30 36 H -3.695341 -2.491922 3.455518 0
M  V30 37 H -2.644595 -2.475343 4.920457 0
M  V30 38 H -3.875425 -0.080882 3.686817 0
M  V30 39 H -1.724799 0.378198 4.484452 0
M  V30 40 H -2.165254 -0.371948 6.101834 0
M  V30 41 H -3.379586 2.032159 4.721747 0
M  V30 42 H -3.735958 -1.057123 1.237625 0
M  V30 43 H -0.488700 0.061450 -6.716244 0
M  V30 44 H -0.488593 -1.540526 -8.507869 0
M  V30 45 H 1.426610 -2.925969 -8.964513 0
M  V30 46 H 3.496698 -2.716736 -7.549817 0
M  V30 47 H 3.548146 -1.066207 -5.673829 0
M  V30 END ATOM
M  V30 BEGIN BOND
M  V30 1 1 1 2
M  V30 2 1 2 3
M  V30 3 1 3 4
M  V30 4 2 4 5
M  V30 5 1 4 6
M  V30 6 1 6 7
M  V30 7 2 7 8
M  V30 8 1 8 9
M  V30 9 1 9 10
M  V30 10 1 10 11
M  V30 11 2 11 12
M  V30 12 1 12 13
M  V30 13 1 13 14
M  V30 14 1 14 15
M  V30 15 1 15 16
M  V30 16 1 16 17
M  V30 17 1 16 18
M  V30 18 1 12 19
M  V30 19 1 19 20
M  V30 20 2 20 21
M  V30 21 1 2 22
M  V30 22 2 22 23
M  V30 23 1 23 24
M  V30 24 2 24 25
M  V30 25 1 25 26
M  V30 26 2 26 27
M  V30 27 1 21 7
M  V30 28 1 27 22
M  V30 29 2 19 9
M  V30 30 1 1 28
M  V30 31 1 1 29
M  V30 32 1 1 30
M  V30 33 1 2 31 CFG=1
M  V30 34 1 3 32
M  V30 35 1 6 33
M  V30 36 1 8 34
M  V30 37 1 10 35
M  V30 38 1 13 36
M  V30 39 1 13 37
M  V30 40 1 14 38
M  V30 41 1 15 39
M  V30 42 1 15 40
M  V30 43 1 16 41
M  V30 44 1 20 42
M  V30 45 1 23 43
M  V30 46 1 24 44
M  V30 47 1 25 45
M  V30 48 1 26 46
M  V30 49 1 27 47
M  V30 END BOND
M  V30 END CTAB
M  END
>  <Dataset>  (537) 
ChEMBL_Kinases

>  <Ligand_Instance>  (537) 
nan

>  <PDB_ID>  (537) 
nan

>  <Standardized_SMILES>  (537) 
C[C@@H](NC(=O)Nc1cc2[nH]nc(CNCC(F)F)c2cn1)c1ccccc1

>  <Name>  (537) 
nan

>  <Pocket>  (537) 
nan

>  <ATP_Site>  (537) 
nan

>  <Peripheral>  (537) 
nan

>  <Num_H_Atoms_ProtBoundConf>  (537) 
nan

>  <Num_Resolved_Atoms>  (537) 
nan

>  <Num_Not_Resolved_Atoms>  (537) 
nan

$$$$
CHEMBL3663016
     RDKit          3D

  0  0  0  0  0  0  0  0  0  0999 V3000
M  V30 BEGIN CTAB
M  V30 COUNTS 47 49 0 0 0
M  V30 BEGIN ATOM
M  V30 1 C -0.677359 -4.756823 3.814097 0
M  V30 2 C -0.819251 -3.938820 2.579864 0 CFG=1
M  V30 3 N 0.408855 -3.436183 2.027598 0
M  V30 4 C 0.707949 -2.070298 1.713080 0
M  V30 5 O -0.274732 -1.346283 1.986932 0
M  V30 6 N 1.997832 -1.742751 1.167469 0
M  V30 7 C 2.102964 -0.349352 0.911859 0
M  V30 8 C 1.697592 -0.030638 -0.390510 0
M  V30 9 C 1.731541 1.281375 -0.818640 0
M  V30 10 N 1.417248 1.887280 -1.978694 0
M  V30 11 N 1.612722 3.192773 -1.937729 0
M  V30 12 C 2.078981 3.505545 -0.706802 0
M  V30 13 C 2.464380 4.829732 -0.192736 0
M  V30 14 N 1.590855 5.375570 0.711921 0
M  V30 15 C 0.276015 5.708258 0.592746 0
M  V30 16 C -0.847104 4.788165 0.476623 0
M  V30 17 F -2.021095 5.568830 0.379265 0
M  V30 18 F -1.054066 4.103001 1.687725 0
M  V30 19 F -0.935802 3.901920 -0.520554 0
M  V30 20 C 2.159803 2.322793 0.005179 0
M  V30 21 C 2.540544 1.939489 1.263589 0
M  V30 22 N 2.521350 0.666853 1.717236 0
M  V30 23 C -1.612842 -4.703219 1.575053 0
M  V30 24 C -2.993183 -4.534033 1.451055 0
M  V30 25 C -3.807355 -5.190966 0.553292 0
M  V30 26 C -3.197409 -6.099002 -0.300052 0
M  V30 27 C -1.845840 -6.302583 -0.219980 0
M  V30 28 C -1.078089 -5.620726 0.694843 0
M  V30 29 H -0.811908 -5.834946 3.534179 0
M  V30 30 H 0.266826 -4.592143 4.375095 0
M  V30 31 H -1.546233 -4.503497 4.489596 0
M  V30 32 H -1.454775 -3.029341 2.794970 0
M  V30 33 H 1.099418 -4.229369 1.871195 0
M  V30 34 H 2.719788 -2.498609 1.001569 0
M  V30 35 H 1.346829 -0.739556 -1.122855 0
M  V30 36 H 1.056218 1.404243 -2.835658 0
M  V30 37 H 3.438598 4.624942 0.365321 0
M  V30 38 H 2.833194 5.504192 -1.008883 0
M  V30 39 H 1.993979 5.580203 1.658862 0
M  V30 40 H 0.190216 6.463181 -0.268539 0
M  V30 41 H 0.015995 6.395824 1.468543 0
M  V30 42 H 2.882451 2.695716 1.954110 0
M  V30 43 H -3.424372 -3.801129 2.149882 0
M  V30 44 H -4.874243 -4.927733 0.602137 0
M  V30 45 H -3.854029 -6.595977 -0.990621 0
M  V30 46 H -1.428708 -7.016105 -0.907277 0
M  V30 47 H -0.003664 -5.794075 0.746240 0
M  V30 END ATOM
M  V30 BEGIN BOND
M  V30 1 1 1 2
M  V30 2 1 2 3
M  V30 3 1 3 4
M  V30 4 2 4 5
M  V30 5 1 4 6
M  V30 6 1 6 7
M  V30 7 2 7 8
M  V30 8 1 8 9
M  V30 9 1 9 10
M  V30 10 1 10 11
M  V30 11 2 11 12
M  V30 12 1 12 13
M  V30 13 1 13 14
M  V30 14 1 14 15
M  V30 15 1 15 16
M  V30 16 1 16 17
M  V30 17 1 16 18
M  V30 18 1 16 19
M  V30 19 1 12 20
M  V30 20 1 20 21
M  V30 21 2 21 22
M  V30 22 1 2 23
M  V30 23 2 23 24
M  V30 24 1 24 25
M  V30 25 2 25 26
M  V30 26 1 26 27
M  V30 27 2 27 28
M  V30 28 1 22 7
M  V30 29 1 28 23
M  V30 30 2 20 9
M  V30 31 1 1 29
M  V30 32 1 1 30
M  V30 33 1 1 31
M  V30 34 1 2 32 CFG=1
M  V30 35 1 3 33
M  V30 36 1 6 34
M  V30 37 1 8 35
M  V30 38 1 10 36
M  V30 39 1 13 37
M  V30 40 1 13 38
M  V30 41 1 14 39
M  V30 42 1 15 40
M  V30 43 1 15 41
M  V30 44 1 21 42
M  V30 45 1 24 43
M  V30 46 1 25 44
M  V30 47 1 26 45
M  V30 48 1 27 46
M  V30 49 1 28 47
M  V30 END BOND
M  V30 END CTAB
M  END
>  <Dataset>  (538) 
ChEMBL_Kinases

>  <Ligand_Instance>  (538) 
nan

>  <PDB_ID>  (538) 
nan

>  <Standardized_SMILES>  (538) 
C[C@@H](NC(=O)Nc1cc2[nH]nc(CNCC(F)(F)F)c2cn1)c1ccccc1

>  <Name>  (538) 
nan

>  <Pocket>  (538) 
nan

>  <ATP_Site>  (538) 
nan

>  <Peripheral>  (538) 
nan

>  <Num_H_Atoms_ProtBoundConf>  (538) 
nan

>  <Num_Resolved_Atoms>  (538) 
nan

>  <Num_Not_Resolved_Atoms>  (538) 
nan

$$$$
CHEMBL3663064
     RDKit          3D

  0  0  0  0  0  0  0  0  0  0999 V3000
M  V30 BEGIN CTAB
M  V30 COUNTS 40 42 0 0 0
M  V30 BEGIN ATOM
M  V30 1 C 1.049820 -4.564282 2.337765 0
M  V30 2 C 0.173785 -3.442959 1.916238 0 CFG=1
M  V30 3 N 0.671322 -2.696176 0.771707 0
M  V30 4 C 0.929984 -1.307968 0.942784 0
M  V30 5 O 0.744472 -0.732789 2.024511 0
M  V30 6 N 1.414587 -0.658475 -0.233700 0
M  V30 7 C 1.706665 0.731524 -0.186077 0
M  V30 8 C 0.606950 1.516816 -0.517109 0
M  V30 9 C 0.713181 2.896768 -0.521573 0
M  V30 10 N -0.139546 3.907312 -0.788394 0
M  V30 11 N 0.461865 5.087614 -0.647722 0
M  V30 12 C 1.754155 4.879232 -0.276649 0
M  V30 13 C 2.755947 5.928053 -0.018679 0
M  V30 14 O 2.971640 6.102100 1.364337 0
M  V30 15 C 1.909852 3.511271 -0.198127 0
M  V30 16 C 2.963863 2.705099 0.120512 0
M  V30 17 N 2.876382 1.364451 0.129273 0
M  V30 18 C -1.212117 -3.899148 1.542574 0
M  V30 19 C -1.463490 -4.440142 0.297207 0
M  V30 20 C -2.766676 -4.841145 0.019068 0
M  V30 21 C -3.809858 -4.719215 0.934932 0
M  V30 22 C -3.534727 -4.172087 2.182315 0
M  V30 23 C -2.235841 -3.774371 2.454374 0
M  V30 24 H 1.345623 -5.264404 1.558269 0
M  V30 25 H 1.890318 -4.146870 2.928490 0
M  V30 26 H 0.459441 -5.162465 3.076485 0
M  V30 27 H 0.075106 -2.751139 2.792450 0
M  V30 28 H 0.820286 -3.200660 -0.128876 0
M  V30 29 H 1.572901 -1.152321 -1.158159 0
M  V30 30 H -0.382369 1.155004 -0.787882 0
M  V30 31 H -1.147359 3.795835 -1.070605 0
M  V30 32 H 2.359347 6.909498 -0.382557 0
M  V30 33 H 3.720891 5.770663 -0.539583 0
M  V30 34 H 2.067411 6.006399 1.764879 0
M  V30 35 H 3.915950 3.135121 0.378762 0
M  V30 36 H -0.699407 -4.555148 -0.439447 0
M  V30 37 H -3.061744 -5.281221 -0.942022 0
M  V30 38 H -4.810036 -5.039394 0.689426 0
M  V30 39 H -4.361891 -4.088367 2.874260 0
M  V30 40 H -2.103201 -3.360460 3.442371 0
M  V30 END ATOM
M  V30 BEGIN BOND
M  V30 1 1 1 2
M  V30 2 1 2 3
M  V30 3 1 3 4
M  V30 4 2 4 5
M  V30 5 1 4 6
M  V30 6 1 6 7
M  V30 7 2 7 8
M  V30 8 1 8 9
M  V30 9 1 9 10
M  V30 10 1 10 11
M  V30 11 2 11 12
M  V30 12 1 12 13
M  V30 13 1 13 14
M  V30 14 1 12 15
M  V30 15 1 15 16
M  V30 16 2 16 17
M  V30 17 1 2 18
M  V30 18 2 18 19
M  V30 19 1 19 20
M  V30 20 2 20 21
M  V30 21 1 21 22
M  V30 22 2 22 23
M  V30 23 1 17 7
M  V30 24 1 23 18
M  V30 25 2 15 9
M  V30 26 1 1 24
M  V30 27 1 1 25
M  V30 28 1 1 26
M  V30 29 1 2 27 CFG=1
M  V30 30 1 3 28
M  V30 31 1 6 29
M  V30 32 1 8 30
M  V30 33 1 10 31
M  V30 34 1 13 32
M  V30 35 1 13 33
M  V30 36 1 14 34
M  V30 37 1 16 35
M  V30 38 1 19 36
M  V30 39 1 20 37
M  V30 40 1 21 38
M  V30 41 1 22 39
M  V30 42 1 23 40
M  V30 END BOND
M  V30 END CTAB
M  END
>  <Dataset>  (539) 
ChEMBL_Kinases

>  <Ligand_Instance>  (539) 
nan

>  <PDB_ID>  (539) 
nan

>  <Standardized_SMILES>  (539) 
C[C@@H](NC(=O)Nc1cc2[nH]nc(CO)c2cn1)c1ccccc1

>  <Name>  (539) 
nan

>  <Pocket>  (539) 
nan

>  <ATP_Site>  (539) 
nan

>  <Peripheral>  (539) 
nan

>  <Num_H_Atoms_ProtBoundConf>  (539) 
nan

>  <Num_Resolved_Atoms>  (539) 
nan

>  <Num_Not_Resolved_Atoms>  (539) 
nan

$$$$
CHEMBL3662999
     RDKit          3D

  0  0  0  0  0  0  0  0  0  0999 V3000
M  V30 BEGIN CTAB
M  V30 COUNTS 49 52 0 0 0
M  V30 BEGIN ATOM
M  V30 1 C 2.517408 -7.600795 1.507398 0
M  V30 2 C 2.953897 -6.931482 0.239038 0
M  V30 3 C 2.763479 -5.577475 0.126082 0
M  V30 4 C 3.139087 -4.869419 -1.018890 0
M  V30 5 C 2.950192 -3.427717 -1.170924 0
M  V30 6 N 3.863064 -2.562524 -1.652382 0
M  V30 7 N 3.377346 -1.317118 -1.661087 0
M  V30 8 C 2.123305 -1.397138 -1.171834 0
M  V30 9 C 1.186793 -0.395843 -0.971208 0
M  V30 10 F 1.365886 0.898161 -1.240254 0
M  V30 11 C -0.049449 -0.752308 -0.445770 0
M  V30 12 N -1.136662 0.139035 -0.170753 0
M  V30 13 C -1.222879 0.750356 1.119707 0
M  V30 14 O -0.370182 0.529839 2.027002 0
M  V30 15 N -2.344977 1.627352 1.302765 0
M  V30 16 C -2.519712 2.300277 2.589732 0 CFG=2
M  V30 17 C -3.797418 1.893586 3.264290 0
M  V30 18 O -4.942883 2.165672 2.558932 0
M  V30 19 C -2.443158 3.760111 2.356477 0
M  V30 20 C -1.443865 4.252451 1.546194 0
M  V30 21 C -1.278807 5.591133 1.260964 0
M  V30 22 C -2.167441 6.496681 1.819767 0
M  V30 23 C -3.196393 6.045495 2.647378 0
M  V30 24 C -3.300747 4.703002 2.887450 0
M  V30 25 N -0.322159 -2.043289 -0.141605 0
M  V30 26 C 0.580651 -3.034115 -0.331042 0
M  V30 27 C 1.816240 -2.706307 -0.851779 0
M  V30 28 C 3.716943 -5.555192 -2.061817 0
M  V30 29 C 3.896441 -6.928826 -1.915952 0
M  V30 30 N 3.527781 -7.606783 -0.799043 0
M  V30 31 H 1.437431 -7.438016 1.698774 0
M  V30 32 H 2.716840 -8.673545 1.442926 0
M  V30 33 H 3.082900 -7.207310 2.380053 0
M  V30 34 H 2.310584 -5.032675 0.940521 0
M  V30 35 H 3.839123 -0.434952 -1.973655 0
M  V30 36 H -1.798392 0.261535 -0.988971 0
M  V30 37 H -3.037674 1.794016 0.536567 0
M  V30 38 H -1.685841 1.978707 3.228433 0
M  V30 39 H -3.835042 2.448537 4.224543 0
M  V30 40 H -3.706187 0.825798 3.563208 0
M  V30 41 H -5.359848 1.299199 2.312628 0
M  V30 42 H -0.695703 3.632186 1.058600 0
M  V30 43 H -0.504361 6.000502 0.629649 0
M  V30 44 H -2.156778 7.587900 1.680361 0
M  V30 45 H -3.901546 6.736821 3.094080 0
M  V30 46 H -4.093388 4.347230 3.525946 0
M  V30 47 H 0.362384 -4.065477 -0.087891 0
M  V30 48 H 4.035175 -5.080384 -2.981263 0
M  V30 49 H 4.341440 -7.534344 -2.687749 0
M  V30 END ATOM
M  V30 BEGIN BOND
M  V30 1 1 1 2
M  V30 2 2 2 3
M  V30 3 1 3 4
M  V30 4 1 4 5
M  V30 5 2 5 6
M  V30 6 1 6 7
M  V30 7 1 7 8
M  V30 8 2 8 9
M  V30 9 1 9 10
M  V30 10 1 9 11
M  V30 11 1 11 12
M  V30 12 1 12 13
M  V30 13 2 13 14
M  V30 14 1 13 15
M  V30 15 1 15 16
M  V30 16 1 16 17
M  V30 17 1 17 18
M  V30 18 1 16 19
M  V30 19 2 19 20
M  V30 20 1 20 21
M  V30 21 2 21 22
M  V30 22 1 22 23
M  V30 23 2 23 24
M  V30 24 2 11 25
M  V30 25 1 25 26
M  V30 26 2 26 27
M  V30 27 2 4 28
M  V30 28 1 28 29
M  V30 29 2 29 30
M  V30 30 1 30 2
M  V30 31 1 27 5
M  V30 32 1 27 8
M  V30 33 1 24 19
M  V30 34 1 1 31
M  V30 35 1 1 32
M  V30 36 1 1 33
M  V30 37 1 3 34
M  V30 38 1 7 35
M  V30 39 1 12 36
M  V30 40 1 15 37
M  V30 41 1 16 38 CFG=1
M  V30 42 1 17 39
M  V30 43 1 17 40
M  V30 44 1 18 41
M  V30 45 1 20 42
M  V30 46 1 21 43
M  V30 47 1 22 44
M  V30 48 1 23 45
M  V30 49 1 24 46
M  V30 50 1 26 47
M  V30 51 1 28 48
M  V30 52 1 29 49
M  V30 END BOND
M  V30 END CTAB
M  END
>  <Dataset>  (540) 
ChEMBL_Kinases

>  <Ligand_Instance>  (540) 
nan

>  <PDB_ID>  (540) 
nan

>  <Standardized_SMILES>  (540) 
Cc1cc(-c2n[nH]c3c(F)c(NC(=O)N[C@H](CO)c4ccccc4)ncc23)ccn1

>  <Name>  (540) 
nan

>  <Pocket>  (540) 
nan

>  <ATP_Site>  (540) 
nan

>  <Peripheral>  (540) 
nan

>  <Num_H_Atoms_ProtBoundConf>  (540) 
nan

>  <Num_Resolved_Atoms>  (540) 
nan

>  <Num_Not_Resolved_Atoms>  (540) 
nan

$$$$
CHEMBL3663000
     RDKit          3D

  0  0  0  0  0  0  0  0  0  0999 V3000
M  V30 BEGIN CTAB
M  V30 COUNTS 49 52 0 0 0
M  V30 BEGIN ATOM
M  V30 1 C 2.269205 -5.397623 4.274431 0
M  V30 2 O 2.030093 -4.943151 2.957065 0
M  V30 3 C 0.696648 -4.601790 2.896178 0
M  V30 4 C 0.257293 -4.086778 1.538943 0 CFG=1
M  V30 5 N 0.987133 -2.901875 1.150566 0
M  V30 6 C 0.364606 -1.609293 1.028550 0
M  V30 7 O -0.863562 -1.474399 1.263147 0
M  V30 8 N 1.269247 -0.575272 0.632696 0
M  V30 9 C 0.723360 0.732850 0.491304 0
M  V30 10 C 0.752332 1.511766 1.633823 0
M  V30 11 C 0.248192 2.797680 1.607327 0
M  V30 12 N 0.115495 3.805940 2.496462 0
M  V30 13 N -0.454206 4.850973 1.920496 0
M  V30 14 C -0.717908 4.557626 0.614261 0
M  V30 15 C -1.346678 5.493154 -0.312948 0
M  V30 16 C -2.457674 6.175383 0.192959 0
M  V30 17 C -3.174426 7.096601 -0.543247 0
M  V30 18 N -2.742595 7.314088 -1.805966 0
M  V30 19 C -1.691260 6.691030 -2.334478 0
M  V30 20 C -0.959755 5.763451 -1.610946 0
M  V30 21 C -0.281274 3.265647 0.398729 0
M  V30 22 C -0.301307 2.473257 -0.730845 0
M  V30 23 N 0.200653 1.215829 -0.673793 0
M  V30 24 C 0.239952 -5.146441 0.518471 0
M  V30 25 C 0.454847 -6.495694 0.721139 0
M  V30 26 C 0.418527 -7.418781 -0.302250 0
M  V30 27 C 0.154518 -6.946650 -1.569890 0
M  V30 28 C -0.067663 -5.610443 -1.829952 0
M  V30 29 C -0.023185 -4.708335 -0.772888 0
M  V30 30 H 3.325229 -5.697051 4.419234 0
M  V30 31 H 2.062829 -4.552825 4.977885 0
M  V30 32 H 1.552829 -6.225400 4.517158 0
M  V30 33 H 0.034049 -5.455942 3.145094 0
M  V30 34 H 0.501143 -3.772049 3.632293 0
M  V30 35 H -0.798086 -3.745962 1.696105 0
M  V30 36 H 2.004973 -3.106820 0.974475 0
M  V30 37 H 2.283901 -0.682642 0.438080 0
M  V30 38 H 1.154279 1.160057 2.556071 0
M  V30 39 H 0.458575 3.653557 3.481425 0
M  V30 40 H -2.812455 6.001930 1.218818 0
M  V30 41 H -4.037306 7.603859 -0.100378 0
M  V30 42 H -1.338632 6.857079 -3.340097 0
M  V30 43 H -0.093594 5.193904 -1.922169 0
M  V30 44 H -0.717448 2.857741 -1.658456 0
M  V30 45 H 0.656161 -6.796287 1.738795 0
M  V30 46 H 0.597913 -8.448050 -0.049678 0
M  V30 47 H 0.139355 -7.731926 -2.340751 0
M  V30 48 H -0.264337 -5.365244 -2.865832 0
M  V30 49 H -0.217086 -3.684131 -1.121817 0
M  V30 END ATOM
M  V30 BEGIN BOND
M  V30 1 1 1 2
M  V30 2 1 2 3
M  V30 3 1 3 4
M  V30 4 1 4 5
M  V30 5 1 5 6
M  V30 6 2 6 7
M  V30 7 1 6 8
M  V30 8 1 8 9
M  V30 9 2 9 10
M  V30 10 1 10 11
M  V30 11 1 11 12
M  V30 12 1 12 13
M  V30 13 2 13 14
M  V30 14 1 14 15
M  V30 15 2 15 16
M  V30 16 1 16 17
M  V30 17 2 17 18
M  V30 18 1 18 19
M  V30 19 2 19 20
M  V30 20 1 14 21
M  V30 21 1 21 22
M  V30 22 2 22 23
M  V30 23 1 4 24
M  V30 24 2 24 25
M  V30 25 1 25 26
M  V30 26 2 26 27
M  V30 27 1 27 28
M  V30 28 2 28 29
M  V30 29 1 23 9
M  V30 30 1 29 24
M  V30 31 2 21 11
M  V30 32 1 20 15
M  V30 33 1 1 30
M  V30 34 1 1 31
M  V30 35 1 1 32
M  V30 36 1 3 33
M  V30 37 1 3 34
M  V30 38 1 4 35 CFG=1
M  V30 39 1 5 36
M  V30 40 1 8 37
M  V30 41 1 10 38
M  V30 42 1 12 39
M  V30 43 1 16 40
M  V30 44 1 17 41
M  V30 45 1 19 42
M  V30 46 1 20 43
M  V30 47 1 22 44
M  V30 48 1 25 45
M  V30 49 1 26 46
M  V30 50 1 27 47
M  V30 51 1 28 48
M  V30 52 1 29 49
M  V30 END BOND
M  V30 END CTAB
M  END
>  <Dataset>  (541) 
ChEMBL_Kinases

>  <Ligand_Instance>  (541) 
nan

>  <PDB_ID>  (541) 
nan

>  <Standardized_SMILES>  (541) 
COC[C@@H](NC(=O)Nc1cc2[nH]nc(-c3ccncc3)c2cn1)c1ccccc1

>  <Name>  (541) 
nan

>  <Pocket>  (541) 
nan

>  <ATP_Site>  (541) 
nan

>  <Peripheral>  (541) 
nan

>  <Num_H_Atoms_ProtBoundConf>  (541) 
nan

>  <Num_Resolved_Atoms>  (541) 
nan

>  <Num_Not_Resolved_Atoms>  (541) 
nan

$$$$
CHEMBL3663001
     RDKit          3D

  0  0  0  0  0  0  0  0  0  0999 V3000
M  V30 BEGIN CTAB
M  V30 COUNTS 46 49 0 0 0
M  V30 BEGIN ATOM
M  V30 1 O -1.121104 -0.747678 1.618962 0
M  V30 2 C -0.271675 -1.613684 2.001401 0
M  V30 3 N 1.149641 -1.598003 1.768845 0
M  V30 4 C 1.598094 -0.465111 1.023598 0
M  V30 5 C 1.619551 -0.621996 -0.351511 0
M  V30 6 C 2.041792 0.430210 -1.144831 0
M  V30 7 N 2.190129 0.634948 -2.470066 0
M  V30 8 N 2.639769 1.855539 -2.679691 0
M  V30 9 C 2.810837 2.518571 -1.498809 0
M  V30 10 C 3.296752 3.893107 -1.373430 0
M  V30 11 C 2.685991 4.749113 -2.283324 0
M  V30 12 C 3.028028 6.088269 -2.303286 0
M  V30 13 N 3.952027 6.562431 -1.441886 0
M  V30 14 C 4.535847 5.720276 -0.565165 0
M  V30 15 C 4.225055 4.357235 -0.504453 0
M  V30 16 C 2.428633 1.608266 -0.513292 0
M  V30 17 C 2.403250 1.754910 0.866256 0
M  V30 18 N 1.982955 0.702189 1.621869 0
M  V30 19 N -0.899185 -2.661238 2.723933 0
M  V30 20 C -2.325889 -2.718293 2.981962 0 CFG=2
M  V30 21 C -2.656208 -2.776383 4.436213 0
M  V30 22 O -2.139174 -1.623365 5.028547 0
M  V30 23 C -2.831532 -3.892502 2.223634 0
M  V30 24 C -2.346351 -3.980308 0.933048 0
M  V30 25 C -2.689167 -4.993404 0.058354 0
M  V30 26 C -3.560018 -5.953233 0.517947 0
M  V30 27 C -4.055192 -5.882788 1.803253 0
M  V30 28 C -3.694877 -4.852837 2.664675 0
M  V30 29 H 1.655595 -2.415804 2.176512 0
M  V30 30 H 1.311415 -1.555477 -0.823494 0
M  V30 31 H 1.968881 -0.095265 -3.189438 0
M  V30 32 H 1.930441 4.521400 -3.034273 0
M  V30 33 H 2.617927 6.844798 -2.967171 0
M  V30 34 H 5.281249 6.091175 0.133110 0
M  V30 35 H 4.651605 3.651301 0.162486 0
M  V30 36 H 2.707502 2.678975 1.347200 0
M  V30 37 H -0.332109 -3.460326 3.110874 0
M  V30 38 H -2.849779 -1.842598 2.542632 0
M  V30 39 H -2.256907 -3.637756 4.966243 0
M  V30 40 H -3.764543 -2.677820 4.518340 0
M  V30 41 H -1.425173 -1.188495 4.527452 0
M  V30 42 H -1.649420 -3.251133 0.500495 0
M  V30 43 H -2.300404 -5.049274 -0.951658 0
M  V30 44 H -3.883759 -6.787164 -0.104007 0
M  V30 45 H -4.727779 -6.626663 2.153956 0
M  V30 46 H -4.044425 -4.740583 3.675890 0
M  V30 END ATOM
M  V30 BEGIN BOND
M  V30 1 2 1 2
M  V30 2 1 2 3
M  V30 3 1 3 4
M  V30 4 2 4 5
M  V30 5 1 5 6
M  V30 6 1 6 7
M  V30 7 1 7 8
M  V30 8 2 8 9
M  V30 9 1 9 10
M  V30 10 2 10 11
M  V30 11 1 11 12
M  V30 12 2 12 13
M  V30 13 1 13 14
M  V30 14 2 14 15
M  V30 15 1 9 16
M  V30 16 1 16 17
M  V30 17 2 17 18
M  V30 18 1 2 19
M  V30 19 1 19 20
M  V30 20 1 20 21
M  V30 21 1 21 22
M  V30 22 1 20 23
M  V30 23 2 23 24
M  V30 24 1 24 25
M  V30 25 2 25 26
M  V30 26 1 26 27
M  V30 27 2 27 28
M  V30 28 1 18 4
M  V30 29 1 28 23
M  V30 30 2 16 6
M  V30 31 1 15 10
M  V30 32 1 3 29
M  V30 33 1 5 30
M  V30 34 1 7 31
M  V30 35 1 11 32
M  V30 36 1 12 33
M  V30 37 1 14 34
M  V30 38 1 15 35
M  V30 39 1 17 36
M  V30 40 1 19 37
M  V30 41 1 20 38 CFG=3
M  V30 42 1 21 39
M  V30 43 1 21 40
M  V30 44 1 22 41
M  V30 45 1 24 42
M  V30 46 1 25 43
M  V30 47 1 26 44
M  V30 48 1 27 45
M  V30 49 1 28 46
M  V30 END BOND
M  V30 END CTAB
M  END
>  <Dataset>  (542) 
ChEMBL_Kinases

>  <Ligand_Instance>  (542) 
nan

>  <PDB_ID>  (542) 
nan

>  <Standardized_SMILES>  (542) 
O=C(Nc1cc2[nH]nc(-c3ccncc3)c2cn1)N[C@H](CO)c1ccccc1

>  <Name>  (542) 
nan

>  <Pocket>  (542) 
nan

>  <ATP_Site>  (542) 
nan

>  <Peripheral>  (542) 
nan

>  <Num_H_Atoms_ProtBoundConf>  (542) 
nan

>  <Num_Resolved_Atoms>  (542) 
nan

>  <Num_Not_Resolved_Atoms>  (542) 
nan

$$$$
CHEMBL3663002
     RDKit          3D

  0  0  0  0  0  0  0  0  0  0999 V3000
M  V30 BEGIN CTAB
M  V30 COUNTS 49 52 0 0 0
M  V30 BEGIN ATOM
M  V30 1 C 1.658429 -1.009608 -4.862856 0
M  V30 2 O 0.553445 -1.809131 -5.062135 0
M  V30 3 C -0.337309 -1.674423 -4.024254 0
M  V30 4 C 0.221888 -2.099554 -2.692110 0 CFG=1
M  V30 5 N -0.787995 -1.938289 -1.634474 0
M  V30 6 C -0.524698 -1.022995 -0.602998 0
M  V30 7 O 0.512967 -0.292002 -0.465414 0
M  V30 8 N -1.427863 -0.785776 0.469989 0
M  V30 9 C -1.248422 0.118192 1.555368 0
M  V30 10 N -0.639995 -0.390700 2.645016 0
M  V30 11 C -0.408606 0.360121 3.743988 0
M  V30 12 C -0.794886 1.684030 3.777701 0
M  V30 13 C -0.708601 2.701143 4.721844 0
M  V30 14 C -0.119379 2.587804 6.052118 0
M  V30 15 C 1.084881 1.976965 6.361066 0
M  V30 16 C 1.531324 1.939202 7.674742 0
M  V30 17 N 0.793850 2.496837 8.652085 0
M  V30 18 C -0.375790 3.090200 8.352541 0
M  V30 19 C -0.885767 3.167179 7.067008 0
M  V30 20 N -1.273021 3.763384 4.138818 0
M  V30 21 N -1.695824 3.474683 2.915986 0
M  V30 22 C -1.420075 2.196161 2.650224 0
M  V30 23 C -1.666389 1.441484 1.512675 0
M  V30 24 F -2.263523 1.893612 0.408929 0
M  V30 25 C 0.723756 -3.486857 -2.727425 0
M  V30 26 C -0.354972 -4.380486 -2.671006 0
M  V30 27 C -0.140091 -5.763552 -2.687868 0
M  V30 28 C 1.135946 -6.278459 -2.760272 0
M  V30 29 C 2.180515 -5.380133 -2.814742 0
M  V30 30 C 1.995761 -4.014592 -2.799558 0
M  V30 31 H 2.258081 -1.207494 -3.974522 0
M  V30 32 H 2.352498 -1.014718 -5.734853 0
M  V30 33 H 1.346473 0.080015 -4.800394 0
M  V30 34 H -0.571828 -0.572229 -3.924781 0
M  V30 35 H -1.322100 -2.151333 -4.234304 0
M  V30 36 H 1.052886 -1.414669 -2.446597 0
M  V30 37 H -1.683396 -2.422518 -1.553289 0
M  V30 38 H -2.349913 -1.310435 0.518302 0
M  V30 39 H 0.086439 -0.078658 4.612655 0
M  V30 40 H 1.594929 1.562464 5.501859 0
M  V30 41 H 2.488294 1.424232 7.732559 0
M  V30 42 H -0.930109 3.524574 9.183920 0
M  V30 43 H -1.838301 3.667947 6.934514 0
M  V30 44 H -2.168022 4.157328 2.278903 0
M  V30 45 H -1.419820 -4.145390 -2.611394 0
M  V30 46 H -0.935312 -6.493996 -2.646521 0
M  V30 47 H 1.370450 -7.317922 -2.777030 0
M  V30 48 H 3.204251 -5.717340 -2.872562 0
M  V30 49 H 2.737845 -3.241747 -2.835850 0
M  V30 END ATOM
M  V30 BEGIN BOND
M  V30 1 1 1 2
M  V30 2 1 2 3
M  V30 3 1 3 4
M  V30 4 1 4 5
M  V30 5 1 5 6
M  V30 6 2 6 7
M  V30 7 1 6 8
M  V30 8 1 8 9
M  V30 9 2 9 10
M  V30 10 1 10 11
M  V30 11 2 11 12
M  V30 12 1 12 13
M  V30 13 1 13 14
M  V30 14 2 14 15
M  V30 15 1 15 16
M  V30 16 2 16 17
M  V30 17 1 17 18
M  V30 18 2 18 19
M  V30 19 2 13 20
M  V30 20 1 20 21
M  V30 21 1 21 22
M  V30 22 2 22 23
M  V30 23 1 23 24
M  V30 24 1 4 25
M  V30 25 2 25 26
M  V30 26 1 26 27
M  V30 27 2 27 28
M  V30 28 1 28 29
M  V30 29 2 29 30
M  V30 30 1 23 9
M  V30 31 1 30 25
M  V30 32 1 22 12
M  V30 33 1 19 14
M  V30 34 1 1 31
M  V30 35 1 1 32
M  V30 36 1 1 33
M  V30 37 1 3 34
M  V30 38 1 3 35
M  V30 39 1 4 36 CFG=1
M  V30 40 1 5 37
M  V30 41 1 8 38
M  V30 42 1 11 39
M  V30 43 1 15 40
M  V30 44 1 16 41
M  V30 45 1 18 42
M  V30 46 1 19 43
M  V30 47 1 21 44
M  V30 48 1 26 45
M  V30 49 1 27 46
M  V30 50 1 28 47
M  V30 51 1 29 48
M  V30 52 1 30 49
M  V30 END BOND
M  V30 END CTAB
M  END
>  <Dataset>  (543) 
ChEMBL_Kinases

>  <Ligand_Instance>  (543) 
nan

>  <PDB_ID>  (543) 
nan

>  <Standardized_SMILES>  (543) 
COC[C@@H](NC(=O)Nc1ncc2c(-c3ccncc3)n[nH]c2c1F)c1ccccc1

>  <Name>  (543) 
nan

>  <Pocket>  (543) 
nan

>  <ATP_Site>  (543) 
nan

>  <Peripheral>  (543) 
nan

>  <Num_H_Atoms_ProtBoundConf>  (543) 
nan

>  <Num_Resolved_Atoms>  (543) 
nan

>  <Num_Not_Resolved_Atoms>  (543) 
nan

$$$$
CHEMBL3663003
     RDKit          3D

  0  0  0  0  0  0  0  0  0  0999 V3000
M  V30 BEGIN CTAB
M  V30 COUNTS 46 49 0 0 0
M  V30 BEGIN ATOM
M  V30 1 O -0.925123 -0.330648 1.412302 0
M  V30 2 C -0.333434 -1.261539 2.056475 0
M  V30 3 N 0.996528 -1.738976 1.775710 0
M  V30 4 C 1.582400 -1.024922 0.662600 0
M  V30 5 N 2.285459 0.098239 0.972759 0
M  V30 6 C 2.883971 0.857631 0.020610 0
M  V30 7 C 2.777390 0.480724 -1.303734 0
M  V30 8 C 3.263869 1.034194 -2.471958 0
M  V30 9 C 4.071912 2.240720 -2.637064 0
M  V30 10 C 5.199432 2.339975 -3.459686 0
M  V30 11 C 5.891566 3.533416 -3.541310 0
M  V30 12 N 5.548009 4.619074 -2.873519 0
M  V30 13 C 4.490112 4.591695 -2.077119 0
M  V30 14 C 3.775634 3.415399 -1.972047 0
M  V30 15 N 2.829445 0.210493 -3.465327 0
M  V30 16 N 2.120134 -0.793326 -2.978755 0
M  V30 17 C 2.067389 -0.657404 -1.640920 0
M  V30 18 C 1.463375 -1.420312 -0.658589 0
M  V30 19 F 0.756891 -2.541734 -0.925661 0
M  V30 20 N -1.105183 -1.814416 3.107777 0
M  V30 21 C -2.450100 -1.375243 3.438461 0 CFG=2
M  V30 22 C -2.534608 -0.778382 4.814909 0
M  V30 23 O -1.672874 0.322326 4.847624 0
M  V30 24 C -3.440432 -2.457455 3.225521 0
M  V30 25 C -3.342522 -3.182621 2.057780 0
M  V30 26 C -4.188301 -4.216270 1.719604 0
M  V30 27 C -5.168579 -4.486054 2.653704 0
M  V30 28 C -5.338626 -3.821977 3.831276 0
M  V30 29 C -4.444620 -2.788848 4.103795 0
M  V30 30 H 1.339783 -2.511187 2.397929 0
M  V30 31 H 3.438063 1.747135 0.291814 0
M  V30 32 H 5.472794 1.431435 -4.007746 0
M  V30 33 H 6.752544 3.500496 -4.210107 0
M  V30 34 H 4.205517 5.482535 -1.527114 0
M  V30 35 H 2.913123 3.470604 -1.293754 0
M  V30 36 H 1.674451 -1.564040 -3.538346 0
M  V30 37 H -0.701858 -2.590354 3.698199 0
M  V30 38 H -2.698026 -0.563787 2.717495 0
M  V30 39 H -3.582685 -0.419528 4.931588 0
M  V30 40 H -2.337637 -1.481259 5.627476 0
M  V30 41 H -1.514381 0.646905 3.940642 0
M  V30 42 H -2.553712 -2.945615 1.334585 0
M  V30 43 H -4.069759 -4.752084 0.794596 0
M  V30 44 H -5.876091 -5.285061 2.464604 0
M  V30 45 H -6.105689 -4.040772 4.551227 0
M  V30 46 H -4.527255 -2.225654 5.019596 0
M  V30 END ATOM
M  V30 BEGIN BOND
M  V30 1 2 1 2
M  V30 2 1 2 3
M  V30 3 1 3 4
M  V30 4 2 4 5
M  V30 5 1 5 6
M  V30 6 2 6 7
M  V30 7 1 7 8
M  V30 8 1 8 9
M  V30 9 2 9 10
M  V30 10 1 10 11
M  V30 11 2 11 12
M  V30 12 1 12 13
M  V30 13 2 13 14
M  V30 14 2 8 15
M  V30 15 1 15 16
M  V30 16 1 16 17
M  V30 17 2 17 18
M  V30 18 1 18 19
M  V30 19 1 2 20
M  V30 20 1 20 21
M  V30 21 1 21 22
M  V30 22 1 22 23
M  V30 23 1 21 24
M  V30 24 2 24 25
M  V30 25 1 25 26
M  V30 26 2 26 27
M  V30 27 1 27 28
M  V30 28 2 28 29
M  V30 29 1 18 4
M  V30 30 1 29 24
M  V30 31 1 17 7
M  V30 32 1 14 9
M  V30 33 1 3 30
M  V30 34 1 6 31
M  V30 35 1 10 32
M  V30 36 1 11 33
M  V30 37 1 13 34
M  V30 38 1 14 35
M  V30 39 1 16 36
M  V30 40 1 20 37
M  V30 41 1 21 38 CFG=3
M  V30 42 1 22 39
M  V30 43 1 22 40
M  V30 44 1 23 41
M  V30 45 1 25 42
M  V30 46 1 26 43
M  V30 47 1 27 44
M  V30 48 1 28 45
M  V30 49 1 29 46
M  V30 END BOND
M  V30 END CTAB
M  END
>  <Dataset>  (544) 
ChEMBL_Kinases

>  <Ligand_Instance>  (544) 
nan

>  <PDB_ID>  (544) 
nan

>  <Standardized_SMILES>  (544) 
O=C(Nc1ncc2c(-c3ccncc3)n[nH]c2c1F)N[C@H](CO)c1ccccc1

>  <Name>  (544) 
nan

>  <Pocket>  (544) 
nan

>  <ATP_Site>  (544) 
nan

>  <Peripheral>  (544) 
nan

>  <Num_H_Atoms_ProtBoundConf>  (544) 
nan

>  <Num_Resolved_Atoms>  (544) 
nan

>  <Num_Not_Resolved_Atoms>  (544) 
nan

$$$$
CHEMBL3663004
     RDKit          3D

  0  0  0  0  0  0  0  0  0  0999 V3000
M  V30 BEGIN CTAB
M  V30 COUNTS 47 50 0 0 0
M  V30 BEGIN ATOM
M  V30 1 C 2.515933 -8.516921 1.632242 0
M  V30 2 C 2.600002 -7.292665 0.787827 0
M  V30 3 C 2.440919 -6.022891 1.324702 0
M  V30 4 C 2.534020 -4.950898 0.469554 0
M  V30 5 C 2.378996 -3.583355 0.982366 0
M  V30 6 N 2.907683 -2.983089 2.066102 0
M  V30 7 N 2.514602 -1.736335 2.174544 0
M  V30 8 C 1.697209 -1.482704 1.137263 0
M  V30 9 C 1.000914 -0.366430 0.739966 0
M  V30 10 C 0.193304 -0.260771 -0.361418 0
M  V30 11 N -0.542998 0.855565 -0.819283 0
M  V30 12 C -0.639870 2.149295 -0.264077 0
M  V30 13 O -0.009374 2.370307 0.768393 0
M  V30 14 N -1.410128 3.180064 -0.825988 0
M  V30 15 C -1.505968 4.503389 -0.250766 0
M  V30 16 C -2.074050 4.478945 1.138467 0 CFG=1
M  V30 17 C -2.224422 5.865840 1.721516 0
M  V30 18 O -2.494398 5.716322 3.080801 0
M  V30 19 C -3.037548 4.489999 3.402269 0
M  V30 20 C -3.919658 3.940904 2.317819 0
M  V30 21 O -3.348118 3.922940 1.069452 0
M  V30 22 N 0.121336 -1.405448 -1.081446 0
M  V30 23 C 0.783602 -2.517711 -0.731397 0
M  V30 24 C 1.595386 -2.626820 0.373560 0
M  V30 25 C 2.770597 -5.041959 -0.864327 0
M  V30 26 C 2.922741 -6.348167 -1.349465 0
M  V30 27 N 2.832323 -7.388322 -0.519447 0
M  V30 28 H 2.988703 -9.366954 1.095190 0
M  V30 29 H 1.451761 -8.787622 1.874508 0
M  V30 30 H 3.069489 -8.392456 2.593073 0
M  V30 31 H 2.250686 -5.896954 2.380290 0
M  V30 32 H 2.785254 -1.064270 2.925741 0
M  V30 33 H 1.111931 0.500064 1.366705 0
M  V30 34 H -1.107129 0.757613 -1.687724 0
M  V30 35 H -1.962967 3.014121 -1.719207 0
M  V30 36 H -0.433653 4.839097 -0.130164 0
M  V30 37 H -1.966044 5.231072 -0.919413 0
M  V30 38 H -1.382182 3.932385 1.807483 0
M  V30 39 H -1.307743 6.471115 1.575139 0
M  V30 40 H -3.142271 6.346001 1.283604 0
M  V30 41 H -3.702640 4.642468 4.291072 0
M  V30 42 H -2.268019 3.754551 3.738508 0
M  V30 43 H -4.875834 4.494750 2.329465 0
M  V30 44 H -4.174227 2.893485 2.580513 0
M  V30 45 H 0.670481 -3.400199 -1.366135 0
M  V30 46 H 2.865351 -4.302372 -1.617808 0
M  V30 47 H 3.116106 -6.559251 -2.398475 0
M  V30 END ATOM
M  V30 BEGIN BOND
M  V30 1 1 1 2
M  V30 2 2 2 3
M  V30 3 1 3 4
M  V30 4 1 4 5
M  V30 5 2 5 6
M  V30 6 1 6 7
M  V30 7 1 7 8
M  V30 8 2 8 9
M  V30 9 1 9 10
M  V30 10 1 10 11
M  V30 11 1 11 12
M  V30 12 2 12 13
M  V30 13 1 12 14
M  V30 14 1 14 15
M  V30 15 1 15 16
M  V30 16 1 16 17
M  V30 17 1 17 18
M  V30 18 1 18 19
M  V30 19 1 19 20
M  V30 20 1 20 21
M  V30 21 2 10 22
M  V30 22 1 22 23
M  V30 23 2 23 24
M  V30 24 2 4 25
M  V30 25 1 25 26
M  V30 26 2 26 27
M  V30 27 1 27 2
M  V30 28 1 24 5
M  V30 29 1 24 8
M  V30 30 1 21 16
M  V30 31 1 1 28
M  V30 32 1 1 29
M  V30 33 1 1 30
M  V30 34 1 3 31
M  V30 35 1 7 32
M  V30 36 1 9 33
M  V30 37 1 11 34
M  V30 38 1 14 35
M  V30 39 1 15 36
M  V30 40 1 15 37
M  V30 41 1 16 38 CFG=1
M  V30 42 1 17 39
M  V30 43 1 17 40
M  V30 44 1 19 41
M  V30 45 1 19 42
M  V30 46 1 20 43
M  V30 47 1 20 44
M  V30 48 1 23 45
M  V30 49 1 25 46
M  V30 50 1 26 47
M  V30 END BOND
M  V30 END CTAB
M  END
>  <Dataset>  (545) 
ChEMBL_Kinases

>  <Ligand_Instance>  (545) 
nan

>  <PDB_ID>  (545) 
nan

>  <Standardized_SMILES>  (545) 
Cc1cc(-c2n[nH]c3cc(NC(=O)NC[C@H]4COCCO4)ncc23)ccn1

>  <Name>  (545) 
nan

>  <Pocket>  (545) 
nan

>  <ATP_Site>  (545) 
nan

>  <Peripheral>  (545) 
nan

>  <Num_H_Atoms_ProtBoundConf>  (545) 
nan

>  <Num_Resolved_Atoms>  (545) 
nan

>  <Num_Not_Resolved_Atoms>  (545) 
nan

$$$$
CHEMBL3663005
     RDKit          3D

  0  0  0  0  0  0  0  0  0  0999 V3000
M  V30 BEGIN CTAB
M  V30 COUNTS 47 50 0 0 0
M  V30 BEGIN ATOM
M  V30 1 C -1.734844 -7.976889 0.063204 0
M  V30 2 C -1.824128 -6.717547 -0.698395 0
M  V30 3 C -0.861458 -5.758603 -0.722345 0
M  V30 4 C -0.994180 -4.578427 -1.462528 0
M  V30 5 C 0.116731 -3.629119 -1.401067 0
M  V30 6 N 1.413623 -3.973093 -1.505276 0
M  V30 7 N 2.190637 -2.887954 -1.411261 0
M  V30 8 C 1.419722 -1.788669 -1.240893 0
M  V30 9 C 1.655561 -0.435453 -1.088302 0
M  V30 10 C 0.572918 0.421605 -0.932255 0
M  V30 11 N 0.868969 1.813080 -0.777929 0
M  V30 12 C 1.075939 2.363014 0.515915 0
M  V30 13 O 0.983889 1.567853 1.484797 0
M  V30 14 N 1.368281 3.702987 0.763703 0
M  V30 15 C 1.592637 4.365304 2.019646 0
M  V30 16 C 0.459694 4.325425 2.983710 0 CFG=2
M  V30 17 C 0.934426 5.059169 4.237544 0
M  V30 18 O 1.862463 4.293892 4.936199 0
M  V30 19 C 1.278835 3.150369 5.447904 0
M  V30 20 C -0.072094 2.924425 4.762969 0
M  V30 21 O 0.041677 3.088270 3.389719 0
M  V30 22 N -0.703551 -0.057770 -0.928792 0
M  V30 23 C -0.942471 -1.386552 -1.078274 0
M  V30 24 C 0.101403 -2.258475 -1.234253 0
M  V30 25 C -2.154727 -4.426077 -2.174885 0
M  V30 26 C -3.125426 -5.424639 -2.132822 0
M  V30 27 N -2.950808 -6.540281 -1.406599 0
M  V30 28 H -1.380178 -8.830314 -0.557695 0
M  V30 29 H -2.734430 -8.274961 0.439421 0
M  V30 30 H -1.079824 -7.876805 0.974220 0
M  V30 31 H 0.043896 -5.931452 -0.136032 0
M  V30 32 H 3.235094 -2.840594 -1.455883 0
M  V30 33 H 2.683132 -0.109144 -1.098310 0
M  V30 34 H 0.932277 2.418727 -1.609133 0
M  V30 35 H 1.424174 4.281819 -0.127873 0
M  V30 36 H 2.480871 3.922216 2.563229 0
M  V30 37 H 1.861974 5.422434 1.868012 0
M  V30 38 H -0.418377 4.927051 2.607230 0
M  V30 39 H 1.399340 6.003899 3.915649 0
M  V30 40 H 0.064653 5.343507 4.884980 0
M  V30 41 H 1.870603 2.227737 5.283321 0
M  V30 42 H 1.081790 3.278352 6.528544 0
M  V30 43 H -0.875856 3.520242 5.225296 0
M  V30 44 H -0.338607 1.857903 4.935850 0
M  V30 45 H -1.974912 -1.762264 -1.074010 0
M  V30 46 H -2.233832 -3.500974 -2.741642 0
M  V30 47 H -4.025419 -5.257497 -2.713009 0
M  V30 END ATOM
M  V30 BEGIN BOND
M  V30 1 1 1 2
M  V30 2 2 2 3
M  V30 3 1 3 4
M  V30 4 1 4 5
M  V30 5 2 5 6
M  V30 6 1 6 7
M  V30 7 1 7 8
M  V30 8 2 8 9
M  V30 9 1 9 10
M  V30 10 1 10 11
M  V30 11 1 11 12
M  V30 12 2 12 13
M  V30 13 1 12 14
M  V30 14 1 14 15
M  V30 15 1 15 16
M  V30 16 1 16 17
M  V30 17 1 17 18
M  V30 18 1 18 19
M  V30 19 1 19 20
M  V30 20 1 20 21
M  V30 21 2 10 22
M  V30 22 1 22 23
M  V30 23 2 23 24
M  V30 24 2 4 25
M  V30 25 1 25 26
M  V30 26 2 26 27
M  V30 27 1 27 2
M  V30 28 1 24 5
M  V30 29 1 24 8
M  V30 30 1 21 16
M  V30 31 1 1 28
M  V30 32 1 1 29
M  V30 33 1 1 30
M  V30 34 1 3 31
M  V30 35 1 7 32
M  V30 36 1 9 33
M  V30 37 1 11 34
M  V30 38 1 14 35
M  V30 39 1 15 36
M  V30 40 1 15 37
M  V30 41 1 16 38 CFG=3
M  V30 42 1 17 39
M  V30 43 1 17 40
M  V30 44 1 19 41
M  V30 45 1 19 42
M  V30 46 1 20 43
M  V30 47 1 20 44
M  V30 48 1 23 45
M  V30 49 1 25 46
M  V30 50 1 26 47
M  V30 END BOND
M  V30 END CTAB
M  END
>  <Dataset>  (546) 
ChEMBL_Kinases

>  <Ligand_Instance>  (546) 
nan

>  <PDB_ID>  (546) 
nan

>  <Standardized_SMILES>  (546) 
Cc1cc(-c2n[nH]c3cc(NC(=O)NC[C@@H]4COCCO4)ncc23)ccn1

>  <Name>  (546) 
nan

>  <Pocket>  (546) 
nan

>  <ATP_Site>  (546) 
nan

>  <Peripheral>  (546) 
nan

>  <Num_H_Atoms_ProtBoundConf>  (546) 
nan

>  <Num_Resolved_Atoms>  (546) 
nan

>  <Num_Not_Resolved_Atoms>  (546) 
nan

$$$$
CHEMBL3663015
     RDKit          3D

  0  0  0  0  0  0  0  0  0  0999 V3000
M  V30 BEGIN CTAB
M  V30 COUNTS 45 47 0 0 0
M  V30 BEGIN ATOM
M  V30 1 C 0.312346 -3.529848 4.254074 0
M  V30 2 C -0.607862 -2.993963 3.182404 0 CFG=1
M  V30 3 N 0.046553 -2.931568 1.891150 0
M  V30 4 C 0.178898 -1.651600 1.285093 0
M  V30 5 O -0.248287 -0.622696 1.836198 0
M  V30 6 N 0.834430 -1.669109 0.015573 0
M  V30 7 C 1.004380 -0.420366 -0.648571 0
M  V30 8 C 0.170051 0.218964 -1.542082 0
M  V30 9 C 0.556344 1.439302 -2.057205 0
M  V30 10 N -0.092028 2.225303 -2.934177 0
M  V30 11 N 0.666958 3.289448 -3.132274 0
M  V30 12 C 1.808932 3.220633 -2.399345 0
M  V30 13 C 2.903355 4.221113 -2.335431 0
M  V30 14 S 2.857036 5.251787 -0.918521 0
M  V30 15 C 2.961739 4.404852 0.614953 0
M  V30 16 O 4.001701 6.233766 -1.025268 0
M  V30 17 O 1.582105 6.066882 -0.963013 0
M  V30 18 C 1.748767 2.032620 -1.702994 0
M  V30 19 C 2.562144 1.371160 -0.808997 0
M  V30 20 N 2.174574 0.177903 -0.311244 0
M  V30 21 C -1.799978 -3.869061 3.037469 0
M  V30 22 C -1.741152 -5.084995 2.361703 0
M  V30 23 C -2.837606 -5.926882 2.212584 0
M  V30 24 C -4.064539 -5.545500 2.763393 0
M  V30 25 C -4.094848 -4.346075 3.421717 0
M  V30 26 C -3.016244 -3.502114 3.576814 0
M  V30 27 H 0.687470 -4.550995 4.023121 0
M  V30 28 H -0.287080 -3.615825 5.183955 0
M  V30 29 H 1.116339 -2.807166 4.448594 0
M  V30 30 H -0.946159 -2.005550 3.536659 0
M  V30 31 H 0.383347 -3.828392 1.478918 0
M  V30 32 H 1.223913 -2.493550 -0.518178 0
M  V30 33 H -0.736011 -0.330580 -1.750088 0
M  V30 34 H -1.028011 2.037031 -3.383431 0
M  V30 35 H 2.792516 4.886037 -3.227768 0
M  V30 36 H 3.860566 3.642807 -2.416294 0
M  V30 37 H 2.088628 3.744663 0.773758 0
M  V30 38 H 2.985742 5.159928 1.440111 0
M  V30 39 H 3.900684 3.840744 0.706097 0
M  V30 40 H 3.500129 1.824563 -0.528382 0
M  V30 41 H -0.816163 -5.422116 1.919847 0
M  V30 42 H -2.776818 -6.860044 1.689196 0
M  V30 43 H -4.954243 -6.147957 2.686670 0
M  V30 44 H -4.997729 -3.940973 3.894008 0
M  V30 45 H -3.036055 -2.565584 4.089354 0
M  V30 END ATOM
M  V30 BEGIN BOND
M  V30 1 1 1 2
M  V30 2 1 2 3
M  V30 3 1 3 4
M  V30 4 2 4 5
M  V30 5 1 4 6
M  V30 6 1 6 7
M  V30 7 2 7 8
M  V30 8 1 8 9
M  V30 9 1 9 10
M  V30 10 1 10 11
M  V30 11 2 11 12
M  V30 12 1 12 13
M  V30 13 1 13 14
M  V30 14 1 14 15
M  V30 15 2 14 16
M  V30 16 2 14 17
M  V30 17 1 12 18
M  V30 18 1 18 19
M  V30 19 2 19 20
M  V30 20 1 2 21
M  V30 21 2 21 22
M  V30 22 1 22 23
M  V30 23 2 23 24
M  V30 24 1 24 25
M  V30 25 2 25 26
M  V30 26 1 20 7
M  V30 27 1 26 21
M  V30 28 2 18 9
M  V30 29 1 1 27
M  V30 30 1 1 28
M  V30 31 1 1 29
M  V30 32 1 2 30 CFG=1
M  V30 33 1 3 31
M  V30 34 1 6 32
M  V30 35 1 8 33
M  V30 36 1 10 34
M  V30 37 1 13 35
M  V30 38 1 13 36
M  V30 39 1 15 37
M  V30 40 1 15 38
M  V30 41 1 15 39
M  V30 42 1 19 40
M  V30 43 1 22 41
M  V30 44 1 23 42
M  V30 45 1 24 43
M  V30 46 1 25 44
M  V30 47 1 26 45
M  V30 END BOND
M  V30 END CTAB
M  END
>  <Dataset>  (547) 
ChEMBL_Kinases

>  <Ligand_Instance>  (547) 
nan

>  <PDB_ID>  (547) 
nan

>  <Standardized_SMILES>  (547) 
C[C@@H](NC(=O)Nc1cc2[nH]nc(CS(C)(=O)=O)c2cn1)c1ccccc1

>  <Name>  (547) 
nan

>  <Pocket>  (547) 
nan

>  <ATP_Site>  (547) 
nan

>  <Peripheral>  (547) 
nan

>  <Num_H_Atoms_ProtBoundConf>  (547) 
nan

>  <Num_Resolved_Atoms>  (547) 
nan

>  <Num_Not_Resolved_Atoms>  (547) 
nan

$$$$
CHEMBL3663007
     RDKit          3D

  0  0  0  0  0  0  0  0  0  0999 V3000
M  V30 BEGIN CTAB
M  V30 COUNTS 56 60 0 0 0
M  V30 BEGIN ATOM
M  V30 1 C 6.627751 -2.866460 6.746580 0
M  V30 2 C 6.116275 -2.732473 5.335555 0
M  V30 3 C 5.471230 -1.590157 4.997907 0
M  V30 4 C 5.074637 -1.585198 3.694659 0
M  V30 5 C 4.387989 -0.499631 2.962546 0
M  V30 6 N 4.811499 0.793641 3.052362 0
M  V30 7 N 4.055665 1.573757 2.256477 0
M  V30 8 C 3.171324 0.755395 1.679247 0
M  V30 9 C 2.185410 1.065559 0.752331 0
M  V30 10 C 1.402492 0.038425 0.279047 0
M  V30 11 N 0.350783 -0.060588 -0.721285 0
M  V30 12 C -1.012508 0.178464 -0.522252 0
M  V30 13 O -1.398826 0.552771 0.594369 0
M  V30 14 N -1.939643 0.008753 -1.536213 0
M  V30 15 C -3.300340 0.179357 -1.809047 0 CFG=2
M  V30 16 C -4.301768 -0.308164 -0.793341 0
M  V30 17 C -4.540528 0.275614 0.433390 0
M  V30 18 C -5.377674 -0.054642 1.457895 0
M  V30 19 C -6.133863 -1.211391 1.197518 0
M  V30 20 C -5.979235 -1.873557 0.006108 0
M  V30 21 C -5.101860 -1.456347 -0.967394 0
M  V30 22 C -3.776221 0.305394 -3.169390 0 CFG=2
M  V30 23 C -3.522299 -0.780985 -4.154905 0
M  V30 24 C -4.365678 -0.196887 -5.285547 0
M  V30 25 C -4.140673 1.276674 -5.055517 0
M  V30 26 O -3.294399 1.384205 -3.919523 0
M  V30 27 N 1.620394 -1.212476 0.733600 0
M  V30 28 C 2.539953 -1.605284 1.619665 0
M  V30 29 C 3.308297 -0.558489 2.069715 0
M  V30 30 C 5.304019 -2.624233 2.824700 0
M  V30 31 C 5.974661 -3.764072 3.260515 0
M  V30 32 N 6.395938 -3.818696 4.563722 0
M  V30 33 H 6.549597 -3.939017 7.044226 0
M  V30 34 H 7.623454 -2.444438 6.880761 0
M  V30 35 H 5.949519 -2.284331 7.397246 0
M  V30 36 H 5.238573 -0.730841 5.589452 0
M  V30 37 H 4.127615 2.613432 2.093676 0
M  V30 38 H 1.920295 2.012337 0.313349 0
M  V30 39 H 0.860412 -0.354216 -1.556352 0
M  V30 40 H -1.520273 -0.391521 -2.438189 0
M  V30 41 H -3.399045 1.307074 -1.476872 0
M  V30 42 H -3.964700 1.188489 0.616475 0
M  V30 43 H -5.429806 0.532574 2.359174 0
M  V30 44 H -6.802722 -1.472925 2.023379 0
M  V30 45 H -6.589872 -2.768739 -0.151791 0
M  V30 46 H -5.025762 -2.019595 -1.881880 0
M  V30 47 H -4.876159 0.452664 -3.121906 0
M  V30 48 H -2.495836 -0.787936 -4.601242 0
M  V30 49 H -3.922186 -1.766450 -3.945944 0
M  V30 50 H -3.980806 -0.538357 -6.276921 0
M  V30 51 H -5.426482 -0.500834 -5.185127 0
M  V30 52 H -3.724096 1.829265 -5.892811 0
M  V30 53 H -5.125281 1.695339 -4.711117 0
M  V30 54 H 2.724721 -2.606623 1.985929 0
M  V30 55 H 5.073242 -2.767006 1.796223 0
M  V30 56 H 6.226299 -4.652487 2.679613 0
M  V30 END ATOM
M  V30 BEGIN BOND
M  V30 1 1 1 2
M  V30 2 2 2 3
M  V30 3 1 3 4
M  V30 4 1 4 5
M  V30 5 2 5 6
M  V30 6 1 6 7
M  V30 7 1 7 8
M  V30 8 2 8 9
M  V30 9 1 9 10
M  V30 10 1 10 11
M  V30 11 1 11 12
M  V30 12 2 12 13
M  V30 13 1 12 14
M  V30 14 1 14 15
M  V30 15 1 15 16
M  V30 16 2 16 17
M  V30 17 1 17 18
M  V30 18 2 18 19
M  V30 19 1 19 20
M  V30 20 2 20 21
M  V30 21 1 15 22
M  V30 22 1 22 23
M  V30 23 1 23 24
M  V30 24 1 24 25
M  V30 25 1 25 26
M  V30 26 2 10 27
M  V30 27 1 27 28
M  V30 28 2 28 29
M  V30 29 2 4 30
M  V30 30 1 30 31
M  V30 31 2 31 32
M  V30 32 1 32 2
M  V30 33 1 29 5
M  V30 34 1 29 8
M  V30 35 1 21 16
M  V30 36 1 26 22
M  V30 37 1 1 33
M  V30 38 1 1 34
M  V30 39 1 1 35
M  V30 40 1 3 36
M  V30 41 1 7 37
M  V30 42 1 9 38
M  V30 43 1 11 39
M  V30 44 1 14 40
M  V30 45 1 15 41 CFG=1
M  V30 46 1 17 42
M  V30 47 1 18 43
M  V30 48 1 19 44
M  V30 49 1 20 45
M  V30 50 1 21 46
M  V30 51 1 22 47 CFG=1
M  V30 52 1 23 48
M  V30 53 1 23 49
M  V30 54 1 24 50
M  V30 55 1 24 51
M  V30 56 1 25 52
M  V30 57 1 25 53
M  V30 58 1 28 54
M  V30 59 1 30 55
M  V30 60 1 31 56
M  V30 END BOND
M  V30 END CTAB
M  END
>  <Dataset>  (548) 
ChEMBL_Kinases

>  <Ligand_Instance>  (548) 
nan

>  <PDB_ID>  (548) 
nan

>  <Standardized_SMILES>  (548) 
Cc1cc(-c2n[nH]c3cc(NC(=O)N[C@H](c4ccccc4)[C@@H]4CCCO4)ncc23)ccn1

>  <Name>  (548) 
nan

>  <Pocket>  (548) 
nan

>  <ATP_Site>  (548) 
nan

>  <Peripheral>  (548) 
nan

>  <Num_H_Atoms_ProtBoundConf>  (548) 
nan

>  <Num_Resolved_Atoms>  (548) 
nan

>  <Num_Not_Resolved_Atoms>  (548) 
nan

$$$$
CHEMBL3663008
     RDKit          3D

  0  0  0  0  0  0  0  0  0  0999 V3000
M  V30 BEGIN CTAB
M  V30 COUNTS 56 60 0 0 0
M  V30 BEGIN ATOM
M  V30 1 C 8.632693 -4.392998 1.384173 0
M  V30 2 C 7.727317 -3.755108 0.404443 0
M  V30 3 C 6.902265 -2.701347 0.752691 0
M  V30 4 C 6.045657 -2.088839 -0.150700 0
M  V30 5 C 5.180825 -0.974653 0.239583 0
M  V30 6 N 5.538158 0.098636 0.981492 0
M  V30 7 N 4.509467 0.925955 1.152460 0
M  V30 8 C 3.456989 0.384961 0.510318 0
M  V30 9 C 2.157497 0.836396 0.376677 0
M  V30 10 C 1.263970 0.071837 -0.348260 0
M  V30 11 N -0.107740 0.360743 -0.599819 0
M  V30 12 C -1.168017 -0.073064 0.267700 0
M  V30 13 O -0.881482 -0.737802 1.296976 0
M  V30 14 N -2.511904 0.278658 -0.089722 0
M  V30 15 C -3.579879 -0.169209 0.801732 0 CFG=1
M  V30 16 C -4.289078 0.996750 1.342769 0
M  V30 17 C -4.654769 1.174345 2.669001 0
M  V30 18 C -5.322117 2.320500 3.056939 0
M  V30 19 C -5.641301 3.307983 2.156466 0
M  V30 20 C -5.272896 3.126083 0.827771 0
M  V30 21 C -4.605978 1.989647 0.417882 0
M  V30 22 C -4.496858 -1.146474 0.126982 0 CFG=1
M  V30 23 C -5.665931 -1.403304 1.046536 0
M  V30 24 C -6.672201 -1.997045 0.070064 0
M  V30 25 C -6.272705 -1.337181 -1.225969 0
M  V30 26 O -5.116511 -0.610264 -0.996807 0
M  V30 27 N 1.672059 -1.093446 -0.909038 0
M  V30 28 C 2.933063 -1.550899 -0.790773 0
M  V30 29 C 3.845897 -0.806020 -0.071491 0
M  V30 30 C 6.053714 -2.587873 -1.437931 0
M  V30 31 C 6.887056 -3.645288 -1.771464 0
M  V30 32 N 7.714019 -4.226441 -0.872656 0
M  V30 33 H 8.208728 -4.499691 2.396739 0
M  V30 34 H 8.958646 -5.385740 1.002521 0
M  V30 35 H 9.549894 -3.754534 1.507416 0
M  V30 36 H 6.934787 -2.342084 1.791784 0
M  V30 37 H 4.507822 1.824269 1.680968 0
M  V30 38 H 1.768976 1.734638 0.786209 0
M  V30 39 H -0.346912 0.922468 -1.470055 0
M  V30 40 H -2.750561 0.831539 -0.945748 0
M  V30 41 H -3.082361 -0.733324 1.635297 0
M  V30 42 H -4.380723 0.371152 3.331765 0
M  V30 43 H -5.595811 2.432205 4.101966 0
M  V30 44 H -6.161011 4.181389 2.506006 0
M  V30 45 H -5.563300 3.953042 0.185208 0
M  V30 46 H -4.399527 2.016284 -0.644549 0
M  V30 47 H -3.950990 -2.053412 -0.144904 0
M  V30 48 H -6.057904 -0.424658 1.368027 0
M  V30 49 H -5.434227 -2.068659 1.883337 0
M  V30 50 H -6.432193 -3.092187 0.025820 0
M  V30 51 H -7.714325 -1.810690 0.356039 0
M  V30 52 H -6.127728 -2.085256 -2.040933 0
M  V30 53 H -7.125586 -0.701434 -1.573002 0
M  V30 54 H 3.239993 -2.482308 -1.244921 0
M  V30 55 H 5.418484 -2.169617 -2.202317 0
M  V30 56 H 6.898052 -4.044495 -2.787857 0
M  V30 END ATOM
M  V30 BEGIN BOND
M  V30 1 1 1 2
M  V30 2 2 2 3
M  V30 3 1 3 4
M  V30 4 1 4 5
M  V30 5 2 5 6
M  V30 6 1 6 7
M  V30 7 1 7 8
M  V30 8 2 8 9
M  V30 9 1 9 10
M  V30 10 1 10 11
M  V30 11 1 11 12
M  V30 12 2 12 13
M  V30 13 1 12 14
M  V30 14 1 14 15
M  V30 15 1 15 16
M  V30 16 2 16 17
M  V30 17 1 17 18
M  V30 18 2 18 19
M  V30 19 1 19 20
M  V30 20 2 20 21
M  V30 21 1 15 22
M  V30 22 1 22 23
M  V30 23 1 23 24
M  V30 24 1 24 25
M  V30 25 1 25 26
M  V30 26 2 10 27
M  V30 27 1 27 28
M  V30 28 2 28 29
M  V30 29 2 4 30
M  V30 30 1 30 31
M  V30 31 2 31 32
M  V30 32 1 32 2
M  V30 33 1 29 5
M  V30 34 1 29 8
M  V30 35 1 21 16
M  V30 36 1 26 22
M  V30 37 1 1 33
M  V30 38 1 1 34
M  V30 39 1 1 35
M  V30 40 1 3 36
M  V30 41 1 7 37
M  V30 42 1 9 38
M  V30 43 1 11 39
M  V30 44 1 14 40
M  V30 45 1 15 41 CFG=1
M  V30 46 1 17 42
M  V30 47 1 18 43
M  V30 48 1 19 44
M  V30 49 1 20 45
M  V30 50 1 21 46
M  V30 51 1 22 47 CFG=3
M  V30 52 1 23 48
M  V30 53 1 23 49
M  V30 54 1 24 50
M  V30 55 1 24 51
M  V30 56 1 25 52
M  V30 57 1 25 53
M  V30 58 1 28 54
M  V30 59 1 30 55
M  V30 60 1 31 56
M  V30 END BOND
M  V30 END CTAB
M  END
>  <Dataset>  (549) 
ChEMBL_Kinases

>  <Ligand_Instance>  (549) 
nan

>  <PDB_ID>  (549) 
nan

>  <Standardized_SMILES>  (549) 
Cc1cc(-c2n[nH]c3cc(NC(=O)N[C@@H](c4ccccc4)[C@H]4CCCO4)ncc23)ccn1

>  <Name>  (549) 
nan

>  <Pocket>  (549) 
nan

>  <ATP_Site>  (549) 
nan

>  <Peripheral>  (549) 
nan

>  <Num_H_Atoms_ProtBoundConf>  (549) 
nan

>  <Num_Resolved_Atoms>  (549) 
nan

>  <Num_Not_Resolved_Atoms>  (549) 
nan

$$$$
CHEMBL3663009
     RDKit          3D

  0  0  0  0  0  0  0  0  0  0999 V3000
M  V30 BEGIN CTAB
M  V30 COUNTS 56 60 0 0 0
M  V30 BEGIN ATOM
M  V30 1 C 6.282096 -5.685887 0.508742 0
M  V30 2 C 6.636367 -4.292096 0.132245 0
M  V30 3 C 5.741215 -3.261896 0.340938 0
M  V30 4 C 6.095166 -1.975678 -0.017905 0
M  V30 5 C 5.230772 -0.806473 0.155359 0
M  V30 6 N 5.620735 0.385805 0.649326 0
M  V30 7 N 4.596502 1.244724 0.679619 0
M  V30 8 C 3.548137 0.557800 0.189560 0
M  V30 9 C 2.245948 0.983270 0.006401 0
M  V30 10 C 1.328540 0.094048 -0.518199 0
M  V30 11 N -0.053789 0.302738 -0.793578 0
M  V30 12 C -0.959843 0.002824 0.266647 0
M  V30 13 O -0.568946 -0.422308 1.385247 0
M  V30 14 N -2.358943 0.205157 0.012554 0
M  V30 15 C -3.395776 -0.052560 0.983266 0 CFG=1
M  V30 16 C -4.062721 1.186890 1.381366 0
M  V30 17 C -4.349850 1.478693 2.700690 0
M  V30 18 C -4.986749 2.673170 3.038002 0
M  V30 19 C -5.350480 3.600541 2.070433 0
M  V30 20 C -5.068193 3.319080 0.747844 0
M  V30 21 C -4.429416 2.116130 0.433112 0
M  V30 22 C -4.340641 -1.150025 0.610770 0 CFG=2
M  V30 23 C -5.168366 -0.903163 -0.603092 0
M  V30 24 C -6.297620 -1.919633 -0.386918 0
M  V30 25 C -6.311327 -2.062711 1.111911 0
M  V30 26 O -5.280058 -1.288189 1.629897 0
M  V30 27 N 1.699923 -1.165998 -0.844808 0
M  V30 28 C 2.964947 -1.619497 -0.680247 0
M  V30 29 C 3.885868 -0.736063 -0.156689 0
M  V30 30 C 7.356499 -1.813797 -0.575222 0
M  V30 31 C 8.250234 -2.867702 -0.779440 0
M  V30 32 N 7.854465 -4.103990 -0.411153 0
M  V30 33 H 5.246118 -5.759296 0.898654 0
M  V30 34 H 6.374529 -6.319704 -0.393688 0
M  V30 35 H 6.943310 -6.040718 1.335342 0
M  V30 36 H 4.763627 -3.419160 0.778077 0
M  V30 37 H 4.583704 2.234552 1.005743 0
M  V30 38 H 1.840663 1.946574 0.225833 0
M  V30 39 H -0.384776 0.654500 -1.717350 0
M  V30 40 H -2.709674 0.559209 -0.913596 0
M  V30 41 H -2.846277 -0.418678 1.900532 0
M  V30 42 H -4.068713 0.755905 3.477195 0
M  V30 43 H -5.199295 2.875772 4.078082 0
M  V30 44 H -5.848208 4.538588 2.312279 0
M  V30 45 H -5.355044 4.046976 0.001190 0
M  V30 46 H -4.259523 2.003042 -0.622673 0
M  V30 47 H -3.813357 -2.101401 0.467404 0
M  V30 48 H -5.685131 0.076439 -0.635545 0
M  V30 49 H -4.642513 -1.171715 -1.530280 0
M  V30 50 H -7.262593 -1.549025 -0.778848 0
M  V30 51 H -6.058678 -2.876788 -0.902785 0
M  V30 52 H -6.226548 -3.133110 1.386865 0
M  V30 53 H -7.276909 -1.694059 1.518580 0
M  V30 54 H 3.274106 -2.623939 -0.937343 0
M  V30 55 H 7.667469 -0.803933 -0.870857 0
M  V30 56 H 9.212524 -2.609097 -1.226641 0
M  V30 END ATOM
M  V30 BEGIN BOND
M  V30 1 1 1 2
M  V30 2 2 2 3
M  V30 3 1 3 4
M  V30 4 1 4 5
M  V30 5 2 5 6
M  V30 6 1 6 7
M  V30 7 1 7 8
M  V30 8 2 8 9
M  V30 9 1 9 10
M  V30 10 1 10 11
M  V30 11 1 11 12
M  V30 12 2 12 13
M  V30 13 1 12 14
M  V30 14 1 14 15
M  V30 15 1 15 16
M  V30 16 2 16 17
M  V30 17 1 17 18
M  V30 18 2 18 19
M  V30 19 1 19 20
M  V30 20 2 20 21
M  V30 21 1 15 22
M  V30 22 1 22 23
M  V30 23 1 23 24
M  V30 24 1 24 25
M  V30 25 1 25 26
M  V30 26 2 10 27
M  V30 27 1 27 28
M  V30 28 2 28 29
M  V30 29 2 4 30
M  V30 30 1 30 31
M  V30 31 2 31 32
M  V30 32 1 32 2
M  V30 33 1 29 5
M  V30 34 1 29 8
M  V30 35 1 21 16
M  V30 36 1 26 22
M  V30 37 1 1 33
M  V30 38 1 1 34
M  V30 39 1 1 35
M  V30 40 1 3 36
M  V30 41 1 7 37
M  V30 42 1 9 38
M  V30 43 1 11 39
M  V30 44 1 14 40
M  V30 45 1 15 41 CFG=1
M  V30 46 1 17 42
M  V30 47 1 18 43
M  V30 48 1 19 44
M  V30 49 1 20 45
M  V30 50 1 21 46
M  V30 51 1 22 47 CFG=3
M  V30 52 1 23 48
M  V30 53 1 23 49
M  V30 54 1 24 50
M  V30 55 1 24 51
M  V30 56 1 25 52
M  V30 57 1 25 53
M  V30 58 1 28 54
M  V30 59 1 30 55
M  V30 60 1 31 56
M  V30 END BOND
M  V30 END CTAB
M  END
>  <Dataset>  (550) 
ChEMBL_Kinases

>  <Ligand_Instance>  (550) 
nan

>  <PDB_ID>  (550) 
nan

>  <Standardized_SMILES>  (550) 
Cc1cc(-c2n[nH]c3cc(NC(=O)N[C@@H](c4ccccc4)[C@@H]4CCCO4)ncc23)ccn1

>  <Name>  (550) 
nan

>  <Pocket>  (550) 
nan

>  <ATP_Site>  (550) 
nan

>  <Peripheral>  (550) 
nan

>  <Num_H_Atoms_ProtBoundConf>  (550) 
nan

>  <Num_Resolved_Atoms>  (550) 
nan

>  <Num_Not_Resolved_Atoms>  (550) 
nan

$$$$
CHEMBL3663010
     RDKit          3D

  0  0  0  0  0  0  0  0  0  0999 V3000
M  V30 BEGIN CTAB
M  V30 COUNTS 63 67 0 0 0
M  V30 BEGIN ATOM
M  V30 1 C -0.265188 2.019861 9.159352 0
M  V30 2 C -0.355327 2.695435 7.819093 0
M  V30 3 C 0.437433 2.189402 6.812050 0
M  V30 4 C 0.406310 2.758990 5.554904 0
M  V30 5 C 1.292027 2.143194 4.547971 0
M  V30 6 N 2.574773 1.818563 4.839449 0
M  V30 7 N 3.144920 1.279612 3.749937 0
M  V30 8 C 2.218601 1.260011 2.754784 0
M  V30 9 C 2.246369 0.826183 1.442981 0
M  V30 10 C 1.075139 0.964871 0.690540 0
M  V30 11 N 1.069521 0.519615 -0.688582 0
M  V30 12 C 0.681000 -0.850965 -0.913605 0
M  V30 13 O 0.372707 -1.574465 0.078371 0
M  V30 14 N 0.650767 -1.368172 -2.257597 0
M  V30 15 C 0.257300 -2.729878 -2.444776 0 CFG=1
M  V30 16 C -0.980663 -2.920039 -3.294623 0 CFG=2
M  V30 17 C -2.233133 -3.004199 -2.535585 0
M  V30 18 C -2.903642 -4.097302 -2.068383 0
M  V30 19 C -4.085102 -4.070829 -1.360870 0
M  V30 20 C -4.644774 -2.849233 -1.097454 0
M  V30 21 C -3.999754 -1.724787 -1.551379 0
M  V30 22 C -2.795000 -1.767980 -2.272035 0
M  V30 23 C -2.330673 -0.404969 -2.631197 0
M  V30 24 C -0.662033 -4.326459 -3.833681 0
M  V30 25 N 0.775162 -4.212032 -4.175234 0
M  V30 26 C 0.948021 -3.416280 -5.356013 0
M  V30 27 C 1.322328 -3.609898 -3.001869 0 CFG=1
M  V30 28 C 2.628665 -2.890898 -3.263333 0
M  V30 29 N -0.054030 1.497258 1.196226 0
M  V30 30 C -0.122555 1.938318 2.488637 0
M  V30 31 C 1.036712 1.798279 3.225014 0
M  V30 32 C -0.427556 3.843564 5.311763 0
M  V30 33 C -1.202131 4.313857 6.352883 0
M  V30 34 N -1.156652 3.740057 7.579935 0
M  V30 35 H 0.793268 1.793574 9.402024 0
M  V30 36 H -0.802610 1.049639 9.148637 0
M  V30 37 H -0.671304 2.631122 9.974112 0
M  V30 38 H 1.093866 1.329416 7.018855 0
M  V30 39 H 4.136328 0.932231 3.678156 0
M  V30 40 H 3.138678 0.395043 1.011112 0
M  V30 41 H 1.327506 1.136242 -1.483562 0
M  V30 42 H 0.916470 -0.727760 -3.038369 0
M  V30 43 H -0.006061 -3.146194 -1.427085 0
M  V30 44 H -0.988206 -2.187785 -4.124854 0
M  V30 45 H -2.486076 -5.063143 -2.265158 0
M  V30 46 H -4.542197 -4.993347 -1.031704 0
M  V30 47 H -5.571157 -2.833674 -0.543000 0
M  V30 48 H -4.535880 -0.804728 -1.284342 0
M  V30 49 H -1.646556 -0.391223 -3.499888 0
M  V30 50 H -3.223947 0.198962 -2.959706 0
M  V30 51 H -1.916946 0.139773 -1.746655 0
M  V30 52 H -0.655760 -5.023889 -2.974046 0
M  V30 53 H -1.278403 -4.610321 -4.681272 0
M  V30 54 H 1.672065 -2.585395 -5.254108 0
M  V30 55 H -0.045477 -3.058906 -5.705097 0
M  V30 56 H 1.393001 -4.067736 -6.165943 0
M  V30 57 H 1.604789 -4.440532 -2.287415 0
M  V30 58 H 3.209348 -3.424350 -4.059366 0
M  V30 59 H 2.533920 -1.849428 -3.558553 0
M  V30 60 H 3.257750 -2.907661 -2.342950 0
M  V30 61 H -1.021464 2.371994 2.921297 0
M  V30 62 H -0.416046 4.256456 4.303886 0
M  V30 63 H -1.843904 5.160365 6.137610 0
M  V30 END ATOM
M  V30 BEGIN BOND
M  V30 1 1 1 2
M  V30 2 2 2 3
M  V30 3 1 3 4
M  V30 4 1 4 5
M  V30 5 2 5 6
M  V30 6 1 6 7
M  V30 7 1 7 8
M  V30 8 2 8 9
M  V30 9 1 9 10
M  V30 10 1 10 11
M  V30 11 1 11 12
M  V30 12 2 12 13
M  V30 13 1 12 14
M  V30 14 1 14 15
M  V30 15 1 15 16
M  V30 16 1 16 17
M  V30 17 2 17 18
M  V30 18 1 18 19
M  V30 19 2 19 20
M  V30 20 1 20 21
M  V30 21 2 21 22
M  V30 22 1 22 23
M  V30 23 1 16 24
M  V30 24 1 24 25
M  V30 25 1 25 26
M  V30 26 1 25 27
M  V30 27 1 27 28
M  V30 28 2 10 29
M  V30 29 1 29 30
M  V30 30 2 30 31
M  V30 31 2 4 32
M  V30 32 1 32 33
M  V30 33 2 33 34
M  V30 34 1 34 2
M  V30 35 1 31 5
M  V30 36 1 31 8
M  V30 37 1 27 15
M  V30 38 1 22 17
M  V30 39 1 1 35
M  V30 40 1 1 36
M  V30 41 1 1 37
M  V30 42 1 3 38
M  V30 43 1 7 39
M  V30 44 1 9 40
M  V30 45 1 11 41
M  V30 46 1 14 42
M  V30 47 1 15 43 CFG=1
M  V30 48 1 16 44 CFG=3
M  V30 49 1 18 45
M  V30 50 1 19 46
M  V30 51 1 20 47
M  V30 52 1 21 48
M  V30 53 1 23 49
M  V30 54 1 23 50
M  V30 55 1 23 51
M  V30 56 1 24 52
M  V30 57 1 24 53
M  V30 58 1 26 54
M  V30 59 1 26 55
M  V30 60 1 26 56
M  V30 61 1 27 57 CFG=1
M  V30 62 1 28 58
M  V30 63 1 28 59
M  V30 64 1 28 60
M  V30 65 1 30 61
M  V30 66 1 32 62
M  V30 67 1 33 63
M  V30 END BOND
M  V30 END CTAB
M  END
>  <Dataset>  (551) 
ChEMBL_Kinases

>  <Ligand_Instance>  (551) 
nan

>  <PDB_ID>  (551) 
nan

>  <Standardized_SMILES>  (551) 
Cc1cc(-c2n[nH]c3cc(NC(=O)N[C@H]4[C@H](c5ccccc5C)CN(C)[C@H]4C)ncc23)ccn1

>  <Name>  (551) 
nan

>  <Pocket>  (551) 
nan

>  <ATP_Site>  (551) 
nan

>  <Peripheral>  (551) 
nan

>  <Num_H_Atoms_ProtBoundConf>  (551) 
nan

>  <Num_Resolved_Atoms>  (551) 
nan

>  <Num_Not_Resolved_Atoms>  (551) 
nan

$$$$
CHEMBL3663011
     RDKit          3D

  0  0  0  0  0  0  0  0  0  0999 V3000
M  V30 BEGIN CTAB
M  V30 COUNTS 43 46 0 0 0
M  V30 BEGIN ATOM
M  V30 1 C -0.707877 -6.653352 0.934136 0
M  V30 2 C 0.190809 -6.236365 -0.182257 0
M  V30 3 C 0.748435 -4.990540 -0.148349 0
M  V30 4 C 1.595111 -4.486866 -1.118532 0
M  V30 5 C 2.193405 -3.156014 -1.086479 0
M  V30 6 N 3.471541 -2.814356 -1.346658 0
M  V30 7 N 3.654338 -1.503065 -1.218013 0
M  V30 8 C 2.459150 -0.994349 -0.865911 0
M  V30 9 C 2.158590 0.331149 -0.620037 0
M  V30 10 C 0.856057 0.632137 -0.269617 0
M  V30 11 N 0.267269 1.897603 0.037181 0
M  V30 12 C 0.334463 2.239671 1.436040 0
M  V30 13 O 0.853553 1.512603 2.310920 0
M  V30 14 N -0.227348 3.482494 1.832919 0
M  V30 15 C -0.210432 3.921484 3.225277 0
M  V30 16 C 0.618092 5.160230 3.407915 0
M  V30 17 C -1.582942 4.048071 3.767197 0
M  V30 18 N -2.011326 3.598543 4.983038 0
M  V30 19 N -3.301901 3.908341 5.084303 0
M  V30 20 C -3.671312 4.543246 3.944182 0
M  V30 21 O -2.619051 4.613286 3.171083 0
M  V30 22 N -0.072295 -0.344723 -0.176381 0
M  V30 23 C 0.224053 -1.655011 -0.419249 0
M  V30 24 C 1.513596 -1.996736 -0.771919 0
M  V30 25 C 1.842131 -5.371542 -2.160962 0
M  V30 26 C 1.284883 -6.615673 -2.194219 0
M  V30 27 N 0.473226 -7.054526 -1.231790 0
M  V30 28 H -0.154323 -6.827371 1.875101 0
M  V30 29 H -1.523863 -5.897158 1.088248 0
M  V30 30 H -1.215271 -7.589238 0.625531 0
M  V30 31 H 0.516578 -4.342684 0.695781 0
M  V30 32 H 4.566601 -0.986972 -1.367952 0
M  V30 33 H 2.785525 1.185652 -0.657409 0
M  V30 34 H -0.153537 2.477152 -0.701101 0
M  V30 35 H -0.671678 4.130634 1.159918 0
M  V30 36 H 0.307515 3.084505 3.769402 0
M  V30 37 H 0.464028 5.507301 4.450424 0
M  V30 38 H 0.309673 5.963222 2.708522 0
M  V30 39 H 1.678948 4.885477 3.315408 0
M  V30 40 H -4.709236 4.846250 3.910361 0
M  V30 41 H -0.514022 -2.442459 -0.346561 0
M  V30 42 H 2.497317 -5.050552 -2.962334 0
M  V30 43 H 1.456497 -7.338880 -2.998368 0
M  V30 END ATOM
M  V30 BEGIN BOND
M  V30 1 1 1 2
M  V30 2 2 2 3
M  V30 3 1 3 4
M  V30 4 1 4 5
M  V30 5 2 5 6
M  V30 6 1 6 7
M  V30 7 1 7 8
M  V30 8 2 8 9
M  V30 9 1 9 10
M  V30 10 1 10 11
M  V30 11 1 11 12
M  V30 12 2 12 13
M  V30 13 1 12 14
M  V30 14 1 14 15
M  V30 15 1 15 16
M  V30 16 1 15 17
M  V30 17 2 17 18
M  V30 18 1 18 19
M  V30 19 2 19 20
M  V30 20 1 20 21
M  V30 21 2 10 22
M  V30 22 1 22 23
M  V30 23 2 23 24
M  V30 24 2 4 25
M  V30 25 1 25 26
M  V30 26 2 26 27
M  V30 27 1 27 2
M  V30 28 1 24 5
M  V30 29 1 24 8
M  V30 30 1 21 17
M  V30 31 1 1 28
M  V30 32 1 1 29
M  V30 33 1 1 30
M  V30 34 1 3 31
M  V30 35 1 7 32
M  V30 36 1 9 33
M  V30 37 1 11 34
M  V30 38 1 14 35
M  V30 39 1 15 36
M  V30 40 1 16 37
M  V30 41 1 16 38
M  V30 42 1 16 39
M  V30 43 1 20 40
M  V30 44 1 23 41
M  V30 45 1 25 42
M  V30 46 1 26 43
M  V30 END BOND
M  V30 END CTAB
M  END
>  <Dataset>  (552) 
ChEMBL_Kinases

>  <Ligand_Instance>  (552) 
nan

>  <PDB_ID>  (552) 
nan

>  <Standardized_SMILES>  (552) 
Cc1cc(-c2n[nH]c3cc(NC(=O)NC(C)c4nnco4)ncc23)ccn1

>  <Name>  (552) 
nan

>  <Pocket>  (552) 
nan

>  <ATP_Site>  (552) 
nan

>  <Peripheral>  (552) 
nan

>  <Num_H_Atoms_ProtBoundConf>  (552) 
nan

>  <Num_Resolved_Atoms>  (552) 
nan

>  <Num_Not_Resolved_Atoms>  (552) 
nan

$$$$
CHEMBL3663012
     RDKit          3D

  0  0  0  0  0  0  0  0  0  0999 V3000
M  V30 BEGIN CTAB
M  V30 COUNTS 60 65 0 0 0
M  V30 BEGIN ATOM
M  V30 1 C 5.443358 -3.293240 2.095344 0
M  V30 2 N 4.200228 -3.022126 1.421388 0
M  V30 3 C 3.559019 -1.810279 1.902585 0
M  V30 4 C 2.183266 -1.936995 1.427345 0 CFG=1
M  V30 5 N 1.903735 -1.559615 0.078315 0
M  V30 6 C 0.881328 -0.653471 -0.231182 0
M  V30 7 O 0.188654 -0.157418 0.677726 0
M  V30 8 N 0.610814 -0.281169 -1.574019 0
M  V30 9 C -0.417218 0.633074 -1.952470 0
M  V30 10 C -0.702397 1.025774 -3.266213 0
M  V30 11 C -1.743399 1.929479 -3.481114 0
M  V30 12 N -2.212953 2.457922 -4.626890 0
M  V30 13 N -3.210399 3.263236 -4.310295 0
M  V30 14 C -3.422000 3.287522 -2.972140 0
M  V30 15 C -4.426756 4.051654 -2.237777 0
M  V30 16 C -4.156101 4.760005 -1.083211 0
M  V30 17 C -5.176081 5.451709 -0.462986 0
M  V30 18 C -6.454649 5.468959 -0.942437 0
M  V30 19 F -7.472468 6.141002 -0.348971 0
M  V30 20 C -6.715820 4.752128 -2.105744 0
M  V30 21 C -5.711074 4.044749 -2.755078 0
M  V30 22 C -2.485820 2.434114 -2.425320 0
M  V30 23 C -2.169215 2.019591 -1.150637 0
M  V30 24 N -1.164105 1.148304 -0.954053 0
M  V30 25 C 1.869957 -3.406870 1.597857 0 CFG=2
M  V30 26 C 1.038695 -3.699519 2.786444 0
M  V30 27 C 1.457507 -3.597405 4.095294 0
M  V30 28 C 0.654932 -3.872964 5.182506 0
M  V30 29 C -0.648410 -4.277189 4.990510 0
M  V30 30 C -1.150487 -4.406287 3.712212 0
M  V30 31 C -0.294109 -4.114847 2.675617 0
M  V30 32 C 3.210762 -4.021966 1.569807 0
M  V30 33 C 3.299280 -5.034715 0.416914 0
M  V30 34 O 3.328801 -6.080105 1.306720 0
M  V30 35 C 3.482538 -5.219455 2.418936 0
M  V30 36 H 5.889040 -4.187096 1.613195 0
M  V30 37 H 5.324382 -3.550363 3.177201 0
M  V30 38 H 6.172746 -2.484681 2.013754 0
M  V30 39 H 4.166273 -1.015117 1.408471 0
M  V30 40 H 3.625298 -1.688534 3.002302 0
M  V30 41 H 1.496418 -1.392892 2.108383 0
M  V30 42 H 2.497980 -1.990382 -0.684880 0
M  V30 43 H 1.184497 -0.686106 -2.374823 0
M  V30 44 H -0.091695 0.599644 -4.039632 0
M  V30 45 H -1.828444 2.242068 -5.572906 0
M  V30 46 H -3.140339 4.743259 -0.707064 0
M  V30 47 H -4.976923 6.020160 0.455490 0
M  V30 48 H -7.714295 4.757144 -2.492279 0
M  V30 49 H -5.935909 3.492665 -3.659194 0
M  V30 50 H -2.749627 2.411003 -0.303246 0
M  V30 51 H 1.253643 -3.703455 0.715882 0
M  V30 52 H 2.454988 -3.291902 4.303730 0
M  V30 53 H 1.062358 -3.767488 6.197645 0
M  V30 54 H -1.237348 -4.481218 5.874471 0
M  V30 55 H -2.167551 -4.720743 3.543310 0
M  V30 56 H -0.736588 -4.230630 1.681922 0
M  V30 57 H 2.401701 -5.044485 -0.244984 0
M  V30 58 H 4.203412 -4.934429 -0.216530 0
M  V30 59 H 4.486598 -5.367475 2.812213 0
M  V30 60 H 2.736646 -5.497503 3.177453 0
M  V30 END ATOM
M  V30 BEGIN BOND
M  V30 1 1 1 2
M  V30 2 1 2 3
M  V30 3 1 3 4
M  V30 4 1 4 5
M  V30 5 1 5 6
M  V30 6 2 6 7
M  V30 7 1 6 8
M  V30 8 1 8 9
M  V30 9 2 9 10
M  V30 10 1 10 11
M  V30 11 1 11 12
M  V30 12 1 12 13
M  V30 13 2 13 14
M  V30 14 1 14 15
M  V30 15 2 15 16
M  V30 16 1 16 17
M  V30 17 2 17 18
M  V30 18 1 18 19
M  V30 19 1 18 20
M  V30 20 2 20 21
M  V30 21 1 14 22
M  V30 22 1 22 23
M  V30 23 2 23 24
M  V30 24 1 4 25
M  V30 25 1 25 26
M  V30 26 2 26 27
M  V30 27 1 27 28
M  V30 28 2 28 29
M  V30 29 1 29 30
M  V30 30 2 30 31
M  V30 31 1 25 32
M  V30 32 1 32 33
M  V30 33 1 33 34
M  V30 34 1 34 35
M  V30 35 1 32 2
M  V30 36 1 24 9
M  V30 37 1 31 26
M  V30 38 1 35 32
M  V30 39 2 22 11
M  V30 40 1 21 15
M  V30 41 1 1 36
M  V30 42 1 1 37
M  V30 43 1 1 38
M  V30 44 1 3 39
M  V30 45 1 3 40
M  V30 46 1 4 41 CFG=1
M  V30 47 1 5 42
M  V30 48 1 8 43
M  V30 49 1 10 44
M  V30 50 1 12 45
M  V30 51 1 16 46
M  V30 52 1 17 47
M  V30 53 1 20 48
M  V30 54 1 21 49
M  V30 55 1 23 50
M  V30 56 1 25 51 CFG=3
M  V30 57 1 27 52
M  V30 58 1 28 53
M  V30 59 1 29 54
M  V30 60 1 30 55
M  V30 61 1 31 56
M  V30 62 1 33 57
M  V30 63 1 33 58
M  V30 64 1 35 59
M  V30 65 1 35 60
M  V30 END BOND
M  V30 END CTAB
M  END
>  <Dataset>  (553) 
ChEMBL_Kinases

>  <Ligand_Instance>  (553) 
nan

>  <PDB_ID>  (553) 
nan

>  <Standardized_SMILES>  (553) 
CN1C[C@@H](NC(=O)Nc2cc3[nH]nc(-c4ccc(F)cc4)c3cn2)[C@H](c2ccccc2)C12COC2

>  <Name>  (553) 
nan

>  <Pocket>  (553) 
nan

>  <ATP_Site>  (553) 
nan

>  <Peripheral>  (553) 
nan

>  <Num_H_Atoms_ProtBoundConf>  (553) 
nan

>  <Num_Resolved_Atoms>  (553) 
nan

>  <Num_Not_Resolved_Atoms>  (553) 
nan

$$$$
CHEMBL3663013
     RDKit          3D

  0  0  0  0  0  0  0  0  0  0999 V3000
M  V30 BEGIN CTAB
M  V30 COUNTS 52 55 0 0 0
M  V30 BEGIN ATOM
M  V30 1 C -1.244116 -4.767670 2.502918 0
M  V30 2 C -1.021940 -3.972365 1.265043 0 CFG=1
M  V30 3 N 0.266112 -3.266869 1.278138 0
M  V30 4 C 0.288494 -1.838701 1.238520 0
M  V30 5 O -0.803064 -1.178985 1.192024 0
M  V30 6 N 1.571839 -1.179793 1.252815 0
M  V30 7 C 1.498847 0.243187 1.210851 0
M  V30 8 C 1.500750 0.796244 -0.055690 0
M  V30 9 C 1.432799 2.170364 -0.201276 0
M  V30 10 N 1.416107 2.989627 -1.271904 0
M  V30 11 N 1.340944 4.235726 -0.844844 0
M  V30 12 C 1.307278 4.247426 0.520390 0
M  V30 13 C 1.224449 5.463433 1.328787 0
M  V30 14 C 1.964989 5.758332 2.455506 0
M  V30 15 C 1.744545 6.977166 3.097637 0
M  V30 16 C 0.802000 7.857846 2.603250 0
M  V30 17 F 0.636158 9.037508 3.282894 0
M  V30 18 C 0.053113 7.588467 1.485409 0
M  V30 19 C 0.278511 6.383112 0.859425 0
M  V30 20 C 1.364434 2.941575 0.965263 0
M  V30 21 C 1.363465 2.372833 2.226956 0
M  V30 22 N 1.431073 1.028744 2.322236 0
M  V30 23 C -1.173295 -4.735029 -0.021912 0
M  V30 24 C -2.578096 -5.287008 -0.101891 0
M  V30 25 C -2.837256 -5.524214 -1.592333 0
M  V30 26 C -1.539239 -5.706416 -2.343479 0
M  V30 27 C -0.499224 -6.473661 -1.559745 0
M  V30 28 C -0.220226 -5.870359 -0.196363 0
M  V30 29 H -0.435414 -4.474631 3.223750 0
M  V30 30 H -1.108385 -5.859122 2.364531 0
M  V30 31 H -2.195581 -4.522049 2.970170 0
M  V30 32 H -1.778932 -3.162019 1.223013 0
M  V30 33 H 1.156004 -3.827840 1.316692 0
M  V30 34 H 2.428401 -1.779668 1.291619 0
M  V30 35 H 1.553711 0.196647 -0.954552 0
M  V30 36 H 1.456993 2.664188 -2.261085 0
M  V30 37 H 2.667310 4.988250 2.738723 0
M  V30 38 H 2.353284 7.154702 3.975296 0
M  V30 39 H -0.667266 8.316760 1.148845 0
M  V30 40 H -0.347708 6.215942 -0.031850 0
M  V30 41 H 1.309463 3.001806 3.105613 0
M  V30 42 H -1.070662 -3.985747 -0.841184 0
M  V30 43 H -2.567753 -6.310830 0.341622 0
M  V30 44 H -3.338439 -4.654481 0.371314 0
M  V30 45 H -3.521193 -6.361367 -1.778733 0
M  V30 46 H -3.297803 -4.566281 -1.954922 0
M  V30 47 H -1.774675 -6.336299 -3.227302 0
M  V30 48 H -1.123575 -4.756171 -2.744978 0
M  V30 49 H -0.693584 -7.548726 -1.532661 0
M  V30 50 H 0.454350 -6.347260 -2.148218 0
M  V30 51 H -0.508409 -6.655256 0.554544 0
M  V30 52 H 0.844754 -5.577617 -0.065182 0
M  V30 END ATOM
M  V30 BEGIN BOND
M  V30 1 1 1 2
M  V30 2 1 2 3
M  V30 3 1 3 4
M  V30 4 2 4 5
M  V30 5 1 4 6
M  V30 6 1 6 7
M  V30 7 2 7 8
M  V30 8 1 8 9
M  V30 9 1 9 10
M  V30 10 1 10 11
M  V30 11 2 11 12
M  V30 12 1 12 13
M  V30 13 2 13 14
M  V30 14 1 14 15
M  V30 15 2 15 16
M  V30 16 1 16 17
M  V30 17 1 16 18
M  V30 18 2 18 19
M  V30 19 1 12 20
M  V30 20 1 20 21
M  V30 21 2 21 22
M  V30 22 1 2 23
M  V30 23 1 23 24
M  V30 24 1 24 25
M  V30 25 1 25 26
M  V30 26 1 26 27
M  V30 27 1 27 28
M  V30 28 1 22 7
M  V30 29 1 28 23
M  V30 30 2 20 9
M  V30 31 1 19 13
M  V30 32 1 1 29
M  V30 33 1 1 30
M  V30 34 1 1 31
M  V30 35 1 2 32 CFG=3
M  V30 36 1 3 33
M  V30 37 1 6 34
M  V30 38 1 8 35
M  V30 39 1 10 36
M  V30 40 1 14 37
M  V30 41 1 15 38
M  V30 42 1 18 39
M  V30 43 1 19 40
M  V30 44 1 21 41
M  V30 45 1 23 42
M  V30 46 1 24 43
M  V30 47 1 24 44
M  V30 48 1 25 45
M  V30 49 1 25 46
M  V30 50 1 26 47
M  V30 51 1 26 48
M  V30 52 1 27 49
M  V30 53 1 27 50
M  V30 54 1 28 51
M  V30 55 1 28 52
M  V30 END BOND
M  V30 END CTAB
M  END
>  <Dataset>  (554) 
ChEMBL_Kinases

>  <Ligand_Instance>  (554) 
nan

>  <PDB_ID>  (554) 
nan

>  <Standardized_SMILES>  (554) 
C[C@@H](NC(=O)Nc1cc2[nH]nc(-c3ccc(F)cc3)c2cn1)C1CCCCC1

>  <Name>  (554) 
nan

>  <Pocket>  (554) 
nan

>  <ATP_Site>  (554) 
nan

>  <Peripheral>  (554) 
nan

>  <Num_H_Atoms_ProtBoundConf>  (554) 
nan

>  <Num_Resolved_Atoms>  (554) 
nan

>  <Num_Not_Resolved_Atoms>  (554) 
nan

$$$$
CHEMBL3663014
     RDKit          3D

  0  0  0  0  0  0  0  0  0  0999 V3000
M  V30 BEGIN CTAB
M  V30 COUNTS 40 42 0 0 0
M  V30 BEGIN ATOM
M  V30 1 C -0.678993 -4.025885 3.268583 0
M  V30 2 C -1.033473 -2.991300 2.250191 0 CFG=1
M  V30 3 N 0.090075 -2.567355 1.429237 0
M  V30 4 C 0.474779 -1.198962 1.408791 0
M  V30 5 O -0.077672 -0.284078 2.053662 0
M  V30 6 N 1.592328 -0.837860 0.576527 0
M  V30 7 C 2.106424 0.482513 0.438377 0
M  V30 8 C 1.493801 1.199547 -0.594876 0
M  V30 9 C 1.885113 2.516142 -0.864654 0
M  V30 10 N 1.499391 3.440879 -1.763526 0
M  V30 11 N 2.200688 4.558154 -1.595908 0
M  V30 12 C 3.067713 4.394081 -0.579062 0
M  V30 13 C 4.035630 5.398333 -0.067063 0
M  V30 14 C 3.583401 5.992465 1.189814 0
M  V30 15 N 3.239718 6.475472 2.198235 0
M  V30 16 C 2.873797 3.127186 -0.123245 0
M  V30 17 C 3.445341 2.377185 0.883325 0
M  V30 18 N 3.082867 1.111468 1.157337 0
M  V30 19 C -2.134718 -3.536557 1.397414 0
M  V30 20 C -3.470746 -3.178810 1.603375 0
M  V30 21 C -4.497380 -3.672085 0.825165 0
M  V30 22 C -4.215288 -4.559822 -0.208347 0
M  V30 23 C -2.900634 -4.919666 -0.420239 0
M  V30 24 C -1.878633 -4.424174 0.359713 0
M  V30 25 H -0.159262 -4.882007 2.792511 0
M  V30 26 H -0.086246 -3.544233 4.068987 0
M  V30 27 H -1.658492 -4.342638 3.723542 0
M  V30 28 H -1.423532 -2.088794 2.761994 0
M  V30 29 H 0.598549 -3.284429 0.864124 0
M  V30 30 H 2.110691 -1.543809 0.004384 0
M  V30 31 H 0.713982 0.840727 -1.243714 0
M  V30 32 H 0.743770 3.280735 -2.490750 0
M  V30 33 H 4.162748 6.223152 -0.805154 0
M  V30 34 H 5.027127 4.926158 0.119750 0
M  V30 35 H 4.227120 2.793703 1.504254 0
M  V30 36 H -3.718476 -2.486582 2.403862 0
M  V30 37 H -5.514913 -3.347374 1.045535 0
M  V30 38 H -5.061344 -4.919879 -0.793227 0
M  V30 39 H -2.687233 -5.622177 -1.238903 0
M  V30 40 H -0.854539 -4.727870 0.165809 0
M  V30 END ATOM
M  V30 BEGIN BOND
M  V30 1 1 1 2
M  V30 2 1 2 3
M  V30 3 1 3 4
M  V30 4 2 4 5
M  V30 5 1 4 6
M  V30 6 1 6 7
M  V30 7 2 7 8
M  V30 8 1 8 9
M  V30 9 1 9 10
M  V30 10 1 10 11
M  V30 11 2 11 12
M  V30 12 1 12 13
M  V30 13 1 13 14
M  V30 14 3 14 15
M  V30 15 1 12 16
M  V30 16 1 16 17
M  V30 17 2 17 18
M  V30 18 1 2 19
M  V30 19 2 19 20
M  V30 20 1 20 21
M  V30 21 2 21 22
M  V30 22 1 22 23
M  V30 23 2 23 24
M  V30 24 1 18 7
M  V30 25 1 24 19
M  V30 26 2 16 9
M  V30 27 1 1 25
M  V30 28 1 1 26
M  V30 29 1 1 27
M  V30 30 1 2 28 CFG=1
M  V30 31 1 3 29
M  V30 32 1 6 30
M  V30 33 1 8 31
M  V30 34 1 10 32
M  V30 35 1 13 33
M  V30 36 1 13 34
M  V30 37 1 17 35
M  V30 38 1 20 36
M  V30 39 1 21 37
M  V30 40 1 22 38
M  V30 41 1 23 39
M  V30 42 1 24 40
M  V30 END BOND
M  V30 END CTAB
M  END
>  <Dataset>  (555) 
ChEMBL_Kinases

>  <Ligand_Instance>  (555) 
nan

>  <PDB_ID>  (555) 
nan

>  <Standardized_SMILES>  (555) 
C[C@@H](NC(=O)Nc1cc2[nH]nc(CC#N)c2cn1)c1ccccc1

>  <Name>  (555) 
nan

>  <Pocket>  (555) 
nan

>  <ATP_Site>  (555) 
nan

>  <Peripheral>  (555) 
nan

>  <Num_H_Atoms_ProtBoundConf>  (555) 
nan

>  <Num_Resolved_Atoms>  (555) 
nan

>  <Num_Not_Resolved_Atoms>  (555) 
nan

$$$$
CHEMBL3663006
     RDKit          3D

  0  0  0  0  0  0  0  0  0  0999 V3000
M  V30 BEGIN CTAB
M  V30 COUNTS 56 60 0 0 0
M  V30 BEGIN ATOM
M  V30 1 C 5.753621 -7.302691 -2.122213 0
M  V30 2 C 5.733421 -5.803701 -2.133670 0
M  V30 3 C 5.109251 -5.090108 -1.151740 0
M  V30 4 C 5.101786 -3.701060 -1.179889 0
M  V30 5 C 4.378355 -3.117417 -0.041610 0
M  V30 6 N 4.462943 -3.476223 1.276397 0
M  V30 7 N 3.653397 -2.711167 1.989329 0
M  V30 8 C 3.003434 -1.826960 1.207560 0
M  V30 9 C 2.069501 -0.819750 1.411044 0
M  V30 10 C 1.608720 -0.085618 0.327882 0
M  V30 11 N 0.659367 0.894432 0.736913 0
M  V30 12 C -0.714674 0.442826 0.733953 0
M  V30 13 O -1.071049 -0.718368 0.397064 0
M  V30 14 N -1.663999 1.417794 1.146532 0
M  V30 15 C -3.094450 1.216349 1.230612 0 CFG=2
M  V30 16 C -3.824609 2.209829 0.407291 0
M  V30 17 C -3.562005 3.561818 0.447777 0
M  V30 18 C -4.236651 4.464273 -0.323131 0
M  V30 19 C -5.231995 4.076931 -1.198536 0
M  V30 20 C -5.527262 2.728041 -1.269915 0
M  V30 21 C -4.825551 1.831652 -0.474675 0
M  V30 22 C -3.597890 1.349653 2.655191 0 CFG=1
M  V30 23 C -5.070790 1.067899 2.649104 0
M  V30 24 C -5.305491 0.198157 3.851435 0
M  V30 25 C -3.937764 -0.441748 3.997916 0
M  V30 26 O -3.038162 0.457651 3.508464 0
M  V30 27 N 2.072219 -0.353855 -0.927371 0
M  V30 28 C 2.980208 -1.330442 -1.139714 0
M  V30 29 C 3.461031 -2.081542 -0.083140 0
M  V30 30 C 5.718222 -2.989864 -2.191365 0
M  V30 31 C 6.331871 -3.773160 -3.153767 0
M  V30 32 N 6.336949 -5.117513 -3.122585 0
M  V30 33 H 4.938960 -7.664052 -1.436977 0
M  V30 34 H 5.541563 -7.670267 -3.131154 0
M  V30 35 H 6.705494 -7.684920 -1.679956 0
M  V30 36 H 4.628894 -5.687993 -0.364060 0
M  V30 37 H 3.531571 -2.780030 3.020828 0
M  V30 38 H 1.779167 -0.699814 2.434667 0
M  V30 39 H 0.906960 1.867665 1.023048 0
M  V30 40 H -1.486930 2.399701 1.443796 0
M  V30 41 H -3.363906 0.203434 0.901515 0
M  V30 42 H -2.792034 3.929995 1.115586 0
M  V30 43 H -4.031307 5.518263 -0.291014 0
M  V30 44 H -5.817525 4.716841 -1.846948 0
M  V30 45 H -6.305682 2.366739 -1.946995 0
M  V30 46 H -5.114010 0.788822 -0.590087 0
M  V30 47 H -3.513614 2.418433 3.002637 0
M  V30 48 H -5.688106 1.994818 2.673283 0
M  V30 49 H -5.341582 0.443271 1.752251 0
M  V30 50 H -6.106318 -0.568942 3.663264 0
M  V30 51 H -5.558672 0.848194 4.708751 0
M  V30 52 H -3.971639 -1.408491 3.419761 0
M  V30 53 H -3.828898 -0.709753 5.051065 0
M  V30 54 H 3.291116 -1.472368 -2.167740 0
M  V30 55 H 5.664032 -1.929427 -2.135494 0
M  V30 56 H 6.824017 -3.202100 -3.958322 0
M  V30 END ATOM
M  V30 BEGIN BOND
M  V30 1 1 1 2
M  V30 2 2 2 3
M  V30 3 1 3 4
M  V30 4 1 4 5
M  V30 5 2 5 6
M  V30 6 1 6 7
M  V30 7 1 7 8
M  V30 8 2 8 9
M  V30 9 1 9 10
M  V30 10 1 10 11
M  V30 11 1 11 12
M  V30 12 2 12 13
M  V30 13 1 12 14
M  V30 14 1 14 15
M  V30 15 1 15 16
M  V30 16 2 16 17
M  V30 17 1 17 18
M  V30 18 2 18 19
M  V30 19 1 19 20
M  V30 20 2 20 21
M  V30 21 1 15 22
M  V30 22 1 22 23
M  V30 23 1 23 24
M  V30 24 1 24 25
M  V30 25 1 25 26
M  V30 26 2 10 27
M  V30 27 1 27 28
M  V30 28 2 28 29
M  V30 29 2 4 30
M  V30 30 1 30 31
M  V30 31 2 31 32
M  V30 32 1 32 2
M  V30 33 1 29 5
M  V30 34 1 29 8
M  V30 35 1 21 16
M  V30 36 1 26 22
M  V30 37 1 1 33
M  V30 38 1 1 34
M  V30 39 1 1 35
M  V30 40 1 3 36
M  V30 41 1 7 37
M  V30 42 1 9 38
M  V30 43 1 11 39
M  V30 44 1 14 40
M  V30 45 1 15 41 CFG=3
M  V30 46 1 17 42
M  V30 47 1 18 43
M  V30 48 1 19 44
M  V30 49 1 20 45
M  V30 50 1 21 46
M  V30 51 1 22 47 CFG=1
M  V30 52 1 23 48
M  V30 53 1 23 49
M  V30 54 1 24 50
M  V30 55 1 24 51
M  V30 56 1 25 52
M  V30 57 1 25 53
M  V30 58 1 28 54
M  V30 59 1 30 55
M  V30 60 1 31 56
M  V30 END BOND
M  V30 END CTAB
M  END
>  <Dataset>  (556) 
ChEMBL_Kinases

>  <Ligand_Instance>  (556) 
nan

>  <PDB_ID>  (556) 
nan

>  <Standardized_SMILES>  (556) 
Cc1cc(-c2n[nH]c3cc(NC(=O)N[C@H](c4ccccc4)[C@H]4CCCO4)ncc23)ccn1

>  <Name>  (556) 
nan

>  <Pocket>  (556) 
nan

>  <ATP_Site>  (556) 
nan

>  <Peripheral>  (556) 
nan

>  <Num_H_Atoms_ProtBoundConf>  (556) 
nan

>  <Num_Resolved_Atoms>  (556) 
nan

>  <Num_Not_Resolved_Atoms>  (556) 
nan

$$$$
CHEMBL3663063
     RDKit          3D

  0  0  0  0  0  0  0  0  0  0999 V3000
M  V30 BEGIN CTAB
M  V30 COUNTS 56 60 0 0 0
M  V30 BEGIN ATOM
M  V30 1 C 2.712559 -2.720042 5.351585 0
M  V30 2 O 3.533536 -3.358801 4.474056 0
M  V30 3 C 3.066250 -4.574210 4.049740 0
M  V30 4 C 1.763268 -4.438124 3.338685 0 CFG=1
M  V30 5 N 1.967472 -3.561265 2.213632 0
M  V30 6 C 1.421035 -2.307178 1.841973 0
M  V30 7 O 0.564711 -1.687752 2.523012 0
M  V30 8 N 1.910956 -1.758416 0.604493 0
M  V30 9 C 1.362067 -0.497144 0.229671 0
M  V30 10 C 1.957786 0.692822 0.632921 0
M  V30 11 C 1.343787 1.880173 0.213763 0
M  V30 12 N 1.676462 3.165671 0.438046 0
M  V30 13 N 0.775809 3.948063 -0.175404 0
M  V30 14 C -0.143489 3.161233 -0.799222 0
M  V30 15 C -1.287321 3.649781 -1.577580 0
M  V30 16 C -2.044718 4.691136 -1.038003 0
M  V30 17 C -3.131166 5.227124 -1.671476 0
M  V30 18 C -3.525726 4.752837 -2.884567 0
M  V30 19 C -4.535213 5.039275 -3.784017 0
M  V30 20 N -4.405724 4.214358 -4.826813 0
M  V30 21 C -5.277754 4.197365 -5.992099 0
M  V30 22 N -3.369083 3.425778 -4.629723 0
M  V30 23 C -2.788589 3.723033 -3.433679 0
M  V30 24 C -1.680130 3.162261 -2.807825 0
M  V30 25 C 0.199945 1.826010 -0.563784 0
M  V30 26 C -0.366617 0.626361 -0.947200 0
M  V30 27 N 0.239094 -0.527658 -0.533727 0
M  V30 28 C 1.213435 -5.760555 2.916748 0
M  V30 29 C 1.718422 -6.450959 1.832934 0
M  V30 30 C 1.174130 -7.670318 1.484227 0
M  V30 31 C 0.129358 -8.236921 2.185348 0
M  V30 32 C -0.409082 -7.567636 3.289333 0
M  V30 33 C 0.159942 -6.339332 3.617993 0
M  V30 34 H 2.506055 -3.327253 6.280075 0
M  V30 35 H 1.765725 -2.409351 4.887142 0
M  V30 36 H 3.202311 -1.793310 5.787484 0
M  V30 37 H 3.787979 -5.011232 3.293603 0
M  V30 38 H 3.009124 -5.238555 4.943842 0
M  V30 39 H 1.022285 -3.970506 4.004126 0
M  V30 40 H 2.688683 -4.045492 1.604023 0
M  V30 41 H 2.620260 -2.258598 0.028338 0
M  V30 42 H 2.839315 0.654168 1.232277 0
M  V30 43 H 2.494463 3.493989 0.993698 0
M  V30 44 H -1.757142 5.093324 -0.070917 0
M  V30 45 H -3.689521 6.035539 -1.213836 0
M  V30 46 H -5.283048 5.794723 -3.652067 0
M  V30 47 H -5.768168 5.158468 -6.187262 0
M  V30 48 H -6.017644 3.365875 -5.859786 0
M  V30 49 H -4.682195 3.965976 -6.898591 0
M  V30 50 H -1.096337 2.357643 -3.226566 0
M  V30 51 H -1.262835 0.629875 -1.556484 0
M  V30 52 H 2.535931 -6.048757 1.252577 0
M  V30 53 H 1.596164 -8.193163 0.620244 0
M  V30 54 H -0.312560 -9.186808 1.933137 0
M  V30 55 H -1.229549 -7.965968 3.875923 0
M  V30 56 H -0.271201 -5.833423 4.478825 0
M  V30 END ATOM
M  V30 BEGIN BOND
M  V30 1 1 1 2
M  V30 2 1 2 3
M  V30 3 1 3 4
M  V30 4 1 4 5
M  V30 5 1 5 6
M  V30 6 2 6 7
M  V30 7 1 6 8
M  V30 8 1 8 9
M  V30 9 2 9 10
M  V30 10 1 10 11
M  V30 11 1 11 12
M  V30 12 1 12 13
M  V30 13 2 13 14
M  V30 14 1 14 15
M  V30 15 1 15 16
M  V30 16 2 16 17
M  V30 17 1 17 18
M  V30 18 2 18 19
M  V30 19 1 19 20
M  V30 20 1 20 21
M  V30 21 1 20 22
M  V30 22 2 22 23
M  V30 23 1 23 24
M  V30 24 1 14 25
M  V30 25 1 25 26
M  V30 26 2 26 27
M  V30 27 1 4 28
M  V30 28 2 28 29
M  V30 29 1 29 30
M  V30 30 2 30 31
M  V30 31 1 31 32
M  V30 32 2 32 33
M  V30 33 1 27 9
M  V30 34 1 33 28
M  V30 35 2 25 11
M  V30 36 2 24 15
M  V30 37 1 23 18
M  V30 38 1 1 34
M  V30 39 1 1 35
M  V30 40 1 1 36
M  V30 41 1 3 37
M  V30 42 1 3 38
M  V30 43 1 4 39 CFG=1
M  V30 44 1 5 40
M  V30 45 1 8 41
M  V30 46 1 10 42
M  V30 47 1 12 43
M  V30 48 1 16 44
M  V30 49 1 17 45
M  V30 50 1 19 46
M  V30 51 1 21 47
M  V30 52 1 21 48
M  V30 53 1 21 49
M  V30 54 1 24 50
M  V30 55 1 26 51
M  V30 56 1 29 52
M  V30 57 1 30 53
M  V30 58 1 31 54
M  V30 59 1 32 55
M  V30 60 1 33 56
M  V30 END BOND
M  V30 END CTAB
M  END
>  <Dataset>  (557) 
ChEMBL_Kinases

>  <Ligand_Instance>  (557) 
nan

>  <PDB_ID>  (557) 
nan

>  <Standardized_SMILES>  (557) 
COC[C@@H](NC(=O)Nc1cc2[nH]nc(-c3ccc4cn(C)nc4c3)c2cn1)c1ccccc1

>  <Name>  (557) 
nan

>  <Pocket>  (557) 
nan

>  <ATP_Site>  (557) 
nan

>  <Peripheral>  (557) 
nan

>  <Num_H_Atoms_ProtBoundConf>  (557) 
nan

>  <Num_Resolved_Atoms>  (557) 
nan

>  <Num_Not_Resolved_Atoms>  (557) 
nan

$$$$
CHEMBL3663062
     RDKit          3D

  0  0  0  0  0  0  0  0  0  0999 V3000
M  V30 BEGIN CTAB
M  V30 COUNTS 56 60 0 0 0
M  V30 BEGIN ATOM
M  V30 1 C 3.171565 -1.817488 5.422247 0
M  V30 2 O 3.913568 -2.695571 4.688580 0
M  V30 3 C 3.364500 -3.917530 4.421810 0
M  V30 4 C 2.097567 -3.788975 3.649661 0 CFG=1
M  V30 5 N 2.295120 -3.116182 2.367836 0
M  V30 6 C 1.758181 -1.913846 1.847703 0
M  V30 7 O 0.961640 -1.262809 2.572286 0
M  V30 8 N 2.146713 -1.514275 0.546935 0
M  V30 9 C 1.549076 -0.278045 0.102703 0
M  V30 10 C 2.038237 1.003743 0.264360 0
M  V30 11 C 1.274123 2.032378 -0.255045 0
M  V30 12 N 1.548518 3.349452 -0.217028 0
M  V30 13 N 0.531642 3.964226 -0.841849 0
M  V30 14 C -0.369321 3.030144 -1.265230 0
M  V30 15 C -1.609393 3.306245 -1.985486 0
M  V30 16 C -2.413117 4.353963 -1.521433 0
M  V30 17 C -3.598113 4.658826 -2.165703 0
M  V30 18 C -3.984205 3.920508 -3.273111 0
M  V30 19 N -5.057031 3.972034 -4.096877 0
M  V30 20 N -4.972340 3.034101 -5.032412 0
M  V30 21 C -5.868929 2.703351 -6.121344 0
M  V30 22 C -3.846602 2.333224 -4.861026 0
M  V30 23 C -3.207019 2.884146 -3.746742 0
M  V30 24 C -2.014608 2.585835 -3.089381 0
M  V30 25 C 0.081862 1.777744 -0.901735 0
M  V30 26 C -0.372598 0.486046 -1.043043 0
M  V30 27 N 0.386004 -0.524304 -0.528343 0
M  V30 28 C 1.400439 -5.089925 3.463954 0
M  V30 29 C 1.788900 -5.949922 2.458784 0
M  V30 30 C 1.132048 -7.153294 2.299450 0
M  V30 31 C 0.087809 -7.539577 3.114154 0
M  V30 32 C -0.327902 -6.685828 4.143264 0
M  V30 33 C 0.344026 -5.486895 4.283832 0
M  V30 34 H 2.211423 -1.504066 5.026678 0
M  V30 35 H 3.781665 -0.873677 5.514387 0
M  V30 36 H 3.002479 -2.138716 6.473864 0
M  V30 37 H 4.108329 -4.572197 3.933826 0
M  V30 38 H 3.111616 -4.422270 5.379041 0
M  V30 39 H 1.391066 -3.161338 4.226433 0
M  V30 40 H 2.961462 -3.689118 1.799040 0
M  V30 41 H 2.799608 -2.040535 -0.056701 0
M  V30 42 H 2.971879 1.053625 0.783940 0
M  V30 43 H 2.383403 3.809836 0.210986 0
M  V30 44 H -2.096928 4.929242 -0.645980 0
M  V30 45 H -4.252655 5.466811 -1.836277 0
M  V30 46 H -6.542694 3.575849 -6.299985 0
M  V30 47 H -5.336029 2.402078 -7.037987 0
M  V30 48 H -6.526812 1.858861 -5.828658 0
M  V30 49 H -3.382662 1.488649 -5.385810 0
M  V30 50 H -1.402680 1.774836 -3.456964 0
M  V30 51 H -1.310886 0.314714 -1.554523 0
M  V30 52 H 2.611268 -5.702511 1.777454 0
M  V30 53 H 1.457473 -7.823183 1.492753 0
M  V30 54 H -0.441586 -8.483324 3.004007 0
M  V30 55 H -1.145734 -6.934087 4.819284 0
M  V30 56 H 0.040138 -4.796839 5.082266 0
M  V30 END ATOM
M  V30 BEGIN BOND
M  V30 1 1 1 2
M  V30 2 1 2 3
M  V30 3 1 3 4
M  V30 4 1 4 5
M  V30 5 1 5 6
M  V30 6 2 6 7
M  V30 7 1 6 8
M  V30 8 1 8 9
M  V30 9 2 9 10
M  V30 10 1 10 11
M  V30 11 1 11 12
M  V30 12 1 12 13
M  V30 13 2 13 14
M  V30 14 1 14 15
M  V30 15 1 15 16
M  V30 16 2 16 17
M  V30 17 1 17 18
M  V30 18 2 18 19
M  V30 19 1 19 20
M  V30 20 1 20 21
M  V30 21 1 20 22
M  V30 22 2 22 23
M  V30 23 1 23 24
M  V30 24 1 14 25
M  V30 25 1 25 26
M  V30 26 2 26 27
M  V30 27 1 4 28
M  V30 28 2 28 29
M  V30 29 1 29 30
M  V30 30 2 30 31
M  V30 31 1 31 32
M  V30 32 2 32 33
M  V30 33 1 27 9
M  V30 34 1 33 28
M  V30 35 2 25 11
M  V30 36 2 24 15
M  V30 37 1 23 18
M  V30 38 1 1 34
M  V30 39 1 1 35
M  V30 40 1 1 36
M  V30 41 1 3 37
M  V30 42 1 3 38
M  V30 43 1 4 39 CFG=1
M  V30 44 1 5 40
M  V30 45 1 8 41
M  V30 46 1 10 42
M  V30 47 1 12 43
M  V30 48 1 16 44
M  V30 49 1 17 45
M  V30 50 1 21 46
M  V30 51 1 21 47
M  V30 52 1 21 48
M  V30 53 1 22 49
M  V30 54 1 24 50
M  V30 55 1 26 51
M  V30 56 1 29 52
M  V30 57 1 30 53
M  V30 58 1 31 54
M  V30 59 1 32 55
M  V30 60 1 33 56
M  V30 END BOND
M  V30 END CTAB
M  END
>  <Dataset>  (558) 
ChEMBL_Kinases

>  <Ligand_Instance>  (558) 
nan

>  <PDB_ID>  (558) 
nan

>  <Standardized_SMILES>  (558) 
COC[C@@H](NC(=O)Nc1cc2[nH]nc(-c3ccc4nn(C)cc4c3)c2cn1)c1ccccc1

>  <Name>  (558) 
nan

>  <Pocket>  (558) 
nan

>  <ATP_Site>  (558) 
nan

>  <Peripheral>  (558) 
nan

>  <Num_H_Atoms_ProtBoundConf>  (558) 
nan

>  <Num_Resolved_Atoms>  (558) 
nan

>  <Num_Not_Resolved_Atoms>  (558) 
nan

$$$$
CHEMBL3663061
     RDKit          3D

  0  0  0  0  0  0  0  0  0  0999 V3000
M  V30 BEGIN CTAB
M  V30 COUNTS 46 48 0 0 0
M  V30 BEGIN ATOM
M  V30 1 C -1.791602 -4.587135 3.126919 0
M  V30 2 C -2.034576 -3.572133 2.062513 0 CFG=1
M  V30 3 N -0.875590 -3.343238 1.198250 0
M  V30 4 C -0.209571 -2.115320 1.070892 0
M  V30 5 O -0.674642 -1.160246 1.770352 0
M  V30 6 N 0.914567 -1.953621 0.212281 0
M  V30 7 C 1.470039 -0.639636 0.203701 0
M  V30 8 C 1.015708 0.303822 -0.694152 0
M  V30 9 C 1.500884 1.586369 -0.762110 0
M  V30 10 N 1.221923 2.664065 -1.536860 0
M  V30 11 N 1.986391 3.682284 -1.194405 0
M  V30 12 C 2.803263 3.300803 -0.169610 0
M  V30 13 C 3.828223 4.094294 0.545849 0
M  V30 14 C 5.214313 3.510418 0.379757 0
M  V30 15 C 3.537015 4.258163 2.017218 0
M  V30 16 O 3.841580 5.375348 -0.014553 0
M  V30 17 C 2.513587 1.983739 0.118154 0
M  V30 18 C 2.953399 1.016279 1.011593 0
M  V30 19 N 2.456214 -0.231215 1.051284 0
M  V30 20 C -3.241149 -3.862450 1.247914 0
M  V30 21 C -4.481249 -3.276368 1.504510 0
M  V30 22 C -5.575627 -3.586292 0.708041 0
M  V30 23 C -5.407606 -4.478894 -0.332390 0
M  V30 24 C -4.177703 -5.051584 -0.576273 0
M  V30 25 C -3.070139 -4.751833 0.212590 0
M  V30 26 H -0.704276 -4.581411 3.374785 0
M  V30 27 H -2.151278 -5.602434 2.864762 0
M  V30 28 H -2.332543 -4.286193 4.034036 0
M  V30 29 H -2.227203 -2.591873 2.549183 0
M  V30 30 H -0.522736 -4.164998 0.634855 0
M  V30 31 H 1.281504 -2.757380 -0.356501 0
M  V30 32 H 0.236501 0.008372 -1.376071 0
M  V30 33 H 0.482847 2.601857 -2.281414 0
M  V30 34 H 5.733200 3.477760 1.339997 0
M  V30 35 H 5.087714 2.520282 -0.098452 0
M  V30 36 H 5.826431 4.122043 -0.333065 0
M  V30 37 H 3.909900 5.249903 2.350421 0
M  V30 38 H 2.449428 4.223398 2.159063 0
M  V30 39 H 4.091298 3.518370 2.627000 0
M  V30 40 H 4.006952 6.078539 0.651257 0
M  V30 41 H 3.746305 1.315996 1.705917 0
M  V30 42 H -4.520806 -2.582270 2.347954 0
M  V30 43 H -6.526903 -3.119653 0.925975 0
M  V30 44 H -6.310035 -4.662797 -0.900539 0
M  V30 45 H -4.223937 -5.727998 -1.430240 0
M  V30 46 H -2.161721 -5.251597 -0.062487 0
M  V30 END ATOM
M  V30 BEGIN BOND
M  V30 1 1 1 2
M  V30 2 1 2 3
M  V30 3 1 3 4
M  V30 4 2 4 5
M  V30 5 1 4 6
M  V30 6 1 6 7
M  V30 7 2 7 8
M  V30 8 1 8 9
M  V30 9 1 9 10
M  V30 10 1 10 11
M  V30 11 2 11 12
M  V30 12 1 12 13
M  V30 13 1 13 14
M  V30 14 1 13 15
M  V30 15 1 13 16
M  V30 16 1 12 17
M  V30 17 1 17 18
M  V30 18 2 18 19
M  V30 19 1 2 20
M  V30 20 2 20 21
M  V30 21 1 21 22
M  V30 22 2 22 23
M  V30 23 1 23 24
M  V30 24 2 24 25
M  V30 25 1 19 7
M  V30 26 1 25 20
M  V30 27 2 17 9
M  V30 28 1 1 26
M  V30 29 1 1 27
M  V30 30 1 1 28
M  V30 31 1 2 29 CFG=1
M  V30 32 1 3 30
M  V30 33 1 6 31
M  V30 34 1 8 32
M  V30 35 1 10 33
M  V30 36 1 14 34
M  V30 37 1 14 35
M  V30 38 1 14 36
M  V30 39 1 15 37
M  V30 40 1 15 38
M  V30 41 1 15 39
M  V30 42 1 16 40
M  V30 43 1 18 41
M  V30 44 1 21 42
M  V30 45 1 22 43
M  V30 46 1 23 44
M  V30 47 1 24 45
M  V30 48 1 25 46
M  V30 END BOND
M  V30 END CTAB
M  END
>  <Dataset>  (559) 
ChEMBL_Kinases

>  <Ligand_Instance>  (559) 
nan

>  <PDB_ID>  (559) 
nan

>  <Standardized_SMILES>  (559) 
C[C@@H](NC(=O)Nc1cc2[nH]nc(C(C)(C)O)c2cn1)c1ccccc1

>  <Name>  (559) 
nan

>  <Pocket>  (559) 
nan

>  <ATP_Site>  (559) 
nan

>  <Peripheral>  (559) 
nan

>  <Num_H_Atoms_ProtBoundConf>  (559) 
nan

>  <Num_Resolved_Atoms>  (559) 
nan

>  <Num_Not_Resolved_Atoms>  (559) 
nan

$$$$
CHEMBL3663060
     RDKit          3D

  0  0  0  0  0  0  0  0  0  0999 V3000
M  V30 BEGIN CTAB
M  V30 COUNTS 46 49 0 0 0
M  V30 BEGIN ATOM
M  V30 1 C 5.345245 -4.107736 3.929131 0
M  V30 2 O 4.917830 -4.780762 2.788193 0
M  V30 3 C 4.487122 -3.873387 1.792164 0
M  V30 4 C 4.055761 -4.690350 0.627469 0
M  V30 5 N 3.576944 -3.952134 -0.506029 0
M  V30 6 C 2.454393 -3.087763 -0.415813 0
M  V30 7 O 1.915719 -3.016558 0.717207 0
M  V30 8 N 2.016495 -2.369277 -1.590015 0
M  V30 9 C 0.868399 -1.547153 -1.301331 0
M  V30 10 N 0.946614 -0.269039 -0.883068 0
M  V30 11 C -0.166507 0.445968 -0.630098 0
M  V30 12 C -1.373435 -0.193439 -0.820177 0
M  V30 13 C -2.639037 0.327971 -0.628250 0
M  V30 14 C -3.129509 1.635872 -0.190875 0
M  V30 15 C -4.175788 2.300224 -0.828118 0
M  V30 16 C -4.586797 3.539233 -0.355913 0
M  V30 17 N -3.995067 4.120868 0.711748 0
M  V30 18 C -2.977786 3.524434 1.367904 0
M  V30 19 C -2.282858 4.110507 2.550130 0
M  V30 20 C -1.867666 3.101332 3.609077 0
M  V30 21 C -0.857033 3.802003 2.806770 0
M  V30 22 C -2.575838 2.292664 0.891276 0
M  V30 23 N -3.484916 -0.673093 -0.942970 0
M  V30 24 N -2.851604 -1.766252 -1.312200 0
M  V30 25 C -1.531998 -1.498547 -1.245981 0
M  V30 26 C -0.356086 -2.187082 -1.491294 0
M  V30 27 F -0.471839 -3.467802 -1.909806 0
M  V30 28 H 5.672654 -4.869075 4.679316 0
M  V30 29 H 6.182952 -3.461175 3.648401 0
M  V30 30 H 4.497148 -3.509130 4.286387 0
M  V30 31 H 3.642315 -3.334356 2.262543 0
M  V30 32 H 5.362360 -3.233241 1.590998 0
M  V30 33 H 4.909015 -5.327835 0.300504 0
M  V30 34 H 3.257621 -5.392064 1.008812 0
M  V30 35 H 4.039058 -4.022846 -1.447436 0
M  V30 36 H 2.499269 -2.461002 -2.516936 0
M  V30 37 H -0.102950 1.470202 -0.294957 0
M  V30 38 H -4.647108 1.836492 -1.678862 0
M  V30 39 H -5.407088 4.072161 -0.846585 0
M  V30 40 H -2.658491 5.097621 2.874499 0
M  V30 41 H -2.006063 2.029973 3.419563 0
M  V30 42 H -2.091914 3.389533 4.660923 0
M  V30 43 H -0.247272 3.242245 2.067422 0
M  V30 44 H -0.268941 4.582285 3.335465 0
M  V30 45 H -1.764558 1.803539 1.404632 0
M  V30 46 H -3.240468 -2.680498 -1.605918 0
M  V30 END ATOM
M  V30 BEGIN BOND
M  V30 1 1 1 2
M  V30 2 1 2 3
M  V30 3 1 3 4
M  V30 4 1 4 5
M  V30 5 1 5 6
M  V30 6 2 6 7
M  V30 7 1 6 8
M  V30 8 1 8 9
M  V30 9 2 9 10
M  V30 10 1 10 11
M  V30 11 2 11 12
M  V30 12 1 12 13
M  V30 13 1 13 14
M  V30 14 2 14 15
M  V30 15 1 15 16
M  V30 16 2 16 17
M  V30 17 1 17 18
M  V30 18 1 18 19
M  V30 19 1 19 20
M  V30 20 1 20 21
M  V30 21 2 18 22
M  V30 22 2 13 23
M  V30 23 1 23 24
M  V30 24 1 24 25
M  V30 25 2 25 26
M  V30 26 1 26 27
M  V30 27 1 26 9
M  V30 28 1 25 12
M  V30 29 1 22 14
M  V30 30 1 21 19
M  V30 31 1 1 28
M  V30 32 1 1 29
M  V30 33 1 1 30
M  V30 34 1 3 31
M  V30 35 1 3 32
M  V30 36 1 4 33
M  V30 37 1 4 34
M  V30 38 1 5 35
M  V30 39 1 8 36
M  V30 40 1 11 37
M  V30 41 1 15 38
M  V30 42 1 16 39
M  V30 43 1 19 40
M  V30 44 1 20 41
M  V30 45 1 20 42
M  V30 46 1 21 43
M  V30 47 1 21 44
M  V30 48 1 22 45
M  V30 49 1 24 46
M  V30 END BOND
M  V30 END CTAB
M  END
>  <Dataset>  (560) 
ChEMBL_Kinases

>  <Ligand_Instance>  (560) 
nan

>  <PDB_ID>  (560) 
nan

>  <Standardized_SMILES>  (560) 
COCCNC(=O)Nc1ncc2c(-c3ccnc(C4CC4)c3)n[nH]c2c1F

>  <Name>  (560) 
nan

>  <Pocket>  (560) 
nan

>  <ATP_Site>  (560) 
nan

>  <Peripheral>  (560) 
nan

>  <Num_H_Atoms_ProtBoundConf>  (560) 
nan

>  <Num_Resolved_Atoms>  (560) 
nan

>  <Num_Not_Resolved_Atoms>  (560) 
nan

$$$$
CHEMBL3663059
     RDKit          3D

  0  0  0  0  0  0  0  0  0  0999 V3000
M  V30 BEGIN CTAB
M  V30 COUNTS 41 44 0 0 0
M  V30 BEGIN ATOM
M  V30 1 O 0.480803 -1.038044 2.980376 0
M  V30 2 C 0.208576 -2.238488 2.679140 0
M  V30 3 N 0.056618 -2.689673 1.318638 0
M  V30 4 C 0.243361 -1.651761 0.355669 0
M  V30 5 C 1.525015 -1.449597 -0.120796 0
M  V30 6 C 1.778360 -0.462456 -1.054237 0
M  V30 7 N 2.896639 -0.049373 -1.679700 0
M  V30 8 N 2.564635 0.944380 -2.483213 0
M  V30 9 C 1.249864 1.216119 -2.418964 0
M  V30 10 C 0.540660 2.246962 -3.167857 0
M  V30 11 C 0.875659 2.312421 -4.523572 0
M  V30 12 C 0.268585 3.255894 -5.353662 0
M  V30 13 C -0.668182 4.117712 -4.796186 0
M  V30 14 F -1.256601 5.035155 -5.609939 0
M  V30 15 C -0.999256 4.051097 -3.450408 0
M  V30 16 C -0.393599 3.114362 -2.636292 0
M  V30 17 C 0.723909 0.324379 -1.506794 0
M  V30 18 C -0.543188 0.104671 -1.018161 0
M  V30 19 N -0.775279 -0.868193 -0.102300 0
M  V30 20 N 0.063078 -3.112283 3.782753 0
M  V30 21 C 0.215869 -2.661246 5.164353 0
M  V30 22 C -0.992263 -2.887866 5.999169 0
M  V30 23 C -0.396023 -3.368200 7.303038 0
M  V30 24 O 0.967837 -3.094970 7.227866 0
M  V30 25 C 1.298016 -3.421198 5.898911 0
M  V30 26 H -0.169912 -3.699598 1.127952 0
M  V30 27 H 2.335909 -2.063903 0.235399 0
M  V30 28 H 3.820041 -0.471598 -1.519806 0
M  V30 29 H 1.605031 1.644705 -4.967829 0
M  V30 30 H 0.527893 3.308988 -6.410548 0
M  V30 31 H -1.725135 4.738629 -3.079493 0
M  V30 32 H -0.617848 3.027937 -1.596919 0
M  V30 33 H -1.354440 0.724035 -1.378750 0
M  V30 34 H -0.161352 -4.111800 3.588379 0
M  V30 35 H 0.450815 -1.570418 5.125489 0
M  V30 36 H -1.719196 -3.599810 5.561498 0
M  V30 37 H -1.555457 -1.942472 6.193320 0
M  V30 38 H -0.805522 -2.787976 8.156811 0
M  V30 39 H -0.500217 -4.463594 7.429463 0
M  V30 40 H 2.292583 -3.060301 5.616466 0
M  V30 41 H 1.196550 -4.498680 5.685819 0
M  V30 END ATOM
M  V30 BEGIN BOND
M  V30 1 2 1 2
M  V30 2 1 2 3
M  V30 3 1 3 4
M  V30 4 2 4 5
M  V30 5 1 5 6
M  V30 6 1 6 7
M  V30 7 1 7 8
M  V30 8 2 8 9
M  V30 9 1 9 10
M  V30 10 2 10 11
M  V30 11 1 11 12
M  V30 12 2 12 13
M  V30 13 1 13 14
M  V30 14 1 13 15
M  V30 15 2 15 16
M  V30 16 1 9 17
M  V30 17 1 17 18
M  V30 18 2 18 19
M  V30 19 1 2 20
M  V30 20 1 20 21
M  V30 21 1 21 22
M  V30 22 1 22 23
M  V30 23 1 23 24
M  V30 24 1 24 25
M  V30 25 1 19 4
M  V30 26 1 25 21
M  V30 27 2 17 6
M  V30 28 1 16 10
M  V30 29 1 3 26
M  V30 30 1 5 27
M  V30 31 1 7 28
M  V30 32 1 11 29
M  V30 33 1 12 30
M  V30 34 1 15 31
M  V30 35 1 16 32
M  V30 36 1 18 33
M  V30 37 1 20 34
M  V30 38 1 21 35
M  V30 39 1 22 36
M  V30 40 1 22 37
M  V30 41 1 23 38
M  V30 42 1 23 39
M  V30 43 1 25 40
M  V30 44 1 25 41
M  V30 END BOND
M  V30 END CTAB
M  END
>  <Dataset>  (561) 
ChEMBL_Kinases

>  <Ligand_Instance>  (561) 
nan

>  <PDB_ID>  (561) 
nan

>  <Standardized_SMILES>  (561) 
O=C(Nc1cc2[nH]nc(-c3ccc(F)cc3)c2cn1)NC1CCOC1

>  <Name>  (561) 
nan

>  <Pocket>  (561) 
nan

>  <ATP_Site>  (561) 
nan

>  <Peripheral>  (561) 
nan

>  <Num_H_Atoms_ProtBoundConf>  (561) 
nan

>  <Num_Resolved_Atoms>  (561) 
nan

>  <Num_Not_Resolved_Atoms>  (561) 
nan

$$$$
CHEMBL3663058
     RDKit          3D

  0  0  0  0  0  0  0  0  0  0999 V3000
M  V30 BEGIN CTAB
M  V30 COUNTS 36 38 0 0 0
M  V30 BEGIN ATOM
M  V30 1 C 0.352371 -5.980524 2.752379 0
M  V30 2 C 1.332675 -6.300156 1.647143 0
M  V30 3 N 2.201058 -5.172237 1.362256 0
M  V30 4 C 1.513181 -4.007812 0.949070 0
M  V30 5 O 0.246094 -3.980319 0.845338 0
M  V30 6 N 2.158511 -2.797117 0.621674 0
M  V30 7 C 1.512144 -1.600972 0.201805 0
M  V30 8 C 1.223483 -1.249262 -1.100537 0
M  V30 9 C 0.590027 -0.059566 -1.405128 0
M  V30 10 N 0.204395 0.505261 -2.564554 0
M  V30 11 N -0.367209 1.672240 -2.268365 0
M  V30 12 C -0.358216 1.872701 -0.936147 0
M  V30 13 C -0.892771 3.033967 -0.231728 0
M  V30 14 C -0.585230 4.283303 -0.763264 0
M  V30 15 C -1.060617 5.420872 -0.143706 0
M  V30 16 C -1.846111 5.392023 1.005683 0
M  V30 17 F -2.316349 6.498330 1.619803 0
M  V30 18 C -2.140462 4.134343 1.518505 0
M  V30 19 C -1.670947 2.990288 0.907949 0
M  V30 20 C 0.248190 0.783667 -0.340009 0
M  V30 21 C 0.540740 0.423734 0.958555 0
M  V30 22 N 1.167556 -0.759789 1.221541 0
M  V30 23 H -0.639277 -5.772877 2.275497 0
M  V30 24 H 0.605408 -5.065667 3.322346 0
M  V30 25 H 0.245145 -6.827217 3.454923 0
M  V30 26 H 2.014910 -7.098437 2.049365 0
M  V30 27 H 0.850821 -6.638570 0.722462 0
M  V30 28 H 3.243111 -5.154133 1.434937 0
M  V30 29 H 3.201243 -2.825429 0.708790 0
M  V30 30 H 1.512261 -1.937621 -1.853545 0
M  V30 31 H 0.342836 0.078797 -3.515025 0
M  V30 32 H 0.015460 4.478638 -1.653619 0
M  V30 33 H -0.859027 6.420497 -0.504044 0
M  V30 34 H -2.743846 4.029708 2.406826 0
M  V30 35 H -1.901622 2.002167 1.310039 0
M  V30 36 H 0.273729 1.080297 1.777767 0
M  V30 END ATOM
M  V30 BEGIN BOND
M  V30 1 1 1 2
M  V30 2 1 2 3
M  V30 3 1 3 4
M  V30 4 2 4 5
M  V30 5 1 4 6
M  V30 6 1 6 7
M  V30 7 2 7 8
M  V30 8 1 8 9
M  V30 9 1 9 10
M  V30 10 1 10 11
M  V30 11 2 11 12
M  V30 12 1 12 13
M  V30 13 2 13 14
M  V30 14 1 14 15
M  V30 15 2 15 16
M  V30 16 1 16 17
M  V30 17 1 16 18
M  V30 18 2 18 19
M  V30 19 1 12 20
M  V30 20 1 20 21
M  V30 21 2 21 22
M  V30 22 1 22 7
M  V30 23 2 20 9
M  V30 24 1 19 13
M  V30 25 1 1 23
M  V30 26 1 1 24
M  V30 27 1 1 25
M  V30 28 1 2 26
M  V30 29 1 2 27
M  V30 30 1 3 28
M  V30 31 1 6 29
M  V30 32 1 8 30
M  V30 33 1 10 31
M  V30 34 1 14 32
M  V30 35 1 15 33
M  V30 36 1 18 34
M  V30 37 1 19 35
M  V30 38 1 21 36
M  V30 END BOND
M  V30 END CTAB
M  END
>  <Dataset>  (562) 
ChEMBL_Kinases

>  <Ligand_Instance>  (562) 
nan

>  <PDB_ID>  (562) 
nan

>  <Standardized_SMILES>  (562) 
CCNC(=O)Nc1cc2[nH]nc(-c3ccc(F)cc3)c2cn1

>  <Name>  (562) 
nan

>  <Pocket>  (562) 
nan

>  <ATP_Site>  (562) 
nan

>  <Peripheral>  (562) 
nan

>  <Num_H_Atoms_ProtBoundConf>  (562) 
nan

>  <Num_Resolved_Atoms>  (562) 
nan

>  <Num_Not_Resolved_Atoms>  (562) 
nan

$$$$
CHEMBL3663057
     RDKit          3D

  0  0  0  0  0  0  0  0  0  0999 V3000
M  V30 BEGIN CTAB
M  V30 COUNTS 51 54 0 0 0
M  V30 BEGIN ATOM
M  V30 1 C -2.090872 -6.149895 -2.310180 0
M  V30 2 O -1.611714 -5.637539 -1.103477 0
M  V30 3 C -0.358414 -5.108211 -1.396894 0
M  V30 4 C 0.333846 -4.499053 -0.210868 0 CFG=1
M  V30 5 N -0.375694 -3.422190 0.395191 0
M  V30 6 C 0.203305 -2.142192 0.526703 0
M  V30 7 O 1.297361 -1.661525 0.213119 0
M  V30 8 N -0.559755 -1.126687 1.137189 0
M  V30 9 C -0.228137 0.235299 1.394827 0
M  V30 10 C 0.372264 0.757138 2.523374 0
M  V30 11 C 0.597967 2.120995 2.550241 0
M  V30 12 N 1.164599 2.864131 3.530047 0
M  V30 13 N 1.164860 4.131983 3.099233 0
M  V30 14 C 0.603506 4.192118 1.857583 0
M  V30 15 C 0.426347 5.402755 1.060416 0
M  V30 16 C -0.070505 6.557401 1.672252 0
M  V30 17 C -0.230001 7.683941 0.908629 0
M  V30 18 C 0.061773 7.777154 -0.430249 0
M  V30 19 C -0.112247 8.968358 -1.214479 0
M  V30 20 N -0.267149 9.921328 -1.847872 0
M  V30 21 C 0.554555 6.624052 -1.027056 0
M  V30 22 C 0.732394 5.452934 -0.283539 0
M  V30 23 C 0.231257 2.916308 1.481847 0
M  V30 24 C -0.367219 2.360772 0.368938 0
M  V30 25 N -0.591630 1.017798 0.337760 0
M  V30 26 C 0.493749 -5.571418 0.810349 0
M  V30 27 C 1.702075 -6.223614 0.995020 0
M  V30 28 C 1.852219 -7.230396 1.953691 0
M  V30 29 C 0.805831 -7.605503 2.743797 0
M  V30 30 C -0.407422 -6.938405 2.545995 0
M  V30 31 C -0.591526 -5.942952 1.612117 0
M  V30 32 H -2.132513 -5.266116 -3.010250 0
M  V30 33 H -1.412529 -6.876309 -2.779700 0
M  V30 34 H -3.139973 -6.493057 -2.238671 0
M  V30 35 H 0.257168 -5.988488 -1.705733 0
M  V30 36 H -0.376252 -4.438012 -2.280493 0
M  V30 37 H 1.345085 -4.215189 -0.546373 0
M  V30 38 H -1.343644 -3.592106 0.746634 0
M  V30 39 H -1.547903 -1.221133 1.518946 0
M  V30 40 H 0.608598 0.048010 3.278828 0
M  V30 41 H 1.530810 2.515564 4.445304 0
M  V30 42 H -0.320841 6.554816 2.722643 0
M  V30 43 H -0.618737 8.611408 1.356538 0
M  V30 44 H 0.796972 6.653086 -2.078049 0
M  V30 45 H 1.113554 4.598225 -0.792354 0
M  V30 46 H -0.644997 3.000066 -0.452858 0
M  V30 47 H 2.562891 -5.965533 0.396068 0
M  V30 48 H 2.813181 -7.730465 2.081750 0
M  V30 49 H 0.853743 -8.374760 3.502523 0
M  V30 50 H -1.265049 -7.203025 3.150260 0
M  V30 51 H -1.567479 -5.468578 1.515942 0
M  V30 END ATOM
M  V30 BEGIN BOND
M  V30 1 1 1 2
M  V30 2 1 2 3
M  V30 3 1 3 4
M  V30 4 1 4 5
M  V30 5 1 5 6
M  V30 6 2 6 7
M  V30 7 1 6 8
M  V30 8 1 8 9
M  V30 9 2 9 10
M  V30 10 1 10 11
M  V30 11 1 11 12
M  V30 12 1 12 13
M  V30 13 2 13 14
M  V30 14 1 14 15
M  V30 15 2 15 16
M  V30 16 1 16 17
M  V30 17 2 17 18
M  V30 18 1 18 19
M  V30 19 3 19 20
M  V30 20 1 18 21
M  V30 21 2 21 22
M  V30 22 1 14 23
M  V30 23 1 23 24
M  V30 24 2 24 25
M  V30 25 1 4 26
M  V30 26 2 26 27
M  V30 27 1 27 28
M  V30 28 2 28 29
M  V30 29 1 29 30
M  V30 30 2 30 31
M  V30 31 1 25 9
M  V30 32 1 31 26
M  V30 33 2 23 11
M  V30 34 1 22 15
M  V30 35 1 1 32
M  V30 36 1 1 33
M  V30 37 1 1 34
M  V30 38 1 3 35
M  V30 39 1 3 36
M  V30 40 1 4 37 CFG=3
M  V30 41 1 5 38
M  V30 42 1 8 39
M  V30 43 1 10 40
M  V30 44 1 12 41
M  V30 45 1 16 42
M  V30 46 1 17 43
M  V30 47 1 21 44
M  V30 48 1 22 45
M  V30 49 1 24 46
M  V30 50 1 27 47
M  V30 51 1 28 48
M  V30 52 1 29 49
M  V30 53 1 30 50
M  V30 54 1 31 51
M  V30 END BOND
M  V30 END CTAB
M  END
>  <Dataset>  (563) 
ChEMBL_Kinases

>  <Ligand_Instance>  (563) 
nan

>  <PDB_ID>  (563) 
nan

>  <Standardized_SMILES>  (563) 
COC[C@@H](NC(=O)Nc1cc2[nH]nc(-c3ccc(C#N)cc3)c2cn1)c1ccccc1

>  <Name>  (563) 
nan

>  <Pocket>  (563) 
nan

>  <ATP_Site>  (563) 
nan

>  <Peripheral>  (563) 
nan

>  <Num_H_Atoms_ProtBoundConf>  (563) 
nan

>  <Num_Resolved_Atoms>  (563) 
nan

>  <Num_Not_Resolved_Atoms>  (563) 
nan

$$$$
CHEMBL3663056
     RDKit          3D

  0  0  0  0  0  0  0  0  0  0999 V3000
M  V30 BEGIN CTAB
M  V30 COUNTS 51 54 0 0 0
M  V30 BEGIN ATOM
M  V30 1 C -0.108565 -7.768994 0.239232 0
M  V30 2 C 0.911026 -7.313997 -0.749092 0
M  V30 3 C 1.584781 -6.114476 -0.527414 0
M  V30 4 C 2.542435 -5.628534 -1.398676 0
M  V30 5 C 3.248553 -4.372274 -1.167113 0
M  V30 6 N 4.580601 -4.137319 -1.297990 0
M  V30 7 N 4.864162 -2.873322 -1.002985 0
M  V30 8 C 3.745029 -2.202628 -0.662152 0
M  V30 9 C 3.446512 -0.904514 -0.273538 0
M  V30 10 C 2.141293 -0.525158 0.016866 0
M  V30 11 N 1.806244 0.801279 0.418359 0
M  V30 12 C 0.439976 1.127490 0.703902 0
M  V30 13 O -0.424653 0.202787 0.583791 0
M  V30 14 N 0.150301 2.448707 1.097419 0
M  V30 15 C -1.196893 2.886868 1.410022 0 CFG=2
M  V30 16 C -1.550441 3.987378 0.411114 0
M  V30 17 C -1.242082 3.528547 2.802743 0
M  V30 18 C -2.650341 3.957190 3.065379 0
M  V30 19 C -3.531866 3.070698 3.675861 0
M  V30 20 C -4.842787 3.363399 3.961443 0
M  V30 21 C -5.330876 4.617872 3.625313 0
M  V30 22 C -4.457071 5.499806 3.018944 0
M  V30 23 C -3.143446 5.202227 2.734423 0
M  V30 24 N 1.174317 -1.468647 -0.093696 0
M  V30 25 C 1.452841 -2.743554 -0.473238 0
M  V30 26 C 2.742917 -3.146543 -0.767726 0
M  V30 27 C 2.808895 -6.406178 -2.529487 0
M  V30 28 C 2.139214 -7.589669 -2.741287 0
M  V30 29 N 1.215746 -8.005830 -1.850099 0
M  V30 30 H 0.102715 -7.363949 1.246604 0
M  V30 31 H -1.140145 -7.548494 -0.083073 0
M  V30 32 H -0.021023 -8.869405 0.325641 0
M  V30 33 H 1.341741 -5.548058 0.364949 0
M  V30 34 H 5.812350 -2.415998 -1.019003 0
M  V30 35 H 4.241553 -0.179806 -0.196225 0
M  V30 36 H 2.555448 1.508857 0.497523 0
M  V30 37 H 0.882972 3.188295 1.187451 0
M  V30 38 H -1.942953 2.100365 1.309099 0
M  V30 39 H -2.610651 4.287979 0.499504 0
M  V30 40 H -1.270816 3.715473 -0.627202 0
M  V30 41 H -0.948889 4.879348 0.723799 0
M  V30 42 H -0.634097 4.455210 2.823115 0
M  V30 43 H -0.843545 2.854664 3.572479 0
M  V30 44 H -3.166173 2.078161 3.948023 0
M  V30 45 H -5.493496 2.632012 4.441796 0
M  V30 46 H -6.351556 4.854856 3.844164 0
M  V30 47 H -4.859659 6.468564 2.767185 0
M  V30 48 H -2.477079 5.919108 2.254917 0
M  V30 49 H 0.621910 -3.440486 -0.537988 0
M  V30 50 H 3.555955 -6.037248 -3.219060 0
M  V30 51 H 2.377320 -8.158766 -3.629358 0
M  V30 END ATOM
M  V30 BEGIN BOND
M  V30 1 1 1 2
M  V30 2 2 2 3
M  V30 3 1 3 4
M  V30 4 1 4 5
M  V30 5 2 5 6
M  V30 6 1 6 7
M  V30 7 1 7 8
M  V30 8 2 8 9
M  V30 9 1 9 10
M  V30 10 1 10 11
M  V30 11 1 11 12
M  V30 12 2 12 13
M  V30 13 1 12 14
M  V30 14 1 14 15
M  V30 15 1 15 16
M  V30 16 1 15 17
M  V30 17 1 17 18
M  V30 18 2 18 19
M  V30 19 1 19 20
M  V30 20 2 20 21
M  V30 21 1 21 22
M  V30 22 2 22 23
M  V30 23 2 10 24
M  V30 24 1 24 25
M  V30 25 2 25 26
M  V30 26 2 4 27
M  V30 27 1 27 28
M  V30 28 2 28 29
M  V30 29 1 29 2
M  V30 30 1 26 5
M  V30 31 1 26 8
M  V30 32 1 23 18
M  V30 33 1 1 30
M  V30 34 1 1 31
M  V30 35 1 1 32
M  V30 36 1 3 33
M  V30 37 1 7 34
M  V30 38 1 9 35
M  V30 39 1 11 36
M  V30 40 1 14 37
M  V30 41 1 15 38 CFG=1
M  V30 42 1 16 39
M  V30 43 1 16 40
M  V30 44 1 16 41
M  V30 45 1 17 42
M  V30 46 1 17 43
M  V30 47 1 19 44
M  V30 48 1 20 45
M  V30 49 1 21 46
M  V30 50 1 22 47
M  V30 51 1 23 48
M  V30 52 1 25 49
M  V30 53 1 27 50
M  V30 54 1 28 51
M  V30 END BOND
M  V30 END CTAB
M  END
>  <Dataset>  (564) 
ChEMBL_Kinases

>  <Ligand_Instance>  (564) 
nan

>  <PDB_ID>  (564) 
nan

>  <Standardized_SMILES>  (564) 
Cc1cc(-c2n[nH]c3cc(NC(=O)N[C@H](C)Cc4ccccc4)ncc23)ccn1

>  <Name>  (564) 
nan

>  <Pocket>  (564) 
nan

>  <ATP_Site>  (564) 
nan

>  <Peripheral>  (564) 
nan

>  <Num_H_Atoms_ProtBoundConf>  (564) 
nan

>  <Num_Resolved_Atoms>  (564) 
nan

>  <Num_Not_Resolved_Atoms>  (564) 
nan

$$$$
CHEMBL3663055
     RDKit          3D

  0  0  0  0  0  0  0  0  0  0999 V3000
M  V30 BEGIN CTAB
M  V30 COUNTS 56 60 0 0 0
M  V30 BEGIN ATOM
M  V30 1 C 2.897337 -3.396864 3.952002 0
M  V30 2 O 3.812257 -3.888274 3.062133 0
M  V30 3 C 3.325986 -4.996267 2.410124 0
M  V30 4 C 2.099539 -4.675648 1.639152 0 CFG=1
M  V30 5 N 2.333910 -3.634917 0.630150 0
M  V30 6 C 1.642983 -2.407110 0.511650 0
M  V30 7 O 0.717982 -2.003043 1.245252 0
M  V30 8 N 2.076671 -1.579610 -0.564387 0
M  V30 9 C 1.424538 -0.319139 -0.751355 0
M  V30 10 C 1.772329 0.555434 -1.762505 0
M  V30 11 C 1.147806 1.775996 -1.952105 0
M  V30 12 N 1.278208 2.794780 -2.826610 0
M  V30 13 N 0.403698 3.749900 -2.549814 0
M  V30 14 C -0.351192 3.405454 -1.472168 0
M  V30 15 C -1.429257 4.148880 -0.818204 0
M  V30 16 C -1.300599 5.505846 -0.535855 0
M  V30 17 C -2.316146 6.237620 0.086852 0
M  V30 18 N -3.463486 5.624962 0.431652 0
M  V30 19 C -3.625551 4.314519 0.175320 0
M  V30 20 C -4.911005 3.667747 0.571604 0
M  V30 21 C -6.157595 4.471121 0.382760 0
M  V30 22 C -5.640164 4.137913 1.768189 0
M  V30 23 C -2.630111 3.582164 -0.438785 0
M  V30 24 C 0.116980 2.146017 -1.083531 0
M  V30 25 C -0.214602 1.257243 -0.079950 0
M  V30 26 N 0.423221 0.079286 0.064434 0
M  V30 27 C 1.519469 -5.896645 0.976308 0
M  V30 28 C 2.099550 -6.322502 -0.210075 0
M  V30 29 C 1.525925 -7.445383 -0.770704 0
M  V30 30 C 0.466691 -8.173239 -0.294897 0
M  V30 31 C -0.076537 -7.707022 0.891880 0
M  V30 32 C 0.431967 -6.588931 1.526677 0
M  V30 33 H 2.658854 -4.219165 4.690856 0
M  V30 34 H 3.420338 -2.618204 4.573467 0
M  V30 35 H 1.987095 -2.960095 3.542563 0
M  V30 36 H 4.139880 -5.363050 1.745972 0
M  V30 37 H 3.046376 -5.758527 3.172871 0
M  V30 38 H 1.287046 -4.311763 2.288995 0
M  V30 39 H 3.103670 -3.921540 -0.015962 0
M  V30 40 H 2.838276 -1.814656 -1.238445 0
M  V30 41 H 2.576570 0.256848 -2.432816 0
M  V30 42 H 1.977772 2.807625 -3.605726 0
M  V30 43 H -0.346501 5.942674 -0.841031 0
M  V30 44 H -2.040237 7.284174 0.228072 0
M  V30 45 H -4.996094 2.599166 0.333384 0
M  V30 46 H -6.118270 5.538201 0.054437 0
M  V30 47 H -7.123154 3.990403 0.126182 0
M  V30 48 H -5.338799 5.012705 2.354785 0
M  V30 49 H -6.177349 3.375001 2.377766 0
M  V30 50 H -2.792686 2.517213 -0.633664 0
M  V30 51 H -1.017184 1.508260 0.623093 0
M  V30 52 H 2.938855 -5.839256 -0.691791 0
M  V30 53 H 1.978437 -7.789999 -1.709805 0
M  V30 54 H 0.100636 -9.039168 -0.820497 0
M  V30 55 H -0.924019 -8.232246 1.336331 0
M  V30 56 H 0.043191 -6.190756 2.448612 0
M  V30 END ATOM
M  V30 BEGIN BOND
M  V30 1 1 1 2
M  V30 2 1 2 3
M  V30 3 1 3 4
M  V30 4 1 4 5
M  V30 5 1 5 6
M  V30 6 2 6 7
M  V30 7 1 6 8
M  V30 8 1 8 9
M  V30 9 2 9 10
M  V30 10 1 10 11
M  V30 11 1 11 12
M  V30 12 1 12 13
M  V30 13 2 13 14
M  V30 14 1 14 15
M  V30 15 2 15 16
M  V30 16 1 16 17
M  V30 17 2 17 18
M  V30 18 1 18 19
M  V30 19 1 19 20
M  V30 20 1 20 21
M  V30 21 1 21 22
M  V30 22 2 19 23
M  V30 23 1 14 24
M  V30 24 1 24 25
M  V30 25 2 25 26
M  V30 26 1 4 27
M  V30 27 2 27 28
M  V30 28 1 28 29
M  V30 29 2 29 30
M  V30 30 1 30 31
M  V30 31 2 31 32
M  V30 32 1 26 9
M  V30 33 1 32 27
M  V30 34 2 24 11
M  V30 35 1 23 15
M  V30 36 1 22 20
M  V30 37 1 1 33
M  V30 38 1 1 34
M  V30 39 1 1 35
M  V30 40 1 3 36
M  V30 41 1 3 37
M  V30 42 1 4 38 CFG=1
M  V30 43 1 5 39
M  V30 44 1 8 40
M  V30 45 1 10 41
M  V30 46 1 12 42
M  V30 47 1 16 43
M  V30 48 1 17 44
M  V30 49 1 20 45
M  V30 50 1 21 46
M  V30 51 1 21 47
M  V30 52 1 22 48
M  V30 53 1 22 49
M  V30 54 1 23 50
M  V30 55 1 25 51
M  V30 56 1 28 52
M  V30 57 1 29 53
M  V30 58 1 30 54
M  V30 59 1 31 55
M  V30 60 1 32 56
M  V30 END BOND
M  V30 END CTAB
M  END
>  <Dataset>  (565) 
ChEMBL_Kinases

>  <Ligand_Instance>  (565) 
nan

>  <PDB_ID>  (565) 
nan

>  <Standardized_SMILES>  (565) 
COC[C@@H](NC(=O)Nc1cc2[nH]nc(-c3ccnc(C4CC4)c3)c2cn1)c1ccccc1

>  <Name>  (565) 
nan

>  <Pocket>  (565) 
nan

>  <ATP_Site>  (565) 
nan

>  <Peripheral>  (565) 
nan

>  <Num_H_Atoms_ProtBoundConf>  (565) 
nan

>  <Num_Resolved_Atoms>  (565) 
nan

>  <Num_Not_Resolved_Atoms>  (565) 
nan

$$$$
CHEMBL3663054
     RDKit          3D

  0  0  0  0  0  0  0  0  0  0999 V3000
M  V30 BEGIN CTAB
M  V30 COUNTS 49 51 0 0 0
M  V30 BEGIN ATOM
M  V30 1 C 6.090791 -3.706214 4.671725 0
M  V30 2 O 6.482926 -2.816431 3.688428 0
M  V30 3 C 6.232036 -1.492336 4.045263 0
M  V30 4 C 6.652885 -0.520318 2.987293 0
M  V30 5 N 6.022072 -0.666528 1.717798 0
M  V30 6 C 4.632805 -0.546395 1.624459 0
M  V30 7 O 3.821732 -0.319304 2.529702 0
M  V30 8 N 4.025267 -0.696187 0.346420 0
M  V30 9 C 2.647730 -0.622511 -0.023491 0
M  V30 10 C 2.191126 0.640792 -0.379590 0
M  V30 11 C 0.872850 0.822769 -0.754781 0
M  V30 12 N 0.081991 1.848340 -1.152574 0
M  V30 13 N -1.126788 1.364382 -1.374017 0
M  V30 14 C -1.191280 0.040708 -1.141274 0
M  V30 15 C -2.437812 -0.696567 -1.324816 0
M  V30 16 C -2.382455 -1.905531 -1.987756 0
M  V30 17 C -3.587262 -2.562908 -2.135369 0
M  V30 18 N -4.765634 -2.089784 -1.676543 0
M  V30 19 C -4.818400 -0.915349 -1.032705 0
M  V30 20 O -6.062801 -0.543914 -0.617453 0
M  V30 21 C -6.450835 0.599019 0.067253 0
M  V30 22 C -7.441824 1.452459 -0.689261 0
M  V30 23 C -7.056166 0.171176 1.379865 0
M  V30 24 C -3.641924 -0.216962 -0.858054 0
M  V30 25 C 0.086633 -0.312223 -0.744252 0
M  V30 26 C 0.518586 -1.573361 -0.394930 0
M  V30 27 N 1.810698 -1.702523 -0.036451 0
M  V30 28 H 6.302012 -4.765229 4.363410 0
M  V30 29 H 6.705738 -3.549932 5.587283 0
M  V30 30 H 5.045073 -3.592245 4.999312 0
M  V30 31 H 6.896130 -1.295700 4.919472 0
M  V30 32 H 5.210304 -1.330245 4.444246 0
M  V30 33 H 6.324279 0.490963 3.369899 0
M  V30 34 H 7.743263 -0.484845 2.953479 0
M  V30 35 H 6.597750 -0.864186 0.852490 0
M  V30 36 H 4.553685 -0.892010 -0.536169 0
M  V30 37 H 2.826685 1.515775 -0.380092 0
M  V30 38 H 0.496334 2.791461 -1.223127 0
M  V30 39 H -1.479111 -2.358858 -2.388474 0
M  V30 40 H -3.563061 -3.521961 -2.657901 0
M  V30 41 H -5.578848 1.253197 0.271230 0
M  V30 42 H -6.948079 2.169569 -1.342623 0
M  V30 43 H -8.034563 2.016812 0.060045 0
M  V30 44 H -8.175638 0.843965 -1.248709 0
M  V30 45 H -7.247226 -0.935982 1.414691 0
M  V30 46 H -6.408923 0.419314 2.239845 0
M  V30 47 H -8.038091 0.658913 1.553207 0
M  V30 48 H -3.707495 0.722437 -0.339047 0
M  V30 49 H -0.134265 -2.432963 -0.401758 0
M  V30 END ATOM
M  V30 BEGIN BOND
M  V30 1 1 1 2
M  V30 2 1 2 3
M  V30 3 1 3 4
M  V30 4 1 4 5
M  V30 5 1 5 6
M  V30 6 2 6 7
M  V30 7 1 6 8
M  V30 8 1 8 9
M  V30 9 2 9 10
M  V30 10 1 10 11
M  V30 11 1 11 12
M  V30 12 1 12 13
M  V30 13 2 13 14
M  V30 14 1 14 15
M  V30 15 2 15 16
M  V30 16 1 16 17
M  V30 17 2 17 18
M  V30 18 1 18 19
M  V30 19 1 19 20
M  V30 20 1 20 21
M  V30 21 1 21 22
M  V30 22 1 21 23
M  V30 23 2 19 24
M  V30 24 1 14 25
M  V30 25 1 25 26
M  V30 26 2 26 27
M  V30 27 1 27 9
M  V30 28 2 25 11
M  V30 29 1 24 15
M  V30 30 1 1 28
M  V30 31 1 1 29
M  V30 32 1 1 30
M  V30 33 1 3 31
M  V30 34 1 3 32
M  V30 35 1 4 33
M  V30 36 1 4 34
M  V30 37 1 5 35
M  V30 38 1 8 36
M  V30 39 1 10 37
M  V30 40 1 12 38
M  V30 41 1 16 39
M  V30 42 1 17 40
M  V30 43 1 21 41
M  V30 44 1 22 42
M  V30 45 1 22 43
M  V30 46 1 22 44
M  V30 47 1 23 45
M  V30 48 1 23 46
M  V30 49 1 23 47
M  V30 50 1 24 48
M  V30 51 1 26 49
M  V30 END BOND
M  V30 END CTAB
M  END
>  <Dataset>  (566) 
ChEMBL_Kinases

>  <Ligand_Instance>  (566) 
nan

>  <PDB_ID>  (566) 
nan

>  <Standardized_SMILES>  (566) 
COCCNC(=O)Nc1cc2[nH]nc(-c3ccnc(OC(C)C)c3)c2cn1

>  <Name>  (566) 
nan

>  <Pocket>  (566) 
nan

>  <ATP_Site>  (566) 
nan

>  <Peripheral>  (566) 
nan

>  <Num_H_Atoms_ProtBoundConf>  (566) 
nan

>  <Num_Resolved_Atoms>  (566) 
nan

>  <Num_Not_Resolved_Atoms>  (566) 
nan

$$$$
CHEMBL3663053
     RDKit          3D

  0  0  0  0  0  0  0  0  0  0999 V3000
M  V30 BEGIN CTAB
M  V30 COUNTS 38 40 0 0 0
M  V30 BEGIN ATOM
M  V30 1 C 0.001571 -6.817454 0.885803 0
M  V30 2 C 0.639482 -6.513600 2.242985 0
M  V30 3 N -0.056969 -5.349975 2.790100 0
M  V30 4 C -0.052177 -4.125680 2.089511 0
M  V30 5 O 0.574621 -4.099431 0.990117 0
M  V30 6 N -0.679540 -2.943706 2.506679 0
M  V30 7 C -0.669706 -1.712021 1.793235 0
M  V30 8 C -1.672503 -1.431811 0.857778 0
M  V30 9 C -1.566133 -0.209658 0.224168 0
M  V30 10 N -2.332512 0.391892 -0.717520 0
M  V30 11 N -1.821646 1.585490 -1.023244 0
M  V30 12 C -0.711203 1.801146 -0.295260 0
M  V30 13 C 0.129716 2.992968 -0.346016 0
M  V30 14 C -0.582280 4.197186 -0.343398 0
M  V30 15 C 0.072498 5.418682 -0.388287 0
M  V30 16 N 1.416660 5.398175 -0.434324 0
M  V30 17 C 2.132044 4.247153 -0.438030 0
M  V30 18 C 3.617182 4.321089 -0.490657 0
M  V30 19 C 1.504119 3.044372 -0.394410 0
M  V30 20 C -0.530764 0.685670 0.496529 0
M  V30 21 C 0.409395 0.320503 1.433532 0
M  V30 22 N 0.342927 -0.863856 2.075717 0
M  V30 23 H 0.562264 -6.321944 0.088541 0
M  V30 24 H -1.043649 -6.404974 0.885101 0
M  V30 25 H -0.125893 -7.913581 0.724959 0
M  V30 26 H 0.553416 -7.337279 2.953132 0
M  V30 27 H 1.711111 -6.305976 2.059872 0
M  V30 28 H -0.568076 -5.400744 3.703196 0
M  V30 29 H -1.175534 -3.072389 3.437654 0
M  V30 30 H -2.469769 -2.134261 0.655678 0
M  V30 31 H -3.192410 0.011175 -1.156138 0
M  V30 32 H -1.663055 4.265672 -0.307321 0
M  V30 33 H -0.449608 6.359470 -0.387426 0
M  V30 34 H 3.956940 4.163615 0.569021 0
M  V30 35 H 3.969368 5.319124 -0.818752 0
M  V30 36 H 4.042386 3.486366 -1.079939 0
M  V30 37 H 1.998449 2.105173 -0.394350 0
M  V30 38 H 1.203996 1.022286 1.633942 0
M  V30 END ATOM
M  V30 BEGIN BOND
M  V30 1 1 1 2
M  V30 2 1 2 3
M  V30 3 1 3 4
M  V30 4 2 4 5
M  V30 5 1 4 6
M  V30 6 1 6 7
M  V30 7 2 7 8
M  V30 8 1 8 9
M  V30 9 1 9 10
M  V30 10 1 10 11
M  V30 11 2 11 12
M  V30 12 1 12 13
M  V30 13 2 13 14
M  V30 14 1 14 15
M  V30 15 2 15 16
M  V30 16 1 16 17
M  V30 17 1 17 18
M  V30 18 2 17 19
M  V30 19 1 12 20
M  V30 20 1 20 21
M  V30 21 2 21 22
M  V30 22 1 22 7
M  V30 23 2 20 9
M  V30 24 1 19 13
M  V30 25 1 1 23
M  V30 26 1 1 24
M  V30 27 1 1 25
M  V30 28 1 2 26
M  V30 29 1 2 27
M  V30 30 1 3 28
M  V30 31 1 6 29
M  V30 32 1 8 30
M  V30 33 1 10 31
M  V30 34 1 14 32
M  V30 35 1 15 33
M  V30 36 1 18 34
M  V30 37 1 18 35
M  V30 38 1 18 36
M  V30 39 1 19 37
M  V30 40 1 21 38
M  V30 END BOND
M  V30 END CTAB
M  END
>  <Dataset>  (567) 
ChEMBL_Kinases

>  <Ligand_Instance>  (567) 
nan

>  <PDB_ID>  (567) 
nan

>  <Standardized_SMILES>  (567) 
CCNC(=O)Nc1cc2[nH]nc(-c3ccnc(C)c3)c2cn1

>  <Name>  (567) 
nan

>  <Pocket>  (567) 
nan

>  <ATP_Site>  (567) 
nan

>  <Peripheral>  (567) 
nan

>  <Num_H_Atoms_ProtBoundConf>  (567) 
nan

>  <Num_Resolved_Atoms>  (567) 
nan

>  <Num_Not_Resolved_Atoms>  (567) 
nan

$$$$
CHEMBL3663052
     RDKit          3D

  0  0  0  0  0  0  0  0  0  0999 V3000
M  V30 BEGIN CTAB
M  V30 COUNTS 49 52 0 0 0
M  V30 BEGIN ATOM
M  V30 1 C -1.361813 -6.612886 -2.197325 0
M  V30 2 O -0.995183 -5.965411 -1.028659 0
M  V30 3 C -0.428931 -4.724171 -1.402969 0
M  V30 4 C -0.044710 -4.058682 -0.105010 0 CFG=2
M  V30 5 N 0.562242 -2.754285 -0.285525 0
M  V30 6 C 0.182098 -1.474685 0.126789 0
M  V30 7 O -0.872842 -1.278404 0.793053 0
M  V30 8 N 1.038900 -0.412946 -0.240195 0
M  V30 9 C 0.703542 0.914961 0.153790 0
M  V30 10 C 1.537427 1.980787 -0.199241 0
M  V30 11 C 1.126228 3.226885 0.231468 0
M  V30 12 N 1.741714 4.427897 0.030963 0
M  V30 13 N 1.039277 5.412938 0.601079 0
M  V30 14 C -0.066708 4.882277 1.197147 0
M  V30 15 C -1.130820 5.545514 1.941479 0
M  V30 16 C -1.645738 5.092163 3.138254 0
M  V30 17 C -2.640103 5.726154 3.819409 0
M  V30 18 N -3.159172 6.860068 3.307884 0
M  V30 19 C -2.679750 7.344881 2.125860 0
M  V30 20 F -3.167707 8.486095 1.563501 0
M  V30 21 C -1.659390 6.701522 1.419131 0
M  V30 22 C -0.004843 3.525762 0.962898 0
M  V30 23 C -0.774889 2.412385 1.270124 0
M  V30 24 N -0.407099 1.176742 0.867412 0
M  V30 25 C 0.817069 -4.939285 0.723314 0
M  V30 26 C 0.257073 -5.700946 1.747356 0
M  V30 27 C 0.988662 -6.553628 2.574506 0
M  V30 28 C 2.360197 -6.638680 2.351824 0
M  V30 29 C 2.926349 -5.889477 1.340776 0
M  V30 30 C 2.179702 -5.051065 0.533897 0
M  V30 31 H -1.826060 -7.617545 -2.002989 0
M  V30 32 H -0.449861 -6.754375 -2.845224 0
M  V30 33 H -2.096198 -6.061597 -2.794402 0
M  V30 34 H 0.424621 -4.954275 -2.044951 0
M  V30 35 H -1.254564 -4.179300 -1.903980 0
M  V30 36 H -0.978230 -3.875839 0.465857 0
M  V30 37 H 1.424180 -2.944562 -0.833187 0
M  V30 38 H 1.909803 -0.572041 -0.790362 0
M  V30 39 H 2.444111 1.845107 -0.770757 0
M  V30 40 H 2.636497 4.679019 -0.477075 0
M  V30 41 H -1.238281 4.182591 3.561248 0
M  V30 42 H -2.992867 5.302258 4.761875 0
M  V30 43 H -1.307620 7.105620 0.499395 0
M  V30 44 H -1.683758 2.565437 1.845378 0
M  V30 45 H -0.811459 -5.614924 1.897484 0
M  V30 46 H 0.419525 -7.089911 3.336669 0
M  V30 47 H 2.890275 -7.310323 3.014377 0
M  V30 48 H 3.998528 -6.006146 1.225030 0
M  V30 49 H 2.663476 -4.469127 -0.261775 0
M  V30 END ATOM
M  V30 BEGIN BOND
M  V30 1 1 1 2
M  V30 2 1 2 3
M  V30 3 1 3 4
M  V30 4 1 4 5
M  V30 5 1 5 6
M  V30 6 2 6 7
M  V30 7 1 6 8
M  V30 8 1 8 9
M  V30 9 2 9 10
M  V30 10 1 10 11
M  V30 11 1 11 12
M  V30 12 1 12 13
M  V30 13 2 13 14
M  V30 14 1 14 15
M  V30 15 2 15 16
M  V30 16 1 16 17
M  V30 17 2 17 18
M  V30 18 1 18 19
M  V30 19 1 19 20
M  V30 20 2 19 21
M  V30 21 1 14 22
M  V30 22 1 22 23
M  V30 23 2 23 24
M  V30 24 1 4 25
M  V30 25 2 25 26
M  V30 26 1 26 27
M  V30 27 2 27 28
M  V30 28 1 28 29
M  V30 29 2 29 30
M  V30 30 1 24 9
M  V30 31 1 30 25
M  V30 32 2 22 11
M  V30 33 1 21 15
M  V30 34 1 1 31
M  V30 35 1 1 32
M  V30 36 1 1 33
M  V30 37 1 3 34
M  V30 38 1 3 35
M  V30 39 1 4 36 CFG=1
M  V30 40 1 5 37
M  V30 41 1 8 38
M  V30 42 1 10 39
M  V30 43 1 12 40
M  V30 44 1 16 41
M  V30 45 1 17 42
M  V30 46 1 21 43
M  V30 47 1 23 44
M  V30 48 1 26 45
M  V30 49 1 27 46
M  V30 50 1 28 47
M  V30 51 1 29 48
M  V30 52 1 30 49
M  V30 END BOND
M  V30 END CTAB
M  END
>  <Dataset>  (568) 
ChEMBL_Kinases

>  <Ligand_Instance>  (568) 
nan

>  <PDB_ID>  (568) 
nan

>  <Standardized_SMILES>  (568) 
COC[C@H](NC(=O)Nc1cc2[nH]nc(-c3ccnc(F)c3)c2cn1)c1ccccc1

>  <Name>  (568) 
nan

>  <Pocket>  (568) 
nan

>  <ATP_Site>  (568) 
nan

>  <Peripheral>  (568) 
nan

>  <Num_H_Atoms_ProtBoundConf>  (568) 
nan

>  <Num_Resolved_Atoms>  (568) 
nan

>  <Num_Not_Resolved_Atoms>  (568) 
nan

$$$$
CHEMBL3663051
     RDKit          3D

  0  0  0  0  0  0  0  0  0  0999 V3000
M  V30 BEGIN CTAB
M  V30 COUNTS 50 53 0 0 0
M  V30 BEGIN ATOM
M  V30 1 C 2.363492 -5.251722 4.844913 0
M  V30 2 O 1.405530 -4.662598 4.038529 0
M  V30 3 C 1.788943 -4.536984 2.723048 0
M  V30 4 C 0.723390 -3.902021 1.918061 0 CFG=2
M  V30 5 N 0.340584 -2.585245 2.332307 0
M  V30 6 C 0.373353 -1.388196 1.604229 0
M  V30 7 O 0.797549 -1.492898 0.427679 0
M  V30 8 N -0.034661 -0.155199 2.137282 0
M  V30 9 C 0.016332 1.046021 1.353380 0
M  V30 10 C -0.400886 2.244110 1.934931 0
M  V30 11 C -0.306304 3.343782 1.076936 0
M  V30 12 N -0.630634 4.637124 1.337582 0
M  V30 13 N -0.374600 5.334031 0.222449 0
M  V30 14 C 0.103922 4.531160 -0.747248 0
M  V30 15 C 0.502951 4.895914 -2.103075 0
M  V30 16 C 1.259263 5.932472 -2.641286 0
M  V30 17 N 1.297151 5.760241 -3.986158 0
M  V30 18 N 0.611301 4.683757 -4.300518 0
M  V30 19 C 0.402132 4.143310 -5.643015 0
M  V30 20 C 0.100867 4.112309 -3.183972 0
M  V30 21 C 0.155167 3.254891 -0.221010 0
M  V30 22 C 0.543718 2.051118 -0.716054 0
M  V30 23 N 0.470979 0.961673 0.072890 0
M  V30 24 C -0.494787 -4.744735 1.870802 0
M  V30 25 C -0.686076 -6.024360 2.344624 0
M  V30 26 C -1.898910 -6.651041 2.208354 0
M  V30 27 C -2.965079 -6.015184 1.590783 0
M  V30 28 C -2.791543 -4.732666 1.109927 0
M  V30 29 C -1.565818 -4.097940 1.247030 0
M  V30 30 H 2.633631 -6.285322 4.515596 0
M  V30 31 H 1.940276 -5.295487 5.871284 0
M  V30 32 H 3.281239 -4.604231 4.905904 0
M  V30 33 H 1.949998 -5.559824 2.320772 0
M  V30 34 H 2.766565 -4.035714 2.589733 0
M  V30 35 H 1.070886 -3.817269 0.866428 0
M  V30 36 H -0.000097 -2.611256 3.334793 0
M  V30 37 H -0.372535 -0.133685 3.107344 0
M  V30 38 H -0.757473 2.300179 2.944525 0
M  V30 39 H -1.006977 5.029560 2.226831 0
M  V30 40 H 1.661739 6.652107 -1.939871 0
M  V30 41 H 1.261135 3.474751 -5.862219 0
M  V30 42 H 0.415065 4.951998 -6.383802 0
M  V30 43 H -0.534397 3.545789 -5.689211 0
M  V30 44 H -0.510623 3.202722 -3.169468 0
M  V30 45 H 0.912218 1.919121 -1.720071 0
M  V30 46 H 0.175640 -6.442362 2.803513 0
M  V30 47 H -1.928692 -7.638438 2.612707 0
M  V30 48 H -3.907757 -6.556139 1.507438 0
M  V30 49 H -3.672777 -4.325333 0.649170 0
M  V30 50 H -1.582869 -3.103730 0.824469 0
M  V30 END ATOM
M  V30 BEGIN BOND
M  V30 1 1 1 2
M  V30 2 1 2 3
M  V30 3 1 3 4
M  V30 4 1 4 5
M  V30 5 1 5 6
M  V30 6 2 6 7
M  V30 7 1 6 8
M  V30 8 1 8 9
M  V30 9 2 9 10
M  V30 10 1 10 11
M  V30 11 1 11 12
M  V30 12 1 12 13
M  V30 13 2 13 14
M  V30 14 1 14 15
M  V30 15 1 15 16
M  V30 16 2 16 17
M  V30 17 1 17 18
M  V30 18 1 18 19
M  V30 19 1 18 20
M  V30 20 1 14 21
M  V30 21 1 21 22
M  V30 22 2 22 23
M  V30 23 1 4 24
M  V30 24 2 24 25
M  V30 25 1 25 26
M  V30 26 2 26 27
M  V30 27 1 27 28
M  V30 28 2 28 29
M  V30 29 1 23 9
M  V30 30 1 29 24
M  V30 31 2 21 11
M  V30 32 2 20 15
M  V30 33 1 1 30
M  V30 34 1 1 31
M  V30 35 1 1 32
M  V30 36 1 3 33
M  V30 37 1 3 34
M  V30 38 1 4 35 CFG=3
M  V30 39 1 5 36
M  V30 40 1 8 37
M  V30 41 1 10 38
M  V30 42 1 12 39
M  V30 43 1 16 40
M  V30 44 1 19 41
M  V30 45 1 19 42
M  V30 46 1 19 43
M  V30 47 1 20 44
M  V30 48 1 22 45
M  V30 49 1 25 46
M  V30 50 1 26 47
M  V30 51 1 27 48
M  V30 52 1 28 49
M  V30 53 1 29 50
M  V30 END BOND
M  V30 END CTAB
M  END
>  <Dataset>  (569) 
ChEMBL_Kinases

>  <Ligand_Instance>  (569) 
nan

>  <PDB_ID>  (569) 
nan

>  <Standardized_SMILES>  (569) 
COC[C@H](NC(=O)Nc1cc2[nH]nc(-c3cnn(C)c3)c2cn1)c1ccccc1

>  <Name>  (569) 
nan

>  <Pocket>  (569) 
nan

>  <ATP_Site>  (569) 
nan

>  <Peripheral>  (569) 
nan

>  <Num_H_Atoms_ProtBoundConf>  (569) 
nan

>  <Num_Resolved_Atoms>  (569) 
nan

>  <Num_Not_Resolved_Atoms>  (569) 
nan

$$$$
CHEMBL3663050
     RDKit          3D

  0  0  0  0  0  0  0  0  0  0999 V3000
M  V30 BEGIN CTAB
M  V30 COUNTS 43 45 0 0 0
M  V30 BEGIN ATOM
M  V30 1 C -3.586335 -5.537436 1.998440 0
M  V30 2 O -3.438077 -5.917808 3.294801 0
M  V30 3 C -3.215169 -4.966815 4.241862 0
M  V30 4 C -1.992262 -4.158625 4.037900 0
M  V30 5 N -0.803732 -4.380706 4.659836 0
M  V30 6 N 0.108864 -3.513492 4.261417 0
M  V30 7 C -0.408511 -2.672128 3.363033 0
M  V30 8 C 0.011494 -1.598721 2.619494 0
M  V30 9 C -0.784770 -0.896545 1.745865 0
M  V30 10 N -0.394795 0.210615 0.959154 0
M  V30 11 C 0.817562 0.890681 0.823583 0
M  V30 12 O 1.743921 0.459916 1.516164 0
M  V30 13 N 1.096335 1.997324 -0.003819 0
M  V30 14 C 2.423857 2.583984 -0.020463 0 CFG=2
M  V30 15 C 2.402021 4.025748 0.389558 0
M  V30 16 C 2.947953 2.356101 -1.394200 0
M  V30 17 C 4.253792 1.900939 -1.600674 0
M  V30 18 C 4.693379 1.704300 -2.905599 0
M  V30 19 C 3.891096 1.940104 -4.019225 0
M  V30 20 C 2.592023 2.394305 -3.772983 0
M  V30 21 C 2.137466 2.595558 -2.487526 0
M  V30 22 N -2.032854 -1.335041 1.661049 0
M  V30 23 C -2.503260 -2.374446 2.357663 0
M  V30 24 C -1.709424 -3.078290 3.230660 0
M  V30 25 H -4.444897 -4.841513 1.900633 0
M  V30 26 H -2.707831 -5.090194 1.505649 0
M  V30 27 H -3.789851 -6.480704 1.415016 0
M  V30 28 H -3.113570 -5.479129 5.237773 0
M  V30 29 H -4.070910 -4.240248 4.292250 0
M  V30 30 H 1.115934 -3.456761 4.580341 0
M  V30 31 H 1.042013 -1.311583 2.752404 0
M  V30 32 H -1.096052 0.659094 0.332652 0
M  V30 33 H 0.301916 2.360511 -0.592023 0
M  V30 34 H 3.051668 2.025431 0.686833 0
M  V30 35 H 1.465188 4.169873 0.979647 0
M  V30 36 H 3.272098 4.257147 1.008560 0
M  V30 37 H 2.286944 4.719997 -0.478449 0
M  V30 38 H 4.909230 1.705807 -0.756575 0
M  V30 39 H 5.708937 1.350058 -3.088667 0
M  V30 40 H 4.266541 1.776158 -5.027783 0
M  V30 41 H 1.958607 2.580013 -4.653181 0
M  V30 42 H 1.104762 2.952647 -2.396793 0
M  V30 43 H -3.536337 -2.665509 2.234513 0
M  V30 END ATOM
M  V30 BEGIN BOND
M  V30 1 1 1 2
M  V30 2 1 2 3
M  V30 3 1 3 4
M  V30 4 2 4 5
M  V30 5 1 5 6
M  V30 6 1 6 7
M  V30 7 2 7 8
M  V30 8 1 8 9
M  V30 9 1 9 10
M  V30 10 1 10 11
M  V30 11 2 11 12
M  V30 12 1 11 13
M  V30 13 1 13 14
M  V30 14 1 14 15
M  V30 15 1 14 16
M  V30 16 2 16 17
M  V30 17 1 17 18
M  V30 18 2 18 19
M  V30 19 1 19 20
M  V30 20 2 20 21
M  V30 21 2 9 22
M  V30 22 1 22 23
M  V30 23 2 23 24
M  V30 24 1 24 4
M  V30 25 1 24 7
M  V30 26 1 21 16
M  V30 27 1 1 25
M  V30 28 1 1 26
M  V30 29 1 1 27
M  V30 30 1 3 28
M  V30 31 1 3 29
M  V30 32 1 6 30
M  V30 33 1 8 31
M  V30 34 1 10 32
M  V30 35 1 13 33
M  V30 36 1 14 34 CFG=1
M  V30 37 1 15 35
M  V30 38 1 15 36
M  V30 39 1 15 37
M  V30 40 1 17 38
M  V30 41 1 18 39
M  V30 42 1 19 40
M  V30 43 1 20 41
M  V30 44 1 21 42
M  V30 45 1 23 43
M  V30 END BOND
M  V30 END CTAB
M  END
>  <Dataset>  (570) 
ChEMBL_Kinases

>  <Ligand_Instance>  (570) 
nan

>  <PDB_ID>  (570) 
nan

>  <Standardized_SMILES>  (570) 
COCc1n[nH]c2cc(NC(=O)N[C@H](C)c3ccccc3)ncc12

>  <Name>  (570) 
nan

>  <Pocket>  (570) 
nan

>  <ATP_Site>  (570) 
nan

>  <Peripheral>  (570) 
nan

>  <Num_H_Atoms_ProtBoundConf>  (570) 
nan

>  <Num_Resolved_Atoms>  (570) 
nan

>  <Num_Not_Resolved_Atoms>  (570) 
nan

$$$$
CHEMBL3663049
     RDKit          3D

  0  0  0  0  0  0  0  0  0  0999 V3000
M  V30 BEGIN CTAB
M  V30 COUNTS 45 47 0 0 0
M  V30 BEGIN ATOM
M  V30 1 C 5.089031 -2.520711 0.488387 0
M  V30 2 O 5.028561 -3.811031 0.027229 0
M  V30 3 C 4.023543 -4.579510 0.608177 0 CFG=2
M  V30 4 C 4.624599 -5.690338 1.457563 0
M  V30 5 C 3.051347 -5.107165 -0.392491 0
M  V30 6 N 2.421011 -3.996479 -1.074776 0
M  V30 7 C 1.638627 -2.975162 -0.480595 0
M  V30 8 O 1.437968 -2.987306 0.761032 0
M  V30 9 N 1.074142 -1.933176 -1.263334 0
M  V30 10 C 0.290561 -0.926165 -0.603363 0
M  V30 11 C 1.009094 0.168530 -0.162719 0
M  V30 12 C 0.263475 1.161891 0.483332 0
M  V30 13 N 0.643582 2.333964 1.023917 0
M  V30 14 N -0.446982 2.909887 1.514586 0
M  V30 15 C -1.532427 2.121194 1.296999 0
M  V30 16 C -2.889303 2.490433 1.727746 0
M  V30 17 C -3.763477 1.621144 2.355752 0
M  V30 18 C -5.008591 2.069928 2.716723 0
M  V30 19 N -5.335588 3.333883 2.449055 0
M  V30 20 C -4.528640 4.223762 1.841684 0
M  V30 21 C -5.088477 5.598829 1.633434 0
M  V30 22 C -3.258181 3.794195 1.464388 0
M  V30 23 C -1.099545 0.994224 0.636557 0
M  V30 24 C -1.785142 -0.114359 0.182935 0
M  V30 25 N -1.039915 -1.064964 -0.440898 0
M  V30 26 H 4.192581 -1.916892 0.336116 0
M  V30 27 H 5.396376 -2.565306 1.570454 0
M  V30 28 H 5.919417 -2.022128 -0.061779 0
M  V30 29 H 3.491824 -3.921525 1.320895 0
M  V30 30 H 5.714984 -5.562989 1.535644 0
M  V30 31 H 4.174272 -5.722871 2.464635 0
M  V30 32 H 4.354748 -6.641593 0.951905 0
M  V30 33 H 3.480604 -5.823878 -1.098856 0
M  V30 34 H 2.229477 -5.606889 0.203860 0
M  V30 35 H 2.543991 -3.922831 -2.112823 0
M  V30 36 H 1.218726 -1.892878 -2.283066 0
M  V30 37 H 2.077043 0.252030 -0.307600 0
M  V30 38 H 1.630981 2.663945 1.021093 0
M  V30 39 H -3.414756 0.596723 2.538920 0
M  V30 40 H -5.701555 1.400531 3.208263 0
M  V30 41 H -5.628260 5.890833 2.559563 0
M  V30 42 H -4.296201 6.359109 1.490511 0
M  V30 43 H -5.846781 5.582527 0.817933 0
M  V30 44 H -2.674553 4.563448 0.985305 0
M  V30 45 H -2.853356 -0.197865 0.327854 0
M  V30 END ATOM
M  V30 BEGIN BOND
M  V30 1 1 1 2
M  V30 2 1 2 3
M  V30 3 1 3 4
M  V30 4 1 3 5
M  V30 5 1 5 6
M  V30 6 1 6 7
M  V30 7 2 7 8
M  V30 8 1 7 9
M  V30 9 1 9 10
M  V30 10 2 10 11
M  V30 11 1 11 12
M  V30 12 1 12 13
M  V30 13 1 13 14
M  V30 14 2 14 15
M  V30 15 1 15 16
M  V30 16 2 16 17
M  V30 17 1 17 18
M  V30 18 2 18 19
M  V30 19 1 19 20
M  V30 20 1 20 21
M  V30 21 2 20 22
M  V30 22 1 15 23
M  V30 23 1 23 24
M  V30 24 2 24 25
M  V30 25 1 25 10
M  V30 26 2 23 12
M  V30 27 1 22 16
M  V30 28 1 1 26
M  V30 29 1 1 27
M  V30 30 1 1 28
M  V30 31 1 3 29 CFG=1
M  V30 32 1 4 30
M  V30 33 1 4 31
M  V30 34 1 4 32
M  V30 35 1 5 33
M  V30 36 1 5 34
M  V30 37 1 6 35
M  V30 38 1 9 36
M  V30 39 1 11 37
M  V30 40 1 13 38
M  V30 41 1 17 39
M  V30 42 1 18 40
M  V30 43 1 21 41
M  V30 44 1 21 42
M  V30 45 1 21 43
M  V30 46 1 22 44
M  V30 47 1 24 45
M  V30 END BOND
M  V30 END CTAB
M  END
>  <Dataset>  (571) 
ChEMBL_Kinases

>  <Ligand_Instance>  (571) 
nan

>  <PDB_ID>  (571) 
nan

>  <Standardized_SMILES>  (571) 
CO[C@H](C)CNC(=O)Nc1cc2[nH]nc(-c3ccnc(C)c3)c2cn1

>  <Name>  (571) 
nan

>  <Pocket>  (571) 
nan

>  <ATP_Site>  (571) 
nan

>  <Peripheral>  (571) 
nan

>  <Num_H_Atoms_ProtBoundConf>  (571) 
nan

>  <Num_Resolved_Atoms>  (571) 
nan

>  <Num_Not_Resolved_Atoms>  (571) 
nan

$$$$
CHEMBL3663031
     RDKit          3D

  0  0  0  0  0  0  0  0  0  0999 V3000
M  V30 BEGIN CTAB
M  V30 COUNTS 43 46 0 0 0
M  V30 BEGIN ATOM
M  V30 1 C 4.725885 -5.114136 2.743557 0
M  V30 2 C 4.156788 -5.255861 1.377089 0
M  V30 3 C 3.519425 -4.201325 0.758615 0
M  V30 4 C 2.961707 -4.263896 -0.523205 0
M  V30 5 C 2.298087 -3.114638 -1.128543 0
M  V30 6 N 2.433902 -2.639559 -2.393487 0
M  V30 7 N 1.667484 -1.573988 -2.580938 0
M  V30 8 C 1.000713 -1.308208 -1.451054 0
M  V30 9 C 0.097284 -0.296968 -1.193346 0
M  V30 10 C -0.436402 -0.277450 0.088755 0
M  V30 11 N -1.380213 0.677614 0.556251 0
M  V30 12 C -1.043195 1.898173 1.168778 0
M  V30 13 O 0.166690 2.153227 1.307885 0
M  V30 14 N -2.117280 2.713238 1.565143 0
M  V30 15 C -2.050474 3.979917 2.198062 0
M  V30 16 C -2.938357 4.176730 3.380231 0
M  V30 17 C -4.262205 4.452545 2.738344 0
M  V30 18 O -4.043700 4.904358 1.460355 0
M  V30 19 C -2.674772 4.974400 1.230044 0
M  V30 20 N -0.063917 -1.209335 0.989368 0
M  V30 21 C 0.825015 -2.198345 0.724061 0
M  V30 22 C 1.390840 -2.268316 -0.538894 0
M  V30 23 C 3.105139 -5.490701 -1.127784 0
M  V30 24 C 3.739856 -6.560466 -0.526615 0
M  V30 25 N 4.257617 -6.417791 0.726952 0
M  V30 26 H 4.212039 -4.302313 3.321874 0
M  V30 27 H 4.668296 -6.057562 3.297824 0
M  V30 28 H 5.799680 -4.781667 2.691060 0
M  V30 29 H 3.468879 -3.291907 1.330205 0
M  V30 30 H 1.620694 -1.046857 -3.495892 0
M  V30 31 H -0.215901 0.449137 -1.877400 0
M  V30 32 H -2.325088 0.280188 0.348658 0
M  V30 33 H -3.119126 2.432360 1.415163 0
M  V30 34 H -1.012709 4.336781 2.386231 0
M  V30 35 H -2.611952 5.104993 3.895370 0
M  V30 36 H -2.943697 3.377640 4.115584 0
M  V30 37 H -4.848443 3.505932 2.754049 0
M  V30 38 H -4.842733 5.181181 3.365956 0
M  V30 39 H -2.274518 5.996547 1.379650 0
M  V30 40 H -2.512223 4.683853 0.167846 0
M  V30 41 H 1.100777 -2.930008 1.472375 0
M  V30 42 H 2.686128 -5.591227 -2.131035 0
M  V30 43 H 3.788946 -7.465668 -1.098352 0
M  V30 END ATOM
M  V30 BEGIN BOND
M  V30 1 1 1 2
M  V30 2 2 2 3
M  V30 3 1 3 4
M  V30 4 1 4 5
M  V30 5 2 5 6
M  V30 6 1 6 7
M  V30 7 1 7 8
M  V30 8 2 8 9
M  V30 9 1 9 10
M  V30 10 1 10 11
M  V30 11 1 11 12
M  V30 12 2 12 13
M  V30 13 1 12 14
M  V30 14 1 14 15
M  V30 15 1 15 16
M  V30 16 1 16 17
M  V30 17 1 17 18
M  V30 18 1 18 19
M  V30 19 2 10 20
M  V30 20 1 20 21
M  V30 21 2 21 22
M  V30 22 2 4 23
M  V30 23 1 23 24
M  V30 24 2 24 25
M  V30 25 1 25 2
M  V30 26 1 22 5
M  V30 27 1 22 8
M  V30 28 1 19 15
M  V30 29 1 1 26
M  V30 30 1 1 27
M  V30 31 1 1 28
M  V30 32 1 3 29
M  V30 33 1 7 30
M  V30 34 1 9 31
M  V30 35 1 11 32
M  V30 36 1 14 33
M  V30 37 1 15 34
M  V30 38 1 16 35
M  V30 39 1 16 36
M  V30 40 1 17 37
M  V30 41 1 17 38
M  V30 42 1 19 39
M  V30 43 1 19 40
M  V30 44 1 21 41
M  V30 45 1 23 42
M  V30 46 1 24 43
M  V30 END BOND
M  V30 END CTAB
M  END
>  <Dataset>  (572) 
ChEMBL_Kinases

>  <Ligand_Instance>  (572) 
nan

>  <PDB_ID>  (572) 
nan

>  <Standardized_SMILES>  (572) 
Cc1cc(-c2n[nH]c3cc(NC(=O)NC4CCOC4)ncc23)ccn1

>  <Name>  (572) 
nan

>  <Pocket>  (572) 
nan

>  <ATP_Site>  (572) 
nan

>  <Peripheral>  (572) 
nan

>  <Num_H_Atoms_ProtBoundConf>  (572) 
nan

>  <Num_Resolved_Atoms>  (572) 
nan

>  <Num_Not_Resolved_Atoms>  (572) 
nan

$$$$
CHEMBL3663032
     RDKit          3D

  0  0  0  0  0  0  0  0  0  0999 V3000
M  V30 BEGIN CTAB
M  V30 COUNTS 51 54 0 0 0
M  V30 BEGIN ATOM
M  V30 1 C 1.304062 -8.500030 -0.347287 0
M  V30 2 C 1.703984 -7.282895 -1.085305 0
M  V30 3 C 1.742799 -6.127948 -0.316083 0
M  V30 4 C 2.107153 -4.921374 -0.909434 0
M  V30 5 C 2.173588 -3.663016 -0.175476 0
M  V30 6 N 2.738897 -3.544770 1.024741 0
M  V30 7 N 2.670760 -2.303169 1.478581 0
M  V30 8 C 2.030383 -1.581672 0.526666 0
M  V30 9 C 1.664955 -0.253904 0.420110 0
M  V30 10 C 1.002081 0.192122 -0.708537 0
M  V30 11 N 0.677644 1.579128 -0.703621 0
M  V30 12 C -0.572377 1.964446 -0.158075 0
M  V30 13 O -1.320093 1.062502 0.288292 0
M  V30 14 N -1.081556 3.276746 -0.058290 0
M  V30 15 C -2.214675 3.980795 0.412054 0
M  V30 16 C -2.513263 3.908380 1.893369 0
M  V30 17 C -1.423652 4.401122 2.750187 0
M  V30 18 C -1.003711 3.503097 3.867580 0
M  V30 19 C -1.257898 2.047574 3.576568 0
M  V30 20 C -2.644299 1.709098 3.180248 0
M  V30 21 C -3.232870 2.674859 2.234592 0
M  V30 22 N 0.696403 -0.657107 -1.731798 0
M  V30 23 C 1.045117 -1.970458 -1.652184 0
M  V30 24 C 1.703382 -2.420336 -0.534685 0
M  V30 25 C 2.404401 -4.992374 -2.249443 0
M  V30 26 C 2.370068 -6.130611 -3.024458 0
M  V30 27 N 2.008946 -7.269488 -2.390131 0
M  V30 28 H 2.159149 -8.991377 0.170681 0
M  V30 29 H 0.806434 -9.196306 -1.031870 0
M  V30 30 H 0.543344 -8.257559 0.442975 0
M  V30 31 H 1.502488 -6.098789 0.744353 0
M  V30 32 H 3.028712 -1.922476 2.384303 0
M  V30 33 H 1.916570 0.398594 1.240201 0
M  V30 34 H 1.288508 2.316146 -1.068347 0
M  V30 35 H -0.343665 3.932696 -0.485265 0
M  V30 36 H -2.211779 5.022690 0.039049 0
M  V30 37 H -3.102809 3.533707 -0.160133 0
M  V30 38 H -3.330176 4.737824 1.994337 0
M  V30 39 H -1.583075 5.426575 3.132132 0
M  V30 40 H -0.509671 4.501043 2.090210 0
M  V30 41 H -1.590221 3.762089 4.773810 0
M  V30 42 H 0.064192 3.594982 4.152823 0
M  V30 43 H -1.034971 1.437489 4.504302 0
M  V30 44 H -0.547378 1.650704 2.827274 0
M  V30 45 H -3.307681 1.482726 4.058626 0
M  V30 46 H -2.581511 0.701455 2.668267 0
M  V30 47 H -4.276534 2.908350 2.675304 0
M  V30 48 H -3.547905 2.120899 1.295678 0
M  V30 49 H 0.808982 -2.652125 -2.454908 0
M  V30 50 H 2.701975 -4.091345 -2.802552 0
M  V30 51 H 2.614496 -6.125417 -4.074770 0
M  V30 END ATOM
M  V30 BEGIN BOND
M  V30 1 1 1 2
M  V30 2 2 2 3
M  V30 3 1 3 4
M  V30 4 1 4 5
M  V30 5 2 5 6
M  V30 6 1 6 7
M  V30 7 1 7 8
M  V30 8 2 8 9
M  V30 9 1 9 10
M  V30 10 1 10 11
M  V30 11 1 11 12
M  V30 12 2 12 13
M  V30 13 1 12 14
M  V30 14 1 14 15
M  V30 15 1 15 16
M  V30 16 1 16 17
M  V30 17 1 17 18
M  V30 18 1 18 19
M  V30 19 1 19 20
M  V30 20 1 20 21
M  V30 21 2 10 22
M  V30 22 1 22 23
M  V30 23 2 23 24
M  V30 24 2 4 25
M  V30 25 1 25 26
M  V30 26 2 26 27
M  V30 27 1 27 2
M  V30 28 1 24 5
M  V30 29 1 24 8
M  V30 30 1 21 16
M  V30 31 1 1 28
M  V30 32 1 1 29
M  V30 33 1 1 30
M  V30 34 1 3 31
M  V30 35 1 7 32
M  V30 36 1 9 33
M  V30 37 1 11 34
M  V30 38 1 14 35
M  V30 39 1 15 36
M  V30 40 1 15 37
M  V30 41 1 16 38
M  V30 42 1 17 39
M  V30 43 1 17 40
M  V30 44 1 18 41
M  V30 45 1 18 42
M  V30 46 1 19 43
M  V30 47 1 19 44
M  V30 48 1 20 45
M  V30 49 1 20 46
M  V30 50 1 21 47
M  V30 51 1 21 48
M  V30 52 1 23 49
M  V30 53 1 25 50
M  V30 54 1 26 51
M  V30 END BOND
M  V30 END CTAB
M  END
>  <Dataset>  (573) 
ChEMBL_Kinases

>  <Ligand_Instance>  (573) 
nan

>  <PDB_ID>  (573) 
nan

>  <Standardized_SMILES>  (573) 
Cc1cc(-c2n[nH]c3cc(NC(=O)NCC4CCCCC4)ncc23)ccn1

>  <Name>  (573) 
nan

>  <Pocket>  (573) 
nan

>  <ATP_Site>  (573) 
nan

>  <Peripheral>  (573) 
nan

>  <Num_H_Atoms_ProtBoundConf>  (573) 
nan

>  <Num_Resolved_Atoms>  (573) 
nan

>  <Num_Not_Resolved_Atoms>  (573) 
nan

$$$$
CHEMBL3663033
     RDKit          3D

  0  0  0  0  0  0  0  0  0  0999 V3000
M  V30 BEGIN CTAB
M  V30 COUNTS 44 47 0 0 0
M  V30 BEGIN ATOM
M  V30 1 C -4.477692 -6.680276 0.141010 0
M  V30 2 C -3.815370 -5.668418 -0.751106 0
M  V30 3 C -2.600190 -5.111446 -0.367571 0
M  V30 4 C -1.953447 -4.166177 -1.172190 0
M  V30 5 C -0.707434 -3.693402 -0.626021 0
M  V30 6 N 0.246928 -4.499415 -0.077185 0
M  V30 7 N 1.262898 -3.756348 0.328217 0
M  V30 8 C 1.029782 -2.456511 0.070939 0
M  V30 9 C 1.687378 -1.275166 0.255094 0
M  V30 10 C 1.181991 -0.051245 -0.124596 0
M  V30 11 N 1.959213 1.117869 0.118427 0
M  V30 12 C 1.780031 1.791057 1.361090 0
M  V30 13 O 1.002170 1.451522 2.261995 0
M  V30 14 N 2.608019 2.952591 1.504364 0
M  V30 15 C 2.674772 3.845947 2.617549 0
M  V30 16 C 2.386234 5.273743 2.335517 0
M  V30 17 C 3.141418 6.009267 3.393501 0
M  V30 18 N 4.058417 5.102625 4.034264 0
M  V30 19 C 4.015316 3.859145 3.301390 0
M  V30 20 N -0.047983 -0.034665 -0.717742 0
M  V30 21 C -0.724014 -1.198495 -0.912714 0
M  V30 22 C -0.212735 -2.424845 -0.529920 0
M  V30 23 C -2.563473 -3.807476 -2.357092 0
M  V30 24 C -3.783317 -4.381192 -2.719387 0
M  V30 25 N -4.368153 -5.288811 -1.909651 0
M  V30 26 H -5.506000 -6.814970 -0.213494 0
M  V30 27 H -3.907353 -7.631491 0.117058 0
M  V30 28 H -4.541330 -6.324447 1.185689 0
M  V30 29 H -2.196489 -5.458780 0.587507 0
M  V30 30 H 2.143748 -4.097524 0.789791 0
M  V30 31 H 2.651293 -1.330750 0.724694 0
M  V30 32 H 2.627696 1.424094 -0.635922 0
M  V30 33 H 3.304275 3.329315 0.798312 0
M  V30 34 H 1.948211 3.484175 3.397426 0
M  V30 35 H 1.296580 5.460218 2.483432 0
M  V30 36 H 2.603389 5.620026 1.309618 0
M  V30 37 H 2.474013 6.436055 4.189908 0
M  V30 38 H 3.745257 6.814660 2.920461 0
M  V30 39 H 3.890155 4.966057 5.053486 0
M  V30 40 H 4.107342 3.021916 4.031218 0
M  V30 41 H 4.882082 3.808683 2.647620 0
M  V30 42 H -1.691868 -1.157347 -1.382590 0
M  V30 43 H -2.008936 -3.072008 -2.930343 0
M  V30 44 H -4.204940 -4.058580 -3.654465 0
M  V30 END ATOM
M  V30 BEGIN BOND
M  V30 1 1 1 2
M  V30 2 2 2 3
M  V30 3 1 3 4
M  V30 4 1 4 5
M  V30 5 2 5 6
M  V30 6 1 6 7
M  V30 7 1 7 8
M  V30 8 2 8 9
M  V30 9 1 9 10
M  V30 10 1 10 11
M  V30 11 1 11 12
M  V30 12 2 12 13
M  V30 13 1 12 14
M  V30 14 1 14 15
M  V30 15 1 15 16
M  V30 16 1 16 17
M  V30 17 1 17 18
M  V30 18 1 18 19
M  V30 19 2 10 20
M  V30 20 1 20 21
M  V30 21 2 21 22
M  V30 22 2 4 23
M  V30 23 1 23 24
M  V30 24 2 24 25
M  V30 25 1 25 2
M  V30 26 1 22 5
M  V30 27 1 22 8
M  V30 28 1 19 15
M  V30 29 1 1 26
M  V30 30 1 1 27
M  V30 31 1 1 28
M  V30 32 1 3 29
M  V30 33 1 7 30
M  V30 34 1 9 31
M  V30 35 1 11 32
M  V30 36 1 14 33
M  V30 37 1 15 34
M  V30 38 1 16 35
M  V30 39 1 16 36
M  V30 40 1 17 37
M  V30 41 1 17 38
M  V30 42 1 18 39
M  V30 43 1 19 40
M  V30 44 1 19 41
M  V30 45 1 21 42
M  V30 46 1 23 43
M  V30 47 1 24 44
M  V30 END BOND
M  V30 END CTAB
M  END
>  <Dataset>  (574) 
ChEMBL_Kinases

>  <Ligand_Instance>  (574) 
nan

>  <PDB_ID>  (574) 
nan

>  <Standardized_SMILES>  (574) 
Cc1cc(-c2n[nH]c3cc(NC(=O)NC4CCNC4)ncc23)ccn1

>  <Name>  (574) 
nan

>  <Pocket>  (574) 
nan

>  <ATP_Site>  (574) 
nan

>  <Peripheral>  (574) 
nan

>  <Num_H_Atoms_ProtBoundConf>  (574) 
nan

>  <Num_Resolved_Atoms>  (574) 
nan

>  <Num_Not_Resolved_Atoms>  (574) 
nan

$$$$
CHEMBL3663034
     RDKit          3D

  0  0  0  0  0  0  0  0  0  0999 V3000
M  V30 BEGIN CTAB
M  V30 COUNTS 53 57 0 0 0
M  V30 BEGIN ATOM
M  V30 1 C 1.673455 -5.914779 6.055209 0
M  V30 2 C 2.134055 -6.125017 4.645652 0
M  V30 3 C 2.509547 -5.082858 3.825652 0
M  V30 4 C 2.927682 -5.287682 2.542223 0
M  V30 5 C 3.322216 -4.173477 1.685962 0
M  V30 6 N 4.398576 -4.084887 0.882546 0
M  V30 7 N 4.439156 -2.916058 0.247035 0
M  V30 8 C 3.358802 -2.223046 0.647389 0
M  V30 9 C 2.954273 -0.956484 0.274359 0
M  V30 10 C 1.796262 -0.440742 0.821426 0
M  V30 11 N 1.181359 0.828878 0.594812 0
M  V30 12 C 0.205175 1.169081 -0.393908 0
M  V30 13 O -0.132249 0.231822 -1.131613 0
M  V30 14 N -0.234628 2.499241 -0.397601 0
M  V30 15 C -1.238885 2.866377 -1.408307 0 CFG=2
M  V30 16 C -0.685923 4.036493 -2.190991 0
M  V30 17 O -1.711111 4.935340 -2.405657 0
M  V30 18 C -2.623140 4.836762 -1.372024 0
M  V30 19 C -2.453001 3.487081 -0.746505 0 CFG=1
M  V30 20 C -3.622009 2.632840 -1.112260 0
M  V30 21 C -3.777116 2.479368 -2.490155 0
M  V30 22 C -4.827793 1.707516 -2.953732 0
M  V30 23 C -5.694350 1.109314 -2.064236 0
M  V30 24 C -5.542571 1.260281 -0.689831 0
M  V30 25 C -4.489406 2.033829 -0.229497 0
M  V30 26 N 1.088888 -1.196712 1.711755 0
M  V30 27 C 1.500753 -2.437330 2.066150 0
M  V30 28 C 2.640935 -2.984356 1.547873 0
M  V30 29 C 2.956859 -6.598363 2.101065 0
M  V30 30 C 2.574531 -7.622465 2.946041 0
M  V30 31 N 2.166317 -7.405591 4.203604 0
M  V30 32 H 1.372088 -4.830692 6.110844 0
M  V30 33 H 0.766901 -6.504676 6.285224 0
M  V30 34 H 2.491022 -6.022123 6.777013 0
M  V30 35 H 2.447877 -4.111488 4.270227 0
M  V30 36 H 5.166099 -2.587152 -0.435297 0
M  V30 37 H 3.431985 -0.296888 -0.404320 0
M  V30 38 H 1.580973 1.501885 1.304462 0
M  V30 39 H 0.108145 3.226843 0.267516 0
M  V30 40 H -1.485593 1.993742 -2.017903 0
M  V30 41 H -0.344556 3.720322 -3.217512 0
M  V30 42 H 0.141269 4.514261 -1.629999 0
M  V30 43 H -2.539327 5.679044 -0.629849 0
M  V30 44 H -3.645644 4.951105 -1.830475 0
M  V30 45 H -2.345477 3.597593 0.345492 0
M  V30 46 H -3.120006 2.930639 -3.242653 0
M  V30 47 H -5.003503 1.548330 -4.028447 0
M  V30 48 H -6.513376 0.507383 -2.434196 0
M  V30 49 H -6.213458 0.798620 0.047479 0
M  V30 50 H -4.296915 2.204488 0.824909 0
M  V30 51 H 0.923816 -3.017452 2.773370 0
M  V30 52 H 3.283425 -6.820408 1.081878 0
M  V30 53 H 2.583662 -8.661734 2.637405 0
M  V30 END ATOM
M  V30 BEGIN BOND
M  V30 1 1 1 2
M  V30 2 2 2 3
M  V30 3 1 3 4
M  V30 4 1 4 5
M  V30 5 2 5 6
M  V30 6 1 6 7
M  V30 7 1 7 8
M  V30 8 2 8 9
M  V30 9 1 9 10
M  V30 10 1 10 11
M  V30 11 1 11 12
M  V30 12 2 12 13
M  V30 13 1 12 14
M  V30 14 1 14 15
M  V30 15 1 15 16
M  V30 16 1 16 17
M  V30 17 1 17 18
M  V30 18 1 18 19
M  V30 19 1 19 20
M  V30 20 2 20 21
M  V30 21 1 21 22
M  V30 22 2 22 23
M  V30 23 1 23 24
M  V30 24 2 24 25
M  V30 25 2 10 26
M  V30 26 1 26 27
M  V30 27 2 27 28
M  V30 28 2 4 29
M  V30 29 1 29 30
M  V30 30 2 30 31
M  V30 31 1 31 2
M  V30 32 1 28 5
M  V30 33 1 28 8
M  V30 34 1 19 15
M  V30 35 1 25 20
M  V30 36 1 1 32
M  V30 37 1 1 33
M  V30 38 1 1 34
M  V30 39 1 3 35
M  V30 40 1 7 36
M  V30 41 1 9 37
M  V30 42 1 11 38
M  V30 43 1 14 39
M  V30 44 1 15 40 CFG=3
M  V30 45 1 16 41
M  V30 46 1 16 42
M  V30 47 1 18 43
M  V30 48 1 18 44
M  V30 49 1 19 45 CFG=1
M  V30 50 1 21 46
M  V30 51 1 22 47
M  V30 52 1 23 48
M  V30 53 1 24 49
M  V30 54 1 25 50
M  V30 55 1 27 51
M  V30 56 1 29 52
M  V30 57 1 30 53
M  V30 END BOND
M  V30 END CTAB
M  END
>  <Dataset>  (575) 
ChEMBL_Kinases

>  <Ligand_Instance>  (575) 
nan

>  <PDB_ID>  (575) 
nan

>  <Standardized_SMILES>  (575) 
Cc1cc(-c2n[nH]c3cc(NC(=O)N[C@@H]4COC[C@H]4c4ccccc4)ncc23)ccn1

>  <Name>  (575) 
nan

>  <Pocket>  (575) 
nan

>  <ATP_Site>  (575) 
nan

>  <Peripheral>  (575) 
nan

>  <Num_H_Atoms_ProtBoundConf>  (575) 
nan

>  <Num_Resolved_Atoms>  (575) 
nan

>  <Num_Not_Resolved_Atoms>  (575) 
nan

$$$$
CHEMBL3663035
     RDKit          3D

  0  0  0  0  0  0  0  0  0  0999 V3000
M  V30 BEGIN CTAB
M  V30 COUNTS 57 61 0 0 0
M  V30 BEGIN ATOM
M  V30 1 C 9.608861 -1.292276 3.057963 0
M  V30 2 C 8.139813 -1.200411 3.231590 0
M  V30 3 C 7.219342 -0.733662 2.330463 0
M  V30 4 C 5.868634 -0.699118 2.613154 0
M  V30 5 C 4.987247 -0.183146 1.580808 0
M  V30 6 N 5.127213 0.913433 0.814346 0
M  V30 7 N 4.090715 1.023948 -0.008276 0
M  V30 8 C 3.248893 -0.023055 0.221040 0
M  V30 9 C 2.053785 -0.278905 -0.425092 0
M  V30 10 C 1.374150 -1.416914 -0.009082 0
M  V30 11 N 0.130400 -1.788966 -0.597661 0
M  V30 12 C -1.109219 -1.334531 -0.081366 0
M  V30 13 O -1.105677 -0.581888 0.924077 0
M  V30 14 N -2.253777 -1.778766 -0.758315 0
M  V30 15 C -3.611907 -1.425425 -0.384857 0 CFG=2
M  V30 16 C -4.497627 -2.567276 -0.126127 0
M  V30 17 N -4.966644 -2.972492 -1.429128 0
M  V30 18 C -6.243588 -3.633243 -1.283007 0
M  V30 19 C -5.162460 -1.741315 -2.137952 0
M  V30 20 C -4.205326 -0.733614 -1.551705 0 CFG=1
M  V30 21 C -4.855555 0.563876 -1.284468 0
M  V30 22 C -5.863402 0.757112 -0.396219 0
M  V30 23 C -6.450151 1.998916 -0.172554 0
M  V30 24 C -6.027762 3.117843 -0.856715 0
M  V30 25 C -5.008473 2.988361 -1.772355 0
M  V30 26 Cl -4.409665 4.349824 -2.684068 0
M  V30 27 C -4.467954 1.734472 -1.949731 0
M  V30 28 N 1.896493 -2.188375 0.970499 0
M  V30 29 C 3.064423 -1.905493 1.576002 0
M  V30 30 C 3.802923 -0.794014 1.222752 0
M  V30 31 C 5.451080 -1.154627 3.851183 0
M  V30 32 C 6.385353 -1.619740 4.744454 0
M  V30 33 N 7.700945 -1.643065 4.443563 0
M  V30 34 H 10.156919 -0.982448 3.975491 0
M  V30 35 H 9.939601 -0.631792 2.224579 0
M  V30 36 H 9.890090 -2.344400 2.850885 0
M  V30 37 H 7.641217 -0.399590 1.391581 0
M  V30 38 H 3.956105 1.793132 -0.710990 0
M  V30 39 H 1.649177 0.333066 -1.195412 0
M  V30 40 H 0.304440 -2.408286 -1.412194 0
M  V30 41 H -2.225020 -2.412276 -1.602631 0
M  V30 42 H -3.479694 -0.763326 0.507055 0
M  V30 43 H -5.381497 -2.229980 0.450288 0
M  V30 44 H -4.071858 -3.392370 0.463421 0
M  V30 45 H -6.507131 -3.811346 -0.220640 0
M  V30 46 H -7.033212 -2.974758 -1.689263 0
M  V30 47 H -6.285994 -4.582404 -1.871187 0
M  V30 48 H -6.193876 -1.322545 -1.979259 0
M  V30 49 H -5.061778 -1.842826 -3.224135 0
M  V30 50 H -3.438977 -0.538547 -2.360300 0
M  V30 51 H -6.257531 -0.039783 0.176811 0
M  V30 52 H -7.258004 2.132131 0.545091 0
M  V30 53 H -6.425335 4.114482 -0.745343 0
M  V30 54 H -3.654233 1.660584 -2.688226 0
M  V30 55 H 3.473592 -2.535414 2.363265 0
M  V30 56 H 4.393069 -1.127481 4.073014 0
M  V30 57 H 6.020860 -1.965045 5.695977 0
M  V30 END ATOM
M  V30 BEGIN BOND
M  V30 1 1 1 2
M  V30 2 2 2 3
M  V30 3 1 3 4
M  V30 4 1 4 5
M  V30 5 2 5 6
M  V30 6 1 6 7
M  V30 7 1 7 8
M  V30 8 2 8 9
M  V30 9 1 9 10
M  V30 10 1 10 11
M  V30 11 1 11 12
M  V30 12 2 12 13
M  V30 13 1 12 14
M  V30 14 1 14 15
M  V30 15 1 15 16
M  V30 16 1 16 17
M  V30 17 1 17 18
M  V30 18 1 17 19
M  V30 19 1 19 20
M  V30 20 1 20 21
M  V30 21 2 21 22
M  V30 22 1 22 23
M  V30 23 2 23 24
M  V30 24 1 24 25
M  V30 25 1 25 26
M  V30 26 2 25 27
M  V30 27 2 10 28
M  V30 28 1 28 29
M  V30 29 2 29 30
M  V30 30 2 4 31
M  V30 31 1 31 32
M  V30 32 2 32 33
M  V30 33 1 33 2
M  V30 34 1 30 5
M  V30 35 1 30 8
M  V30 36 1 20 15
M  V30 37 1 27 21
M  V30 38 1 1 34
M  V30 39 1 1 35
M  V30 40 1 1 36
M  V30 41 1 3 37
M  V30 42 1 7 38
M  V30 43 1 9 39
M  V30 44 1 11 40
M  V30 45 1 14 41
M  V30 46 1 15 42 CFG=1
M  V30 47 1 16 43
M  V30 48 1 16 44
M  V30 49 1 18 45
M  V30 50 1 18 46
M  V30 51 1 18 47
M  V30 52 1 19 48
M  V30 53 1 19 49
M  V30 54 1 20 50 CFG=3
M  V30 55 1 22 51
M  V30 56 1 23 52
M  V30 57 1 24 53
M  V30 58 1 27 54
M  V30 59 1 29 55
M  V30 60 1 31 56
M  V30 61 1 32 57
M  V30 END BOND
M  V30 END CTAB
M  END
>  <Dataset>  (576) 
ChEMBL_Kinases

>  <Ligand_Instance>  (576) 
nan

>  <PDB_ID>  (576) 
nan

>  <Standardized_SMILES>  (576) 
Cc1cc(-c2n[nH]c3cc(NC(=O)N[C@@H]4CN(C)C[C@H]4c4cccc(Cl)c4)ncc23)ccn1

>  <Name>  (576) 
nan

>  <Pocket>  (576) 
nan

>  <ATP_Site>  (576) 
nan

>  <Peripheral>  (576) 
nan

>  <Num_H_Atoms_ProtBoundConf>  (576) 
nan

>  <Num_Resolved_Atoms>  (576) 
nan

>  <Num_Not_Resolved_Atoms>  (576) 
nan

$$$$
CHEMBL3663036
     RDKit          3D

  0  0  0  0  0  0  0  0  0  0999 V3000
M  V30 BEGIN CTAB
M  V30 COUNTS 49 53 0 0 0
M  V30 BEGIN ATOM
M  V30 1 C -0.029647 -4.856193 -5.992821 0
M  V30 2 C 1.055143 -5.012766 -5.009083 0
M  V30 3 C 1.041194 -4.359182 -3.776488 0
M  V30 4 C 2.073822 -4.528938 -2.879459 0
M  V30 5 C 2.147166 -3.889485 -1.572639 0
M  V30 6 N 2.489674 -4.509314 -0.432791 0
M  V30 7 N 2.471755 -3.676350 0.604244 0
M  V30 8 C 2.110227 -2.446384 0.190759 0
M  V30 9 C 1.912027 -1.186206 0.762441 0
M  V30 10 C 1.523238 -0.118428 -0.035852 0
M  V30 11 N 1.375730 1.068103 0.734735 0
M  V30 12 C 0.090223 1.359897 1.311035 0
M  V30 13 O -0.911814 0.649275 1.182666 0
M  V30 14 N 0.080266 2.568374 2.058593 0
M  V30 15 C -1.194154 2.949360 2.686384 0 CFG=2
M  V30 16 C -1.450496 4.333788 3.070950 0
M  V30 17 C -1.134624 3.385064 4.159257 0 CFG=1
M  V30 18 C -2.218965 2.933221 5.073179 0
M  V30 19 C -1.886147 2.455384 6.323429 0
M  V30 20 C -2.842968 2.012375 7.238659 0
M  V30 21 C -4.174902 2.059408 6.864596 0
M  V30 22 C -4.539227 2.538025 5.605801 0
M  V30 23 C -3.570662 2.968301 4.724920 0
M  V30 24 N 1.329492 -0.274928 -1.375272 0
M  V30 25 C 1.520212 -1.502437 -1.945064 0
M  V30 26 C 1.906957 -2.584241 -1.178595 0
M  V30 27 C 3.080322 -5.372824 -3.302340 0
M  V30 28 C 3.113799 -6.022708 -4.505072 0
M  V30 29 N 2.081530 -5.829063 -5.355562 0
M  V30 30 H -0.996708 -4.585051 -5.530821 0
M  V30 31 H 0.218714 -4.141117 -6.813919 0
M  V30 32 H -0.164944 -5.841361 -6.523727 0
M  V30 33 H 0.225656 -3.713295 -3.506686 0
M  V30 34 H 2.692033 -3.877213 1.608735 0
M  V30 35 H 2.089089 -1.176121 1.811585 0
M  V30 36 H 2.251426 1.619977 0.804160 0
M  V30 37 H 0.912947 3.207374 2.195380 0
M  V30 38 H -2.020903 2.263847 2.504479 0
M  V30 39 H -2.502190 4.686897 3.013783 0
M  V30 40 H -0.737620 5.161770 2.873226 0
M  V30 41 H -0.139829 3.258294 4.602962 0
M  V30 42 H -0.862551 2.383822 6.698144 0
M  V30 43 H -2.616958 1.633737 8.222163 0
M  V30 44 H -5.018531 1.752891 7.461935 0
M  V30 45 H -5.569986 2.602225 5.245838 0
M  V30 46 H -3.845781 3.340205 3.747933 0
M  V30 47 H 1.354715 -1.578733 -3.010158 0
M  V30 48 H 3.919233 -5.534912 -2.620183 0
M  V30 49 H 3.955918 -6.681814 -4.769842 0
M  V30 END ATOM
M  V30 BEGIN BOND
M  V30 1 1 1 2
M  V30 2 2 2 3
M  V30 3 1 3 4
M  V30 4 1 4 5
M  V30 5 2 5 6
M  V30 6 1 6 7
M  V30 7 1 7 8
M  V30 8 2 8 9
M  V30 9 1 9 10
M  V30 10 1 10 11
M  V30 11 1 11 12
M  V30 12 2 12 13
M  V30 13 1 12 14
M  V30 14 1 14 15
M  V30 15 1 15 16
M  V30 16 1 16 17
M  V30 17 1 17 18
M  V30 18 2 18 19
M  V30 19 1 19 20
M  V30 20 2 20 21
M  V30 21 1 21 22
M  V30 22 2 22 23
M  V30 23 2 10 24
M  V30 24 1 24 25
M  V30 25 2 25 26
M  V30 26 2 4 27
M  V30 27 1 27 28
M  V30 28 2 28 29
M  V30 29 1 29 2
M  V30 30 1 26 5
M  V30 31 1 26 8
M  V30 32 1 17 15
M  V30 33 1 23 18
M  V30 34 1 1 30
M  V30 35 1 1 31
M  V30 36 1 1 32
M  V30 37 1 3 33
M  V30 38 1 7 34
M  V30 39 1 9 35
M  V30 40 1 11 36
M  V30 41 1 14 37
M  V30 42 1 15 38 CFG=1
M  V30 43 1 16 39
M  V30 44 1 16 40
M  V30 45 1 17 41 CFG=1
M  V30 46 1 19 42
M  V30 47 1 20 43
M  V30 48 1 21 44
M  V30 49 1 22 45
M  V30 50 1 23 46
M  V30 51 1 25 47
M  V30 52 1 27 48
M  V30 53 1 28 49
M  V30 END BOND
M  V30 END CTAB
M  END
>  <Dataset>  (577) 
ChEMBL_Kinases

>  <Ligand_Instance>  (577) 
nan

>  <PDB_ID>  (577) 
nan

>  <Standardized_SMILES>  (577) 
Cc1cc(-c2n[nH]c3cc(NC(=O)N[C@@H]4C[C@H]4c4ccccc4)ncc23)ccn1

>  <Name>  (577) 
nan

>  <Pocket>  (577) 
nan

>  <ATP_Site>  (577) 
nan

>  <Peripheral>  (577) 
nan

>  <Num_H_Atoms_ProtBoundConf>  (577) 
nan

>  <Num_Resolved_Atoms>  (577) 
nan

>  <Num_Not_Resolved_Atoms>  (577) 
nan

$$$$
CHEMBL3663037
     RDKit          3D

  0  0  0  0  0  0  0  0  0  0999 V3000
M  V30 BEGIN CTAB
M  V30 COUNTS 51 54 0 0 0
M  V30 BEGIN ATOM
M  V30 1 C -0.442522 -7.605611 -1.685808 0
M  V30 2 C 0.956698 -7.281762 -1.269478 0
M  V30 3 C 1.265786 -6.092411 -0.664358 0
M  V30 4 C 2.532042 -5.717540 -0.250051 0
M  V30 5 C 2.831440 -4.445900 0.390995 0
M  V30 6 N 3.604482 -4.221333 1.488408 0
M  V30 7 N 3.644766 -2.930627 1.778836 0
M  V30 8 C 2.885369 -2.317476 0.852840 0
M  V30 9 C 2.635860 -0.963046 0.758860 0
M  V30 10 C 1.822792 -0.542831 -0.275658 0
M  V30 11 N 1.395101 0.775388 -0.619757 0
M  V30 12 C 0.180459 1.280884 -0.049870 0
M  V30 13 O -0.451097 0.525636 0.732861 0
M  V30 14 N -0.285983 2.576061 -0.357087 0
M  V30 15 C -1.503056 3.171550 0.172092 0
M  V30 16 C -1.378493 3.225179 1.700531 0
M  V30 17 C -0.198401 4.049181 2.123750 0
M  V30 18 C -2.611336 3.837705 2.264751 0
M  V30 19 C -3.359303 3.119971 3.173809 0
M  V30 20 C -4.527604 3.636734 3.741595 0
M  V30 21 C -4.903208 4.919209 3.343329 0
M  V30 22 C -4.142805 5.612597 2.438033 0
M  V30 23 C -3.004028 5.103070 1.887625 0
M  V30 24 N 1.298957 -1.423901 -1.152220 0
M  V30 25 C 1.539089 -2.765130 -1.068650 0
M  V30 26 C 2.348029 -3.218007 -0.045727 0
M  V30 27 C 3.525559 -6.646514 -0.486472 0
M  V30 28 C 3.234295 -7.867255 -1.102593 0
M  V30 29 N 1.965430 -8.164869 -1.481933 0
M  V30 30 H -1.147815 -6.981020 -1.069482 0
M  V30 31 H -0.613022 -7.449254 -2.762521 0
M  V30 32 H -0.640148 -8.666311 -1.459059 0
M  V30 33 H 0.449955 -5.424202 -0.513662 0
M  V30 34 H 4.167977 -2.497461 2.572866 0
M  V30 35 H 2.975772 -0.158634 1.370085 0
M  V30 36 H 1.945527 1.385053 -1.278732 0
M  V30 37 H 0.325219 3.127402 -1.029323 0
M  V30 38 H -2.394294 2.564622 -0.085313 0
M  V30 39 H -1.588998 4.196807 -0.182820 0
M  V30 40 H -1.248087 2.212813 2.134257 0
M  V30 41 H -0.017067 3.831390 3.201581 0
M  V30 42 H -0.417803 5.144904 2.096979 0
M  V30 43 H 0.725986 3.790286 1.578632 0
M  V30 44 H -3.021182 2.127867 3.447852 0
M  V30 45 H -5.065522 3.021352 4.446979 0
M  V30 46 H -5.812646 5.280223 3.806759 0
M  V30 47 H -4.488845 6.587309 2.178715 0
M  V30 48 H -2.414891 5.663308 1.174260 0
M  V30 49 H 1.130189 -3.488945 -1.759465 0
M  V30 50 H 4.539618 -6.413416 -0.185493 0
M  V30 51 H 3.999460 -8.609752 -1.297084 0
M  V30 END ATOM
M  V30 BEGIN BOND
M  V30 1 1 1 2
M  V30 2 2 2 3
M  V30 3 1 3 4
M  V30 4 1 4 5
M  V30 5 2 5 6
M  V30 6 1 6 7
M  V30 7 1 7 8
M  V30 8 2 8 9
M  V30 9 1 9 10
M  V30 10 1 10 11
M  V30 11 1 11 12
M  V30 12 2 12 13
M  V30 13 1 12 14
M  V30 14 1 14 15
M  V30 15 1 15 16
M  V30 16 1 16 17
M  V30 17 1 16 18
M  V30 18 2 18 19
M  V30 19 1 19 20
M  V30 20 2 20 21
M  V30 21 1 21 22
M  V30 22 2 22 23
M  V30 23 2 10 24
M  V30 24 1 24 25
M  V30 25 2 25 26
M  V30 26 2 4 27
M  V30 27 1 27 28
M  V30 28 2 28 29
M  V30 29 1 29 2
M  V30 30 1 26 5
M  V30 31 1 26 8
M  V30 32 1 23 18
M  V30 33 1 1 30
M  V30 34 1 1 31
M  V30 35 1 1 32
M  V30 36 1 3 33
M  V30 37 1 7 34
M  V30 38 1 9 35
M  V30 39 1 11 36
M  V30 40 1 14 37
M  V30 41 1 15 38
M  V30 42 1 15 39
M  V30 43 1 16 40
M  V30 44 1 17 41
M  V30 45 1 17 42
M  V30 46 1 17 43
M  V30 47 1 19 44
M  V30 48 1 20 45
M  V30 49 1 21 46
M  V30 50 1 22 47
M  V30 51 1 23 48
M  V30 52 1 25 49
M  V30 53 1 27 50
M  V30 54 1 28 51
M  V30 END BOND
M  V30 END CTAB
M  END
>  <Dataset>  (578) 
ChEMBL_Kinases

>  <Ligand_Instance>  (578) 
nan

>  <PDB_ID>  (578) 
nan

>  <Standardized_SMILES>  (578) 
Cc1cc(-c2n[nH]c3cc(NC(=O)NCC(C)c4ccccc4)ncc23)ccn1

>  <Name>  (578) 
nan

>  <Pocket>  (578) 
nan

>  <ATP_Site>  (578) 
nan

>  <Peripheral>  (578) 
nan

>  <Num_H_Atoms_ProtBoundConf>  (578) 
nan

>  <Num_Resolved_Atoms>  (578) 
nan

>  <Num_Not_Resolved_Atoms>  (578) 
nan

$$$$
CHEMBL3663038
     RDKit          3D

  0  0  0  0  0  0  0  0  0  0999 V3000
M  V30 BEGIN CTAB
M  V30 COUNTS 45 47 0 0 0
M  V30 BEGIN ATOM
M  V30 1 C 3.782495 -5.501629 0.805652 0
M  V30 2 O 4.382301 -5.054813 -0.395565 0
M  V30 3 C 3.666961 -3.961313 -0.877618 0
M  V30 4 C 3.153339 -4.270145 -2.265706 0
M  V30 5 C 4.565350 -2.723815 -0.950036 0
M  V30 6 N 3.850751 -1.564511 -1.449315 0
M  V30 7 C 2.732940 -1.085095 -0.762710 0
M  V30 8 O 2.247809 -1.581034 0.309808 0
M  V30 9 N 2.054330 0.064704 -1.290666 0
M  V30 10 C 0.907431 0.588523 -0.621327 0
M  V30 11 C 0.236196 1.707580 -1.123274 0
M  V30 12 C -0.887774 2.246832 -0.495790 0
M  V30 13 N -1.675403 3.298924 -0.797660 0
M  V30 14 N -2.605925 3.353091 0.153317 0
M  V30 15 C -2.412649 2.356797 1.039284 0
M  V30 16 C -3.238887 2.100639 2.218326 0
M  V30 17 C -4.623560 2.157065 2.024732 0
M  V30 18 C -5.374305 1.910923 3.155712 0
M  V30 19 N -4.907483 1.628179 4.398805 0
M  V30 20 C -3.567930 1.585120 4.534612 0
M  V30 21 C -3.052147 1.275336 5.896371 0
M  V30 22 C -2.725299 1.814858 3.473011 0
M  V30 23 C -1.313719 1.607312 0.670227 0
M  V30 24 C -0.647279 0.503312 1.160819 0
M  V30 25 N 0.448992 0.012156 0.510513 0
M  V30 26 H 3.788058 -4.698097 1.570938 0
M  V30 27 H 2.715511 -5.747863 0.640204 0
M  V30 28 H 4.266477 -6.412469 1.176329 0
M  V30 29 H 2.849944 -3.801331 -0.146215 0
M  V30 30 H 3.889388 -3.897305 -3.018357 0
M  V30 31 H 2.178227 -3.742677 -2.446244 0
M  V30 32 H 3.075709 -5.351772 -2.423742 0
M  V30 33 H 4.801069 -2.497283 0.130835 0
M  V30 34 H 5.501600 -2.935157 -1.466651 0
M  V30 35 H 4.169809 -1.095878 -2.311394 0
M  V30 36 H 2.377237 0.535896 -2.159775 0
M  V30 37 H 0.593791 2.188737 -2.040880 0
M  V30 38 H -1.513190 3.892390 -1.626606 0
M  V30 39 H -5.092860 2.371019 1.088986 0
M  V30 40 H -6.467419 1.938930 3.076755 0
M  V30 41 H -3.329945 0.251851 6.205429 0
M  V30 42 H -3.354827 2.044044 6.634596 0
M  V30 43 H -1.942423 1.297428 5.848041 0
M  V30 44 H -1.658362 1.777131 3.596509 0
M  V30 45 H -1.015493 0.040405 2.069866 0
M  V30 END ATOM
M  V30 BEGIN BOND
M  V30 1 1 1 2
M  V30 2 1 2 3
M  V30 3 1 3 4
M  V30 4 1 3 5
M  V30 5 1 5 6
M  V30 6 1 6 7
M  V30 7 2 7 8
M  V30 8 1 7 9
M  V30 9 1 9 10
M  V30 10 2 10 11
M  V30 11 1 11 12
M  V30 12 1 12 13
M  V30 13 1 13 14
M  V30 14 2 14 15
M  V30 15 1 15 16
M  V30 16 2 16 17
M  V30 17 1 17 18
M  V30 18 2 18 19
M  V30 19 1 19 20
M  V30 20 1 20 21
M  V30 21 2 20 22
M  V30 22 1 15 23
M  V30 23 1 23 24
M  V30 24 2 24 25
M  V30 25 1 25 10
M  V30 26 2 23 12
M  V30 27 1 22 16
M  V30 28 1 1 26
M  V30 29 1 1 27
M  V30 30 1 1 28
M  V30 31 1 3 29
M  V30 32 1 4 30
M  V30 33 1 4 31
M  V30 34 1 4 32
M  V30 35 1 5 33
M  V30 36 1 5 34
M  V30 37 1 6 35
M  V30 38 1 9 36
M  V30 39 1 11 37
M  V30 40 1 13 38
M  V30 41 1 17 39
M  V30 42 1 18 40
M  V30 43 1 21 41
M  V30 44 1 21 42
M  V30 45 1 21 43
M  V30 46 1 22 44
M  V30 47 1 24 45
M  V30 END BOND
M  V30 END CTAB
M  END
>  <Dataset>  (579) 
ChEMBL_Kinases

>  <Ligand_Instance>  (579) 
nan

>  <PDB_ID>  (579) 
nan

>  <Standardized_SMILES>  (579) 
COC(C)CNC(=O)Nc1cc2[nH]nc(-c3ccnc(C)c3)c2cn1

>  <Name>  (579) 
nan

>  <Pocket>  (579) 
nan

>  <ATP_Site>  (579) 
nan

>  <Peripheral>  (579) 
nan

>  <Num_H_Atoms_ProtBoundConf>  (579) 
nan

>  <Num_Resolved_Atoms>  (579) 
nan

>  <Num_Not_Resolved_Atoms>  (579) 
nan

$$$$
CHEMBL3663048
     RDKit          3D

  0  0  0  0  0  0  0  0  0  0999 V3000
M  V30 BEGIN CTAB
M  V30 COUNTS 45 47 0 0 0
M  V30 BEGIN ATOM
M  V30 1 C 4.895726 0.263351 -4.775777 0
M  V30 2 O 5.166821 0.637840 -3.479930 0
M  V30 3 C 5.383710 -0.409957 -2.604824 0 CFG=1
M  V30 4 C 6.774816 -0.335417 -1.986023 0
M  V30 5 C 4.406285 -0.313398 -1.464652 0
M  V30 6 N 3.038994 -0.382072 -1.969522 0
M  V30 7 C 2.071546 -0.294818 -0.926539 0
M  V30 8 O 2.549357 -0.174621 0.241475 0
M  V30 9 N 0.646276 -0.336863 -1.148360 0
M  V30 10 C -0.243811 -0.239879 -0.016228 0
M  V30 11 C -0.644271 1.044922 0.349898 0
M  V30 12 C -1.501753 1.163826 1.437615 0
M  V30 13 N -2.090371 2.197001 2.074471 0
M  V30 14 N -2.825782 1.726959 3.073353 0
M  V30 15 C -2.749654 0.371405 3.131995 0
M  V30 16 C -3.459633 -0.419382 4.135217 0
M  V30 17 C -3.473311 -0.052209 5.480719 0
M  V30 18 C -4.135358 -0.779869 6.449995 0
M  V30 19 N -4.803100 -1.905567 6.068943 0
M  V30 20 C -4.822817 -2.306454 4.782715 0
M  V30 21 C -5.573781 -3.546120 4.445510 0
M  V30 22 C -4.155259 -1.569107 3.817960 0
M  V30 23 C -1.910216 0.018069 2.094510 0
M  V30 24 C -1.500491 -1.245820 1.714067 0
M  V30 25 N -0.670015 -1.334665 0.657570 0
M  V30 26 H 4.744175 1.204920 -5.361983 0
M  V30 27 H 3.991097 -0.353166 -4.909344 0
M  V30 28 H 5.777839 -0.236376 -5.248789 0
M  V30 29 H 5.307417 -1.395655 -3.074607 0
M  V30 30 H 6.882158 0.560085 -1.350728 0
M  V30 31 H 7.522611 -0.433106 -2.773502 0
M  V30 32 H 6.868237 -1.219401 -1.307214 0
M  V30 33 H 4.500849 0.699141 -0.992468 0
M  V30 34 H 4.587906 -1.074154 -0.683350 0
M  V30 35 H 2.629303 -0.481861 -2.937321 0
M  V30 36 H 0.373886 -0.439725 -2.168257 0
M  V30 37 H -0.331931 1.945368 -0.155218 0
M  V30 38 H -1.978733 3.212895 1.813833 0
M  V30 39 H -2.928273 0.850656 5.736334 0
M  V30 40 H -4.103560 -0.433906 7.482022 0
M  V30 41 H -5.589236 -3.698469 3.339662 0
M  V30 42 H -5.146022 -4.421129 4.968345 0
M  V30 43 H -6.653708 -3.407448 4.734605 0
M  V30 44 H -4.167935 -1.887177 2.781796 0
M  V30 45 H -1.831153 -2.141653 2.242174 0
M  V30 END ATOM
M  V30 BEGIN BOND
M  V30 1 1 1 2
M  V30 2 1 2 3
M  V30 3 1 3 4
M  V30 4 1 3 5
M  V30 5 1 5 6
M  V30 6 1 6 7
M  V30 7 2 7 8
M  V30 8 1 7 9
M  V30 9 1 9 10
M  V30 10 2 10 11
M  V30 11 1 11 12
M  V30 12 1 12 13
M  V30 13 1 13 14
M  V30 14 2 14 15
M  V30 15 1 15 16
M  V30 16 2 16 17
M  V30 17 1 17 18
M  V30 18 2 18 19
M  V30 19 1 19 20
M  V30 20 1 20 21
M  V30 21 2 20 22
M  V30 22 1 15 23
M  V30 23 1 23 24
M  V30 24 2 24 25
M  V30 25 1 25 10
M  V30 26 2 23 12
M  V30 27 1 22 16
M  V30 28 1 1 26
M  V30 29 1 1 27
M  V30 30 1 1 28
M  V30 31 1 3 29 CFG=3
M  V30 32 1 4 30
M  V30 33 1 4 31
M  V30 34 1 4 32
M  V30 35 1 5 33
M  V30 36 1 5 34
M  V30 37 1 6 35
M  V30 38 1 9 36
M  V30 39 1 11 37
M  V30 40 1 13 38
M  V30 41 1 17 39
M  V30 42 1 18 40
M  V30 43 1 21 41
M  V30 44 1 21 42
M  V30 45 1 21 43
M  V30 46 1 22 44
M  V30 47 1 24 45
M  V30 END BOND
M  V30 END CTAB
M  END
>  <Dataset>  (580) 
ChEMBL_Kinases

>  <Ligand_Instance>  (580) 
nan

>  <PDB_ID>  (580) 
nan

>  <Standardized_SMILES>  (580) 
CO[C@@H](C)CNC(=O)Nc1cc2[nH]nc(-c3ccnc(C)c3)c2cn1

>  <Name>  (580) 
nan

>  <Pocket>  (580) 
nan

>  <ATP_Site>  (580) 
nan

>  <Peripheral>  (580) 
nan

>  <Num_H_Atoms_ProtBoundConf>  (580) 
nan

>  <Num_Resolved_Atoms>  (580) 
nan

>  <Num_Not_Resolved_Atoms>  (580) 
nan

$$$$
CHEMBL3663040
     RDKit          3D

  0  0  0  0  0  0  0  0  0  0999 V3000
M  V30 BEGIN CTAB
M  V30 COUNTS 52 55 0 0 0
M  V30 BEGIN ATOM
M  V30 1 C -2.012969 -4.301199 -3.583281 0
M  V30 2 O -1.058067 -3.799080 -2.700557 0
M  V30 3 C 0.225522 -4.115344 -3.137524 0
M  V30 4 C 1.194482 -3.538281 -2.131113 0 CFG=2
M  V30 5 N 0.953386 -2.094020 -2.121456 0
M  V30 6 C 0.567610 -1.504726 -0.863640 0
M  V30 7 O 0.439844 -2.188328 0.187074 0
M  V30 8 N 0.315902 -0.091320 -0.785424 0
M  V30 9 C -0.065769 0.498447 0.454091 0
M  V30 10 C 1.008622 0.936709 1.230000 0
M  V30 11 C 0.733030 1.522128 2.449333 0
M  V30 12 N 1.430743 2.056750 3.461367 0
M  V30 13 N 0.622054 2.487089 4.422492 0
M  V30 14 C -0.668798 2.243440 4.065277 0
M  V30 15 C -1.775561 2.615688 4.940218 0
M  V30 16 C -1.610866 2.293099 6.292729 0
M  V30 17 C -2.570547 2.581248 7.243641 0
M  V30 18 N -3.697585 3.196065 6.826485 0
M  V30 19 C -3.903254 3.526400 5.539863 0
M  V30 20 C -5.163114 4.202588 5.135095 0
M  V30 21 C -2.941390 3.235798 4.596760 0
M  V30 22 C -0.605348 1.637577 2.827068 0
M  V30 23 C -1.659527 1.199753 2.049892 0
M  V30 24 N -1.353916 0.633469 0.866242 0
M  V30 25 C 2.612086 -3.821632 -2.539879 0
M  V30 26 C 3.162340 -3.154444 -3.616735 0
M  V30 27 C 4.467786 -3.367626 -4.049619 0
M  V30 28 C 5.218376 -4.303325 -3.337864 0
M  V30 29 C 4.690333 -4.972412 -2.270411 0
M  V30 30 C 3.389697 -4.753441 -1.846891 0
M  V30 31 H -3.004260 -4.026889 -3.196568 0
M  V30 32 H -1.900077 -3.807898 -4.577870 0
M  V30 33 H -1.951099 -5.383928 -3.750546 0
M  V30 34 H 0.363179 -5.205341 -3.294927 0
M  V30 35 H 0.410170 -3.540880 -4.086515 0
M  V30 36 H 1.016523 -3.894281 -1.097415 0
M  V30 37 H 1.047444 -1.491409 -2.966669 0
M  V30 38 H 0.403050 0.535253 -1.617770 0
M  V30 39 H 2.035515 0.839072 0.921778 0
M  V30 40 H 2.487634 2.120884 3.478724 0
M  V30 41 H -0.699341 1.793703 6.642017 0
M  V30 42 H -2.459506 2.340328 8.285508 0
M  V30 43 H -5.562636 4.857911 5.937005 0
M  V30 44 H -5.077343 4.714401 4.176070 0
M  V30 45 H -5.930239 3.384008 5.015087 0
M  V30 46 H -3.046852 3.476129 3.543292 0
M  V30 47 H -2.683690 1.305430 2.374163 0
M  V30 48 H 2.555490 -2.419351 -4.166885 0
M  V30 49 H 4.905039 -2.848893 -4.891817 0
M  V30 50 H 6.245987 -4.525075 -3.614887 0
M  V30 51 H 5.314778 -5.702106 -1.735871 0
M  V30 52 H 2.949473 -5.278682 -0.995447 0
M  V30 END ATOM
M  V30 BEGIN BOND
M  V30 1 1 1 2
M  V30 2 1 2 3
M  V30 3 1 3 4
M  V30 4 1 4 5
M  V30 5 1 5 6
M  V30 6 2 6 7
M  V30 7 1 6 8
M  V30 8 1 8 9
M  V30 9 2 9 10
M  V30 10 1 10 11
M  V30 11 1 11 12
M  V30 12 1 12 13
M  V30 13 2 13 14
M  V30 14 1 14 15
M  V30 15 2 15 16
M  V30 16 1 16 17
M  V30 17 2 17 18
M  V30 18 1 18 19
M  V30 19 1 19 20
M  V30 20 2 19 21
M  V30 21 1 14 22
M  V30 22 1 22 23
M  V30 23 2 23 24
M  V30 24 1 4 25
M  V30 25 2 25 26
M  V30 26 1 26 27
M  V30 27 2 27 28
M  V30 28 1 28 29
M  V30 29 2 29 30
M  V30 30 1 24 9
M  V30 31 1 30 25
M  V30 32 2 22 11
M  V30 33 1 21 15
M  V30 34 1 1 31
M  V30 35 1 1 32
M  V30 36 1 1 33
M  V30 37 1 3 34
M  V30 38 1 3 35
M  V30 39 1 4 36 CFG=1
M  V30 40 1 5 37
M  V30 41 1 8 38
M  V30 42 1 10 39
M  V30 43 1 12 40
M  V30 44 1 16 41
M  V30 45 1 17 42
M  V30 46 1 20 43
M  V30 47 1 20 44
M  V30 48 1 20 45
M  V30 49 1 21 46
M  V30 50 1 23 47
M  V30 51 1 26 48
M  V30 52 1 27 49
M  V30 53 1 28 50
M  V30 54 1 29 51
M  V30 55 1 30 52
M  V30 END BOND
M  V30 END CTAB
M  END
>  <Dataset>  (581) 
ChEMBL_Kinases

>  <Ligand_Instance>  (581) 
nan

>  <PDB_ID>  (581) 
nan

>  <Standardized_SMILES>  (581) 
COC[C@H](NC(=O)Nc1cc2[nH]nc(-c3ccnc(C)c3)c2cn1)c1ccccc1

>  <Name>  (581) 
nan

>  <Pocket>  (581) 
nan

>  <ATP_Site>  (581) 
nan

>  <Peripheral>  (581) 
nan

>  <Num_H_Atoms_ProtBoundConf>  (581) 
nan

>  <Num_Resolved_Atoms>  (581) 
nan

>  <Num_Not_Resolved_Atoms>  (581) 
nan

$$$$
CHEMBL3663041
     RDKit          3D

  0  0  0  0  0  0  0  0  0  0999 V3000
M  V30 BEGIN CTAB
M  V30 COUNTS 43 46 0 0 0
M  V30 BEGIN ATOM
M  V30 1 C 0.423935 -6.096455 2.839019 0
M  V30 2 C 0.633737 -5.954006 1.390243 0
M  V30 3 C 0.967955 -4.732488 0.853189 0
M  V30 4 C 1.177563 -4.541935 -0.508350 0
M  V30 5 C 1.532653 -3.258401 -1.104140 0
M  V30 6 N 2.483666 -3.007545 -2.039457 0
M  V30 7 N 2.504741 -1.701487 -2.329640 0
M  V30 8 C 1.559837 -1.108935 -1.574750 0
M  V30 9 C 1.196074 0.220008 -1.512219 0
M  V30 10 C 0.198389 0.620283 -0.668461 0
M  V30 11 N -0.335699 1.921705 -0.442027 0
M  V30 12 C 0.198263 2.785280 0.552919 0
M  V30 13 O 1.162806 2.327095 1.211527 0
M  V30 14 N -0.349168 4.077982 0.761760 0
M  V30 15 C 0.080009 5.029130 1.751626 0
M  V30 16 C -0.124833 4.627120 3.151859 0
M  V30 17 C -1.580091 4.394929 3.584919 0
M  V30 18 O -0.993895 3.587642 4.607240 0
M  V30 19 C -0.125532 3.175629 3.536890 0
M  V30 20 N -0.420366 -0.319555 0.100994 0
M  V30 21 C -0.070813 -1.626128 0.047028 0
M  V30 22 C 0.932418 -2.058036 -0.795327 0
M  V30 23 C 1.023452 -5.676668 -1.278208 0
M  V30 24 C 0.691843 -6.900867 -0.767097 0
M  V30 25 N 0.505578 -7.006532 0.556174 0
M  V30 26 H -0.186851 -5.243056 3.221369 0
M  V30 27 H -0.194362 -7.007474 3.067873 0
M  V30 28 H 1.340815 -6.200855 3.434542 0
M  V30 29 H 1.072579 -3.886039 1.511281 0
M  V30 30 H 3.142976 -1.245676 -3.016912 0
M  V30 31 H 1.627079 1.030908 -2.080579 0
M  V30 32 H -1.153193 2.251561 -1.033223 0
M  V30 33 H -1.146060 4.344405 0.117247 0
M  V30 34 H -0.329333 6.036223 1.522997 0
M  V30 35 H 1.203704 5.113164 1.601364 0
M  V30 36 H 0.361651 5.215621 3.935237 0
M  V30 37 H -2.101480 5.279600 3.946028 0
M  V30 38 H -2.112681 3.716212 2.893490 0
M  V30 39 H -0.777474 2.487372 2.951252 0
M  V30 40 H 0.794598 2.725850 3.907474 0
M  V30 41 H -0.571777 -2.356530 0.663689 0
M  V30 42 H 1.169103 -5.612689 -2.346128 0
M  V30 43 H 0.563147 -7.805746 -1.333924 0
M  V30 END ATOM
M  V30 BEGIN BOND
M  V30 1 1 1 2
M  V30 2 2 2 3
M  V30 3 1 3 4
M  V30 4 1 4 5
M  V30 5 2 5 6
M  V30 6 1 6 7
M  V30 7 1 7 8
M  V30 8 2 8 9
M  V30 9 1 9 10
M  V30 10 1 10 11
M  V30 11 1 11 12
M  V30 12 2 12 13
M  V30 13 1 12 14
M  V30 14 1 14 15
M  V30 15 1 15 16
M  V30 16 1 16 17
M  V30 17 1 17 18
M  V30 18 1 18 19
M  V30 19 2 10 20
M  V30 20 1 20 21
M  V30 21 2 21 22
M  V30 22 2 4 23
M  V30 23 1 23 24
M  V30 24 2 24 25
M  V30 25 1 25 2
M  V30 26 1 22 5
M  V30 27 1 22 8
M  V30 28 1 19 16
M  V30 29 1 1 26
M  V30 30 1 1 27
M  V30 31 1 1 28
M  V30 32 1 3 29
M  V30 33 1 7 30
M  V30 34 1 9 31
M  V30 35 1 11 32
M  V30 36 1 14 33
M  V30 37 1 15 34
M  V30 38 1 15 35
M  V30 39 1 16 36
M  V30 40 1 17 37
M  V30 41 1 17 38
M  V30 42 1 19 39
M  V30 43 1 19 40
M  V30 44 1 21 41
M  V30 45 1 23 42
M  V30 46 1 24 43
M  V30 END BOND
M  V30 END CTAB
M  END
>  <Dataset>  (582) 
ChEMBL_Kinases

>  <Ligand_Instance>  (582) 
nan

>  <PDB_ID>  (582) 
nan

>  <Standardized_SMILES>  (582) 
Cc1cc(-c2n[nH]c3cc(NC(=O)NCC4COC4)ncc23)ccn1

>  <Name>  (582) 
nan

>  <Pocket>  (582) 
nan

>  <ATP_Site>  (582) 
nan

>  <Peripheral>  (582) 
nan

>  <Num_H_Atoms_ProtBoundConf>  (582) 
nan

>  <Num_Resolved_Atoms>  (582) 
nan

>  <Num_Not_Resolved_Atoms>  (582) 
nan

$$$$
CHEMBL3663042
     RDKit          3D

  0  0  0  0  0  0  0  0  0  0999 V3000
M  V30 BEGIN CTAB
M  V30 COUNTS 52 55 0 0 0
M  V30 BEGIN ATOM
M  V30 1 C 0.035735 -4.465735 2.981100 0
M  V30 2 C -0.454034 -3.693026 1.787547 0 CFG=1
M  V30 3 N 0.579530 -3.208969 0.928637 0
M  V30 4 C 0.831485 -1.840542 0.758340 0
M  V30 5 O 0.131261 -0.996203 1.376899 0
M  V30 6 N 1.827264 -1.287049 -0.066482 0
M  V30 7 C 2.046525 0.112551 -0.208173 0
M  V30 8 C 3.033307 0.641781 -1.025925 0
M  V30 9 C 3.146346 2.029132 -1.078111 0
M  V30 10 N 4.017790 2.785928 -1.791178 0
M  V30 11 N 3.723688 4.041531 -1.503222 0
M  V30 12 C 2.699142 4.119133 -0.634593 0
M  V30 13 C 2.043356 5.283421 -0.043569 0
M  V30 14 C 2.629987 6.422411 0.508159 0
M  V30 15 N 1.605120 7.194708 0.912976 0
M  V30 16 N 0.447798 6.645617 0.665882 0
M  V30 17 C -0.875798 7.168408 0.953621 0
M  V30 18 C 0.676380 5.445470 0.066244 0
M  V30 19 C 2.288764 2.815978 -0.328448 0
M  V30 20 C 1.324051 2.271141 0.470145 0
M  V30 21 N 1.243260 0.930975 0.496550 0
M  V30 22 C -1.579672 -4.388287 1.070794 0
M  V30 23 C -2.752660 -4.564196 2.040438 0
M  V30 24 C -3.813519 -5.457810 1.435461 0
M  V30 25 C -3.634550 -5.600093 -0.061232 0
M  V30 26 C -2.302442 -6.138673 -0.466165 0
M  V30 27 C -1.284399 -5.765962 0.587689 0
M  V30 28 H -0.220682 -5.541215 2.944811 0
M  V30 29 H -0.332583 -4.087815 3.957252 0
M  V30 30 H 1.154600 -4.331204 3.040132 0
M  V30 31 H -0.936262 -2.768817 2.224127 0
M  V30 32 H 1.178801 -3.893619 0.400409 0
M  V30 33 H 2.420387 -1.979061 -0.589699 0
M  V30 34 H 3.650354 -0.062719 -1.569616 0
M  V30 35 H 4.754379 2.401781 -2.425971 0
M  V30 36 H 3.706291 6.554371 0.550281 0
M  V30 37 H -1.483201 7.315885 0.061517 0
M  V30 38 H -1.399665 6.361902 1.541311 0
M  V30 39 H -0.815100 8.024436 1.646889 0
M  V30 40 H -0.111331 4.771892 -0.250468 0
M  V30 41 H 0.667356 2.902065 1.045026 0
M  V30 42 H -2.000428 -3.733227 0.281618 0
M  V30 43 H -2.402240 -5.104719 2.958259 0
M  V30 44 H -3.136117 -3.586804 2.381303 0
M  V30 45 H -4.790380 -4.930406 1.570408 0
M  V30 46 H -3.908392 -6.438581 1.914215 0
M  V30 47 H -4.414379 -6.303068 -0.412979 0
M  V30 48 H -3.863993 -4.614114 -0.558324 0
M  V30 49 H -2.309035 -7.228584 -0.666278 0
M  V30 50 H -2.013818 -5.675403 -1.444484 0
M  V30 51 H -1.385168 -6.539590 1.384633 0
M  V30 52 H -0.278770 -5.911572 0.165932 0
M  V30 END ATOM
M  V30 BEGIN BOND
M  V30 1 1 1 2
M  V30 2 1 2 3
M  V30 3 1 3 4
M  V30 4 2 4 5
M  V30 5 1 4 6
M  V30 6 1 6 7
M  V30 7 2 7 8
M  V30 8 1 8 9
M  V30 9 1 9 10
M  V30 10 1 10 11
M  V30 11 2 11 12
M  V30 12 1 12 13
M  V30 13 1 13 14
M  V30 14 2 14 15
M  V30 15 1 15 16
M  V30 16 1 16 17
M  V30 17 1 16 18
M  V30 18 1 12 19
M  V30 19 1 19 20
M  V30 20 2 20 21
M  V30 21 1 2 22
M  V30 22 1 22 23
M  V30 23 1 23 24
M  V30 24 1 24 25
M  V30 25 1 25 26
M  V30 26 1 26 27
M  V30 27 1 21 7
M  V30 28 1 27 22
M  V30 29 2 19 9
M  V30 30 2 18 13
M  V30 31 1 1 28
M  V30 32 1 1 29
M  V30 33 1 1 30
M  V30 34 1 2 31 CFG=1
M  V30 35 1 3 32
M  V30 36 1 6 33
M  V30 37 1 8 34
M  V30 38 1 10 35
M  V30 39 1 14 36
M  V30 40 1 17 37
M  V30 41 1 17 38
M  V30 42 1 17 39
M  V30 43 1 18 40
M  V30 44 1 20 41
M  V30 45 1 22 42
M  V30 46 1 23 43
M  V30 47 1 23 44
M  V30 48 1 24 45
M  V30 49 1 24 46
M  V30 50 1 25 47
M  V30 51 1 25 48
M  V30 52 1 26 49
M  V30 53 1 26 50
M  V30 54 1 27 51
M  V30 55 1 27 52
M  V30 END BOND
M  V30 END CTAB
M  END
>  <Dataset>  (583) 
ChEMBL_Kinases

>  <Ligand_Instance>  (583) 
nan

>  <PDB_ID>  (583) 
nan

>  <Standardized_SMILES>  (583) 
C[C@@H](NC(=O)Nc1cc2[nH]nc(-c3cnn(C)c3)c2cn1)C1CCCCC1

>  <Name>  (583) 
nan

>  <Pocket>  (583) 
nan

>  <ATP_Site>  (583) 
nan

>  <Peripheral>  (583) 
nan

>  <Num_H_Atoms_ProtBoundConf>  (583) 
nan

>  <Num_Resolved_Atoms>  (583) 
nan

>  <Num_Not_Resolved_Atoms>  (583) 
nan

$$$$
CHEMBL3663043
     RDKit          3D

  0  0  0  0  0  0  0  0  0  0999 V3000
M  V30 BEGIN CTAB
M  V30 COUNTS 43 46 0 0 0
M  V30 BEGIN ATOM
M  V30 1 C 1.509976 -7.179196 1.663291 0
M  V30 2 N 2.313913 -6.348487 0.772594 0
M  V30 3 C 2.374890 -5.008129 0.773490 0
M  V30 4 C 3.255075 -4.577339 -0.227341 0
M  V30 5 C 3.496998 -3.149238 -0.432233 0
M  V30 6 N 4.678237 -2.528522 -0.618994 0
M  V30 7 N 4.531136 -1.224744 -0.772640 0
M  V30 8 C 3.200187 -1.006570 -0.679739 0
M  V30 9 C 2.553204 0.212115 -0.777092 0
M  V30 10 C 1.163153 0.200559 -0.649393 0
M  V30 11 N 0.261191 1.303530 -0.708782 0
M  V30 12 C -0.143496 2.072403 0.403025 0
M  V30 13 O 0.337522 1.740464 1.499509 0
M  V30 14 N -1.043331 3.145609 0.230919 0
M  V30 15 C -1.500070 3.973193 1.332390 0
M  V30 16 C -2.208498 3.069552 2.312365 0
M  V30 17 C -2.757394 3.756603 3.534483 0
M  V30 18 C -4.112279 3.117037 3.314384 0
M  V30 19 C -3.663045 2.856255 1.871897 0
M  V30 20 N 0.508941 -0.961365 -0.441158 0
M  V30 21 C 1.133329 -2.159061 -0.344443 0
M  V30 22 C 2.508500 -2.184042 -0.466112 0
M  V30 23 C 3.712384 -5.751354 -0.822244 0
M  V30 24 N 3.117080 -6.794772 -0.185647 0
M  V30 25 H 1.892091 -7.141701 2.699644 0
M  V30 26 H 0.474373 -6.748744 1.722084 0
M  V30 27 H 1.438972 -8.188110 1.245669 0
M  V30 28 H 1.797913 -4.394151 1.477595 0
M  V30 29 H 5.287575 -0.518142 -0.931833 0
M  V30 30 H 2.953234 1.179567 -0.937332 0
M  V30 31 H -0.063788 1.469888 -1.690152 0
M  V30 32 H -1.398375 3.360417 -0.713898 0
M  V30 33 H -2.124592 4.798681 0.995333 0
M  V30 34 H -0.580054 4.334059 1.877089 0
M  V30 35 H -1.753793 2.090293 2.453643 0
M  V30 36 H -2.732200 4.845868 3.540575 0
M  V30 37 H -2.293807 3.314838 4.448627 0
M  V30 38 H -4.985458 3.784453 3.393817 0
M  V30 39 H -4.252916 2.143676 3.850815 0
M  V30 40 H -4.042197 3.639563 1.197082 0
M  V30 41 H -3.890223 1.845661 1.488451 0
M  V30 42 H 0.607520 -3.090254 -0.177414 0
M  V30 43 H 4.413089 -5.679743 -1.633535 0
M  V30 END ATOM
M  V30 BEGIN BOND
M  V30 1 1 1 2
M  V30 2 1 2 3
M  V30 3 2 3 4
M  V30 4 1 4 5
M  V30 5 2 5 6
M  V30 6 1 6 7
M  V30 7 1 7 8
M  V30 8 2 8 9
M  V30 9 1 9 10
M  V30 10 1 10 11
M  V30 11 1 11 12
M  V30 12 2 12 13
M  V30 13 1 12 14
M  V30 14 1 14 15
M  V30 15 1 15 16
M  V30 16 1 16 17
M  V30 17 1 17 18
M  V30 18 1 18 19
M  V30 19 2 10 20
M  V30 20 1 20 21
M  V30 21 2 21 22
M  V30 22 1 4 23
M  V30 23 2 23 24
M  V30 24 1 24 2
M  V30 25 1 22 5
M  V30 26 1 22 8
M  V30 27 1 19 16
M  V30 28 1 1 25
M  V30 29 1 1 26
M  V30 30 1 1 27
M  V30 31 1 3 28
M  V30 32 1 7 29
M  V30 33 1 9 30
M  V30 34 1 11 31
M  V30 35 1 14 32
M  V30 36 1 15 33
M  V30 37 1 15 34
M  V30 38 1 16 35
M  V30 39 1 17 36
M  V30 40 1 17 37
M  V30 41 1 18 38
M  V30 42 1 18 39
M  V30 43 1 19 40
M  V30 44 1 19 41
M  V30 45 1 21 42
M  V30 46 1 23 43
M  V30 END BOND
M  V30 END CTAB
M  END
>  <Dataset>  (584) 
ChEMBL_Kinases

>  <Ligand_Instance>  (584) 
nan

>  <PDB_ID>  (584) 
nan

>  <Standardized_SMILES>  (584) 
Cn1cc(-c2n[nH]c3cc(NC(=O)NCC4CCC4)ncc23)cn1

>  <Name>  (584) 
nan

>  <Pocket>  (584) 
nan

>  <ATP_Site>  (584) 
nan

>  <Peripheral>  (584) 
nan

>  <Num_H_Atoms_ProtBoundConf>  (584) 
nan

>  <Num_Resolved_Atoms>  (584) 
nan

>  <Num_Not_Resolved_Atoms>  (584) 
nan

$$$$
CHEMBL3663044
     RDKit          3D

  0  0  0  0  0  0  0  0  0  0999 V3000
M  V30 BEGIN CTAB
M  V30 COUNTS 42 45 0 0 0
M  V30 BEGIN ATOM
M  V30 1 O 0.113089 -2.386895 0.245354 0
M  V30 2 C 1.314223 -2.557326 -0.084685 0
M  V30 3 N 1.752378 -3.786564 -0.590260 0
M  V30 4 C 0.934305 -4.968759 -0.794101 0
M  V30 5 C -0.155112 -4.614517 -1.758946 0
M  V30 6 C -1.111805 -5.765746 -2.080442 0
M  V30 7 C -1.139753 -5.206981 -3.498354 0
M  V30 8 C 0.292753 -4.734313 -3.221833 0
M  V30 9 N 2.162164 -1.430144 0.094052 0
M  V30 10 C 1.659981 -0.197813 0.615214 0
M  V30 11 C 1.130391 0.870870 -0.080897 0
M  V30 12 C 0.696633 1.981016 0.616249 0
M  V30 13 N 0.154389 3.119337 0.141614 0
M  V30 14 N -0.104712 3.900052 1.192622 0
M  V30 15 C 0.269801 3.266140 2.342292 0
M  V30 16 C 0.157808 3.772201 3.706702 0
M  V30 17 C -0.316745 3.007501 4.752555 0
M  V30 18 C -0.438265 3.447063 6.054599 0
M  V30 19 N -0.069222 4.709900 6.328856 0
M  V30 20 C 0.403976 5.526317 5.373706 0
M  V30 21 F 0.790690 6.820700 5.613959 0
M  V30 22 C 0.518463 5.069512 4.077545 0
M  V30 23 C 0.786461 2.033466 1.995528 0
M  V30 24 C 1.315976 0.957166 2.649625 0
M  V30 25 N 1.750065 -0.149209 1.976865 0
M  V30 26 H 2.775657 -3.799167 -0.827571 0
M  V30 27 H 1.567729 -5.786438 -1.137411 0
M  V30 28 H 0.442426 -5.230646 0.179490 0
M  V30 29 H -0.669125 -3.680270 -1.536730 0
M  V30 30 H -2.111260 -5.655793 -1.626809 0
M  V30 31 H -0.636161 -6.745103 -2.036935 0
M  V30 32 H -1.778340 -4.297252 -3.578551 0
M  V30 33 H -1.246306 -5.955261 -4.285667 0
M  V30 34 H 0.569001 -3.800267 -3.710146 0
M  V30 35 H 0.974296 -5.598212 -3.353525 0
M  V30 36 H 3.181126 -1.507263 -0.163662 0
M  V30 37 H 1.105487 0.728677 -1.152236 0
M  V30 38 H -0.023101 3.334258 -0.864709 0
M  V30 39 H -0.624810 1.988599 4.580978 0
M  V30 40 H -0.819687 2.796738 6.837094 0
M  V30 41 H 0.902402 5.736483 3.309958 0
M  V30 42 H 1.387626 0.995401 3.730326 0
M  V30 END ATOM
M  V30 BEGIN BOND
M  V30 1 2 1 2
M  V30 2 1 2 3
M  V30 3 1 3 4
M  V30 4 1 4 5
M  V30 5 1 5 6
M  V30 6 1 6 7
M  V30 7 1 7 8
M  V30 8 1 2 9
M  V30 9 1 9 10
M  V30 10 2 10 11
M  V30 11 1 11 12
M  V30 12 1 12 13
M  V30 13 1 13 14
M  V30 14 2 14 15
M  V30 15 1 15 16
M  V30 16 2 16 17
M  V30 17 1 17 18
M  V30 18 2 18 19
M  V30 19 1 19 20
M  V30 20 1 20 21
M  V30 21 2 20 22
M  V30 22 1 15 23
M  V30 23 1 23 24
M  V30 24 2 24 25
M  V30 25 1 8 5
M  V30 26 1 25 10
M  V30 27 2 23 12
M  V30 28 1 22 16
M  V30 29 1 3 26
M  V30 30 1 4 27
M  V30 31 1 4 28
M  V30 32 1 5 29
M  V30 33 1 6 30
M  V30 34 1 6 31
M  V30 35 1 7 32
M  V30 36 1 7 33
M  V30 37 1 8 34
M  V30 38 1 8 35
M  V30 39 1 9 36
M  V30 40 1 11 37
M  V30 41 1 13 38
M  V30 42 1 17 39
M  V30 43 1 18 40
M  V30 44 1 22 41
M  V30 45 1 24 42
M  V30 END BOND
M  V30 END CTAB
M  END
>  <Dataset>  (585) 
ChEMBL_Kinases

>  <Ligand_Instance>  (585) 
nan

>  <PDB_ID>  (585) 
nan

>  <Standardized_SMILES>  (585) 
O=C(NCC1CCC1)Nc1cc2[nH]nc(-c3ccnc(F)c3)c2cn1

>  <Name>  (585) 
nan

>  <Pocket>  (585) 
nan

>  <ATP_Site>  (585) 
nan

>  <Peripheral>  (585) 
nan

>  <Num_H_Atoms_ProtBoundConf>  (585) 
nan

>  <Num_Resolved_Atoms>  (585) 
nan

>  <Num_Not_Resolved_Atoms>  (585) 
nan

$$$$
CHEMBL3663045
     RDKit          3D

  0  0  0  0  0  0  0  0  0  0999 V3000
M  V30 BEGIN CTAB
M  V30 COUNTS 51 54 0 0 0
M  V30 BEGIN ATOM
M  V30 1 C 0.269453 -3.871445 3.841332 0
M  V30 2 C 0.352721 -3.806154 2.334827 0 CFG=1
M  V30 3 N 1.341216 -2.786283 2.036182 0
M  V30 4 C 0.960266 -1.574701 1.426846 0
M  V30 5 O -0.268280 -1.375964 1.136127 0
M  V30 6 N 1.845462 -0.523689 1.097140 0
M  V30 7 C 1.381352 0.676886 0.479257 0
M  V30 8 C 1.265166 0.948849 -0.869175 0
M  V30 9 C 0.790678 2.181792 -1.275323 0
M  V30 10 N 0.598826 2.654297 -2.521753 0
M  V30 11 N 0.125907 3.895530 -2.409603 0
M  V30 12 C 0.004032 4.245876 -1.112554 0
M  V30 13 C -0.470616 5.502621 -0.538727 0
M  V30 14 C 0.161948 6.160932 0.508375 0
M  V30 15 C -0.420327 7.353584 0.941345 0
M  V30 16 N -1.534023 7.881735 0.408084 0
M  V30 17 C -2.150736 7.247723 -0.606720 0
M  V30 18 F -3.260784 7.849434 -1.079753 0
M  V30 19 C -1.614513 6.057770 -1.076606 0
M  V30 20 C 0.425583 3.159676 -0.370877 0
M  V30 21 C 0.555672 2.851138 0.970461 0
M  V30 22 N 1.019384 1.646206 1.368228 0
M  V30 23 C 0.719804 -5.136918 1.729046 0
M  V30 24 C -0.266022 -6.202770 2.049999 0
M  V30 25 C -1.410743 -6.349073 1.112503 0
M  V30 26 C -1.560499 -5.256010 0.116757 0
M  V30 27 C -0.305672 -4.729907 -0.483238 0
M  V30 28 C 0.950573 -5.046441 0.257239 0
M  V30 29 H 1.213716 -4.253195 4.288833 0
M  V30 30 H -0.619952 -4.364109 4.234582 0
M  V30 31 H 0.220165 -2.795278 4.180055 0
M  V30 32 H -0.623986 -3.408061 1.994713 0
M  V30 33 H 2.358650 -2.892526 2.250673 0
M  V30 34 H 2.853694 -0.667445 1.326980 0
M  V30 35 H 1.569616 0.136014 -1.514401 0
M  V30 36 H 0.793072 2.124488 -3.399981 0
M  V30 37 H 1.045792 5.732991 0.924732 0
M  V30 38 H 0.114139 7.833887 1.767091 0
M  V30 39 H -2.155133 5.589906 -1.897917 0
M  V30 40 H 0.277455 3.597413 1.705109 0
M  V30 41 H 1.685958 -5.427759 2.207301 0
M  V30 42 H -0.591034 -6.073419 3.118612 0
M  V30 43 H 0.282832 -7.186935 2.049470 0
M  V30 44 H -2.350279 -6.368399 1.739610 0
M  V30 45 H -1.427965 -7.342545 0.587809 0
M  V30 46 H -2.173344 -5.674353 -0.733857 0
M  V30 47 H -2.220985 -4.454271 0.536334 0
M  V30 48 H -0.411974 -3.614515 -0.561719 0
M  V30 49 H -0.158292 -5.059418 -1.550525 0
M  V30 50 H 1.670681 -4.202752 0.085501 0
M  V30 51 H 1.389049 -6.011119 -0.083766 0
M  V30 END ATOM
M  V30 BEGIN BOND
M  V30 1 1 1 2
M  V30 2 1 2 3
M  V30 3 1 3 4
M  V30 4 2 4 5
M  V30 5 1 4 6
M  V30 6 1 6 7
M  V30 7 2 7 8
M  V30 8 1 8 9
M  V30 9 1 9 10
M  V30 10 1 10 11
M  V30 11 2 11 12
M  V30 12 1 12 13
M  V30 13 2 13 14
M  V30 14 1 14 15
M  V30 15 2 15 16
M  V30 16 1 16 17
M  V30 17 1 17 18
M  V30 18 2 17 19
M  V30 19 1 12 20
M  V30 20 1 20 21
M  V30 21 2 21 22
M  V30 22 1 2 23
M  V30 23 1 23 24
M  V30 24 1 24 25
M  V30 25 1 25 26
M  V30 26 1 26 27
M  V30 27 1 27 28
M  V30 28 1 22 7
M  V30 29 1 28 23
M  V30 30 2 20 9
M  V30 31 1 19 13
M  V30 32 1 1 29
M  V30 33 1 1 30
M  V30 34 1 1 31
M  V30 35 1 2 32 CFG=3
M  V30 36 1 3 33
M  V30 37 1 6 34
M  V30 38 1 8 35
M  V30 39 1 10 36
M  V30 40 1 14 37
M  V30 41 1 15 38
M  V30 42 1 19 39
M  V30 43 1 21 40
M  V30 44 1 23 41
M  V30 45 1 24 42
M  V30 46 1 24 43
M  V30 47 1 25 44
M  V30 48 1 25 45
M  V30 49 1 26 46
M  V30 50 1 26 47
M  V30 51 1 27 48
M  V30 52 1 27 49
M  V30 53 1 28 50
M  V30 54 1 28 51
M  V30 END BOND
M  V30 END CTAB
M  END
>  <Dataset>  (586) 
ChEMBL_Kinases

>  <Ligand_Instance>  (586) 
nan

>  <PDB_ID>  (586) 
nan

>  <Standardized_SMILES>  (586) 
C[C@@H](NC(=O)Nc1cc2[nH]nc(-c3ccnc(F)c3)c2cn1)C1CCCCC1

>  <Name>  (586) 
nan

>  <Pocket>  (586) 
nan

>  <ATP_Site>  (586) 
nan

>  <Peripheral>  (586) 
nan

>  <Num_H_Atoms_ProtBoundConf>  (586) 
nan

>  <Num_Resolved_Atoms>  (586) 
nan

>  <Num_Not_Resolved_Atoms>  (586) 
nan

$$$$
CHEMBL3663046
     RDKit          3D

  0  0  0  0  0  0  0  0  0  0999 V3000
M  V30 BEGIN CTAB
M  V30 COUNTS 48 51 0 0 0
M  V30 BEGIN ATOM
M  V30 1 C 3.100100 -5.078898 -5.458795 0
M  V30 2 C 2.029229 -4.996769 -4.430696 0
M  V30 3 C 1.478438 -3.774780 -4.151007 0
M  V30 4 C 0.470144 -3.700019 -3.181075 0
M  V30 5 C -0.219654 -2.482950 -2.771097 0
M  V30 6 N -0.743278 -1.512767 -3.546504 0
M  V30 7 N -1.289467 -0.552739 -2.846395 0
M  V30 8 C -1.120176 -0.901992 -1.561283 0
M  V30 9 C -1.512501 -0.227584 -0.424125 0
M  V30 10 C -1.226356 -0.778866 0.806856 0
M  V30 11 N -1.520601 -0.278513 2.116776 0
M  V30 12 C -0.485499 0.555580 2.649218 0
M  V30 13 O 0.573580 0.815303 2.020194 0
M  V30 14 N -0.520711 1.180392 3.922737 0
M  V30 15 C 0.543251 2.015735 4.431737 0 CFG=2
M  V30 16 C 1.158502 1.461275 5.691636 0
M  V30 17 C 0.100827 3.433919 4.689822 0
M  V30 18 C -0.994508 3.646070 5.674886 0
M  V30 19 C -1.933737 3.954880 4.532022 0
M  V30 20 C -0.721434 4.100300 3.641089 0
M  V30 21 N -0.569412 -1.965753 0.880467 0
M  V30 22 C -0.171437 -2.652199 -0.192102 0
M  V30 23 C -0.450816 -2.111868 -1.442349 0
M  V30 24 C 0.140942 -4.901702 -2.605424 0
M  V30 25 C 0.718028 -6.124871 -2.911011 0
M  V30 26 N 1.685844 -6.145806 -3.852216 0
M  V30 27 H 3.138778 -4.189420 -6.121698 0
M  V30 28 H 2.925977 -5.959350 -6.100402 0
M  V30 29 H 4.108050 -5.176232 -5.011088 0
M  V30 30 H 1.758167 -2.836932 -4.621641 0
M  V30 31 H -1.758090 0.304252 -3.202836 0
M  V30 32 H -2.029345 0.702335 -0.355657 0
M  V30 33 H -2.358735 -0.426922 2.728988 0
M  V30 34 H -1.381666 1.017962 4.524767 0
M  V30 35 H 1.342143 2.057871 3.667517 0
M  V30 36 H 1.530422 2.297843 6.337544 0
M  V30 37 H 0.380347 0.963415 6.311189 0
M  V30 38 H 1.999380 0.790558 5.504080 0
M  V30 39 H 0.972927 4.087113 4.968508 0
M  V30 40 H -1.383214 2.763214 6.212904 0
M  V30 41 H -0.835014 4.465014 6.413734 0
M  V30 42 H -2.553124 3.100790 4.194760 0
M  V30 43 H -2.525892 4.883850 4.658495 0
M  V30 44 H -0.777876 3.477136 2.715468 0
M  V30 45 H -0.446280 5.139465 3.376844 0
M  V30 46 H 0.353044 -3.596872 -0.145307 0
M  V30 47 H -0.634211 -4.962059 -1.839309 0
M  V30 48 H 0.398938 -7.045623 -2.405493 0
M  V30 END ATOM
M  V30 BEGIN BOND
M  V30 1 1 1 2
M  V30 2 2 2 3
M  V30 3 1 3 4
M  V30 4 1 4 5
M  V30 5 2 5 6
M  V30 6 1 6 7
M  V30 7 1 7 8
M  V30 8 2 8 9
M  V30 9 1 9 10
M  V30 10 1 10 11
M  V30 11 1 11 12
M  V30 12 2 12 13
M  V30 13 1 12 14
M  V30 14 1 14 15
M  V30 15 1 15 16
M  V30 16 1 15 17
M  V30 17 1 17 18
M  V30 18 1 18 19
M  V30 19 1 19 20
M  V30 20 2 10 21
M  V30 21 1 21 22
M  V30 22 2 22 23
M  V30 23 2 4 24
M  V30 24 1 24 25
M  V30 25 2 25 26
M  V30 26 1 26 2
M  V30 27 1 23 5
M  V30 28 1 23 8
M  V30 29 1 20 17
M  V30 30 1 1 27
M  V30 31 1 1 28
M  V30 32 1 1 29
M  V30 33 1 3 30
M  V30 34 1 7 31
M  V30 35 1 9 32
M  V30 36 1 11 33
M  V30 37 1 14 34
M  V30 38 1 15 35 CFG=3
M  V30 39 1 16 36
M  V30 40 1 16 37
M  V30 41 1 16 38
M  V30 42 1 17 39
M  V30 43 1 18 40
M  V30 44 1 18 41
M  V30 45 1 19 42
M  V30 46 1 19 43
M  V30 47 1 20 44
M  V30 48 1 20 45
M  V30 49 1 22 46
M  V30 50 1 24 47
M  V30 51 1 25 48
M  V30 END BOND
M  V30 END CTAB
M  END
>  <Dataset>  (587) 
ChEMBL_Kinases

>  <Ligand_Instance>  (587) 
nan

>  <PDB_ID>  (587) 
nan

>  <Standardized_SMILES>  (587) 
Cc1cc(-c2n[nH]c3cc(NC(=O)N[C@H](C)C4CCC4)ncc23)ccn1

>  <Name>  (587) 
nan

>  <Pocket>  (587) 
nan

>  <ATP_Site>  (587) 
nan

>  <Peripheral>  (587) 
nan

>  <Num_H_Atoms_ProtBoundConf>  (587) 
nan

>  <Num_Resolved_Atoms>  (587) 
nan

>  <Num_Not_Resolved_Atoms>  (587) 
nan

$$$$
CHEMBL3663047
     RDKit          3D

  0  0  0  0  0  0  0  0  0  0999 V3000
M  V30 BEGIN CTAB
M  V30 COUNTS 47 50 0 0 0
M  V30 BEGIN ATOM
M  V30 1 C -5.615883 -6.095352 3.034582 0
M  V30 2 C -5.499846 -4.873787 2.219127 0
M  V30 3 C -4.330930 -4.529786 1.567892 0
M  V30 4 C -4.271369 -3.364944 0.806784 0
M  V30 5 C -2.967538 -3.152782 0.187989 0
M  V30 6 N -2.263783 -4.124820 -0.443807 0
M  V30 7 N -1.122775 -3.622683 -0.897615 0
M  V30 8 C -1.009554 -2.302791 -0.594026 0
M  V30 9 C -0.045514 -1.340452 -0.830089 0
M  V30 10 C -0.337759 -0.082906 -0.334024 0
M  V30 11 N 0.662662 0.915589 -0.576149 0
M  V30 12 C 1.612685 0.969218 0.488484 0
M  V30 13 O 1.629810 0.253320 1.547215 0
M  V30 14 N 2.685512 1.889058 0.445138 0
M  V30 15 C 3.745339 2.103339 1.412559 0 CFG=2
M  V30 16 C 3.805327 3.576299 1.751800 0
M  V30 17 C 5.255843 3.878012 1.904917 0
M  V30 18 N 5.931374 2.933920 1.073779 0
M  V30 19 C 6.591155 3.607506 -0.006121 0
M  V30 20 C 5.062936 1.871251 0.703470 0
M  V30 21 N -1.477490 0.190330 0.331604 0
M  V30 22 C -2.429010 -0.753410 0.566383 0
M  V30 23 C -2.179569 -2.025110 0.088737 0
M  V30 24 C -5.384186 -2.556384 0.706227 0
M  V30 25 C -6.544896 -2.945527 1.383073 0
M  V30 26 N -6.569198 -4.071281 2.106176 0
M  V30 27 H -4.716554 -6.735520 2.974832 0
M  V30 28 H -6.517871 -6.646552 2.679088 0
M  V30 29 H -5.762772 -5.825823 4.103069 0
M  V30 30 H -3.508562 -5.226201 1.704982 0
M  V30 31 H -0.361766 -4.113911 -1.428030 0
M  V30 32 H 0.854248 -1.602897 -1.367938 0
M  V30 33 H 0.732528 1.553453 -1.415965 0
M  V30 34 H 2.771530 2.537145 -0.393003 0
M  V30 35 H 3.660540 1.445705 2.295976 0
M  V30 36 H 3.368603 4.176292 0.929671 0
M  V30 37 H 3.229469 3.697466 2.699908 0
M  V30 38 H 5.592788 3.824174 2.963279 0
M  V30 39 H 5.465527 4.914627 1.550856 0
M  V30 40 H 5.909042 4.216018 -0.607698 0
M  V30 41 H 7.334977 4.314331 0.445908 0
M  V30 42 H 7.179910 2.877953 -0.618331 0
M  V30 43 H 5.481880 0.858008 0.900730 0
M  V30 44 H 4.928181 1.897642 -0.413861 0
M  V30 45 H -3.337741 -0.505723 1.105212 0
M  V30 46 H -5.250496 -1.672049 0.095892 0
M  V30 47 H -7.396722 -2.274234 1.272913 0
M  V30 END ATOM
M  V30 BEGIN BOND
M  V30 1 1 1 2
M  V30 2 2 2 3
M  V30 3 1 3 4
M  V30 4 1 4 5
M  V30 5 2 5 6
M  V30 6 1 6 7
M  V30 7 1 7 8
M  V30 8 2 8 9
M  V30 9 1 9 10
M  V30 10 1 10 11
M  V30 11 1 11 12
M  V30 12 2 12 13
M  V30 13 1 12 14
M  V30 14 1 14 15
M  V30 15 1 15 16
M  V30 16 1 16 17
M  V30 17 1 17 18
M  V30 18 1 18 19
M  V30 19 1 18 20
M  V30 20 2 10 21
M  V30 21 1 21 22
M  V30 22 2 22 23
M  V30 23 2 4 24
M  V30 24 1 24 25
M  V30 25 2 25 26
M  V30 26 1 26 2
M  V30 27 1 23 5
M  V30 28 1 23 8
M  V30 29 1 20 15
M  V30 30 1 1 27
M  V30 31 1 1 28
M  V30 32 1 1 29
M  V30 33 1 3 30
M  V30 34 1 7 31
M  V30 35 1 9 32
M  V30 36 1 11 33
M  V30 37 1 14 34
M  V30 38 1 15 35 CFG=1
M  V30 39 1 16 36
M  V30 40 1 16 37
M  V30 41 1 17 38
M  V30 42 1 17 39
M  V30 43 1 19 40
M  V30 44 1 19 41
M  V30 45 1 19 42
M  V30 46 1 20 43
M  V30 47 1 20 44
M  V30 48 1 22 45
M  V30 49 1 24 46
M  V30 50 1 25 47
M  V30 END BOND
M  V30 END CTAB
M  END
>  <Dataset>  (588) 
ChEMBL_Kinases

>  <Ligand_Instance>  (588) 
nan

>  <PDB_ID>  (588) 
nan

>  <Standardized_SMILES>  (588) 
Cc1cc(-c2n[nH]c3cc(NC(=O)N[C@@H]4CCN(C)C4)ncc23)ccn1

>  <Name>  (588) 
nan

>  <Pocket>  (588) 
nan

>  <ATP_Site>  (588) 
nan

>  <Peripheral>  (588) 
nan

>  <Num_H_Atoms_ProtBoundConf>  (588) 
nan

>  <Num_Resolved_Atoms>  (588) 
nan

>  <Num_Not_Resolved_Atoms>  (588) 
nan

$$$$
CHEMBL3663039
     RDKit          3D

  0  0  0  0  0  0  0  0  0  0999 V3000
M  V30 BEGIN CTAB
M  V30 COUNTS 44 47 0 0 0
M  V30 BEGIN ATOM
M  V30 1 C -2.745835 -7.216965 0.991844 0
M  V30 2 C -2.983183 -5.919227 0.316832 0
M  V30 3 C -1.938998 -5.076600 -0.050142 0
M  V30 4 C -2.192842 -3.862866 -0.683341 0
M  V30 5 C -0.975040 -3.122598 -0.987863 0
M  V30 6 N 0.130465 -3.654808 -1.524116 0
M  V30 7 N 1.069881 -2.727238 -1.682072 0
M  V30 8 C 0.538866 -1.578361 -1.231751 0
M  V30 9 C 1.050894 -0.297815 -1.150618 0
M  V30 10 C 0.281633 0.729470 -0.635706 0
M  V30 11 N 0.702630 2.082744 -0.504143 0
M  V30 12 C 1.344087 2.549465 0.671727 0
M  V30 13 O 1.507410 1.705196 1.560062 0
M  V30 14 N 1.779140 3.865028 0.858326 0
M  V30 15 C 2.436014 4.461227 1.989589 0
M  V30 16 C 3.749078 3.860855 2.361517 0
M  V30 17 C 4.337157 4.604183 3.576118 0
M  V30 18 N 4.717826 3.335241 4.176318 0
M  V30 19 C 3.717280 2.688132 3.325407 0
M  V30 20 N -0.979560 0.484048 -0.207898 0
M  V30 21 C -1.529550 -0.747708 -0.264033 0
M  V30 22 C -0.758950 -1.770731 -0.778536 0
M  V30 23 C -3.483687 -3.463276 -0.963647 0
M  V30 24 C -4.490761 -4.326116 -0.584174 0
M  V30 25 N -4.234268 -5.496348 0.027032 0
M  V30 26 H -3.692922 -7.804694 0.918763 0
M  V30 27 H -1.985483 -7.782110 0.388339 0
M  V30 28 H -2.398184 -7.102222 2.023975 0
M  V30 29 H -0.958848 -5.460054 0.203454 0
M  V30 30 H 2.047427 -2.817379 -2.074160 0
M  V30 31 H 2.053487 -0.043273 -1.477880 0
M  V30 32 H 0.537832 2.753209 -1.289547 0
M  V30 33 H 1.573049 4.480463 0.012080 0
M  V30 34 H 1.744857 4.272141 2.866817 0
M  V30 35 H 2.488731 5.542899 1.865916 0
M  V30 36 H 4.471257 3.749250 1.531038 0
M  V30 37 H 3.559918 5.084954 4.201492 0
M  V30 38 H 5.178336 5.275933 3.317972 0
M  V30 39 H 4.492316 3.250701 5.188245 0
M  V30 40 H 2.737592 2.549345 3.838613 0
M  V30 41 H 4.134125 1.735476 2.950126 0
M  V30 42 H -2.541909 -0.959483 0.076184 0
M  V30 43 H -3.592387 -2.508278 -1.456446 0
M  V30 44 H -5.500995 -3.992627 -0.814124 0
M  V30 END ATOM
M  V30 BEGIN BOND
M  V30 1 1 1 2
M  V30 2 2 2 3
M  V30 3 1 3 4
M  V30 4 1 4 5
M  V30 5 2 5 6
M  V30 6 1 6 7
M  V30 7 1 7 8
M  V30 8 2 8 9
M  V30 9 1 9 10
M  V30 10 1 10 11
M  V30 11 1 11 12
M  V30 12 2 12 13
M  V30 13 1 12 14
M  V30 14 1 14 15
M  V30 15 1 15 16
M  V30 16 1 16 17
M  V30 17 1 17 18
M  V30 18 1 18 19
M  V30 19 2 10 20
M  V30 20 1 20 21
M  V30 21 2 21 22
M  V30 22 2 4 23
M  V30 23 1 23 24
M  V30 24 2 24 25
M  V30 25 1 25 2
M  V30 26 1 22 5
M  V30 27 1 22 8
M  V30 28 1 19 16
M  V30 29 1 1 26
M  V30 30 1 1 27
M  V30 31 1 1 28
M  V30 32 1 3 29
M  V30 33 1 7 30
M  V30 34 1 9 31
M  V30 35 1 11 32
M  V30 36 1 14 33
M  V30 37 1 15 34
M  V30 38 1 15 35
M  V30 39 1 16 36
M  V30 40 1 17 37
M  V30 41 1 17 38
M  V30 42 1 18 39
M  V30 43 1 19 40
M  V30 44 1 19 41
M  V30 45 1 21 42
M  V30 46 1 23 43
M  V30 47 1 24 44
M  V30 END BOND
M  V30 END CTAB
M  END
>  <Dataset>  (589) 
ChEMBL_Kinases

>  <Ligand_Instance>  (589) 
nan

>  <PDB_ID>  (589) 
nan

>  <Standardized_SMILES>  (589) 
Cc1cc(-c2n[nH]c3cc(NC(=O)NCC4CNC4)ncc23)ccn1

>  <Name>  (589) 
nan

>  <Pocket>  (589) 
nan

>  <ATP_Site>  (589) 
nan

>  <Peripheral>  (589) 
nan

>  <Num_H_Atoms_ProtBoundConf>  (589) 
nan

>  <Num_Resolved_Atoms>  (589) 
nan

>  <Num_Not_Resolved_Atoms>  (589) 
nan

$$$$
CHEMBL3661240
     RDKit          3D

  0  0  0  0  0  0  0  0  0  0999 V3000
M  V30 BEGIN CTAB
M  V30 COUNTS 44 47 0 0 0
M  V30 BEGIN ATOM
M  V30 1 C -2.203458 -3.294790 2.321347 0
M  V30 2 O -1.719071 -4.000305 1.230717 0
M  V30 3 C -0.587365 -3.705788 0.513206 0
M  V30 4 C 0.291532 -2.647125 0.743206 0
M  V30 5 C 1.379998 -2.508771 -0.083892 0
M  V30 6 C 2.320352 -1.414247 0.124097 0
M  V30 7 C 3.661241 -1.506542 -0.185279 0
M  V30 8 C 4.513589 -0.414880 0.031414 0
M  V30 9 C 3.950280 0.724509 0.556978 0
M  V30 10 N 4.741448 1.784409 0.761127 0
M  V30 11 C 4.317063 2.954022 1.257744 0
M  V30 12 N 3.026039 3.045345 1.560599 0
M  V30 13 C 2.137920 2.053374 1.400116 0
M  V30 14 N 0.798599 2.212513 1.743067 0
M  V30 15 C -0.549892 2.454451 1.402643 0
M  V30 16 C -1.418599 1.422537 1.789029 0
M  V30 17 C -2.772572 1.464192 1.544783 0
M  V30 18 O -3.679956 0.477380 1.904680 0
M  V30 19 C -3.185235 2.600828 0.893808 0
M  V30 20 Cl -4.892279 2.752883 0.537321 0
M  V30 21 C -2.411070 3.655779 0.480131 0
M  V30 22 C -1.052233 3.553693 0.755818 0
M  V30 23 Cl 0.087516 4.802812 0.298259 0
M  V30 24 C 2.619014 0.870642 0.885068 0
M  V30 25 C 1.825232 -0.220874 0.656486 0
M  V30 26 C 1.644238 -3.383454 -1.146301 0
M  V30 27 C 0.774331 -4.441443 -1.383645 0
M  V30 28 C -0.329769 -4.579921 -0.542355 0
M  V30 29 O -1.129874 -5.663157 -0.866307 0
M  V30 30 H -1.418045 -2.617476 2.717521 0
M  V30 31 H -3.110585 -2.679866 2.049952 0
M  V30 32 H -2.535897 -3.940617 3.153651 0
M  V30 33 H 0.084430 -1.974413 1.561248 0
M  V30 34 H 4.046764 -2.445257 -0.600058 0
M  V30 35 H 5.570253 -0.479328 -0.209277 0
M  V30 36 H 5.016266 3.792074 1.403037 0
M  V30 37 H 0.903341 2.082666 2.784230 0
M  V30 38 H -1.054988 0.526057 2.311891 0
M  V30 39 H -3.918195 -0.315672 1.317202 0
M  V30 40 H -2.806513 4.529507 -0.031171 0
M  V30 41 H 0.778742 -0.160533 0.895642 0
M  V30 42 H 2.505350 -3.272501 -1.806041 0
M  V30 43 H 0.978200 -5.122509 -2.210225 0
M  V30 44 H -1.798257 -5.641022 -1.643880 0
M  V30 END ATOM
M  V30 BEGIN BOND
M  V30 1 1 1 2
M  V30 2 1 2 3
M  V30 3 2 3 4
M  V30 4 1 4 5
M  V30 5 1 5 6
M  V30 6 2 6 7
M  V30 7 1 7 8
M  V30 8 2 8 9
M  V30 9 1 9 10
M  V30 10 2 10 11
M  V30 11 1 11 12
M  V30 12 2 12 13
M  V30 13 1 13 14
M  V30 14 1 14 15
M  V30 15 2 15 16
M  V30 16 1 16 17
M  V30 17 1 17 18
M  V30 18 2 17 19
M  V30 19 1 19 20
M  V30 20 1 19 21
M  V30 21 2 21 22
M  V30 22 1 22 23
M  V30 23 1 13 24
M  V30 24 2 24 25
M  V30 25 2 5 26
M  V30 26 1 26 27
M  V30 27 2 27 28
M  V30 28 1 28 29
M  V30 29 1 28 3
M  V30 30 1 25 6
M  V30 31 1 24 9
M  V30 32 1 22 15
M  V30 33 1 1 30
M  V30 34 1 1 31
M  V30 35 1 1 32
M  V30 36 1 4 33
M  V30 37 1 7 34
M  V30 38 1 8 35
M  V30 39 1 11 36
M  V30 40 1 14 37
M  V30 41 1 16 38
M  V30 42 1 18 39
M  V30 43 1 21 40
M  V30 44 1 25 41
M  V30 45 1 26 42
M  V30 46 1 27 43
M  V30 47 1 29 44
M  V30 END BOND
M  V30 END CTAB
M  END
>  <Dataset>  (590) 
ChEMBL_Kinases

>  <Ligand_Instance>  (590) 
nan

>  <PDB_ID>  (590) 
nan

>  <Standardized_SMILES>  (590) 
COc1cc(-c2ccc3ncnc(Nc4cc(O)c(Cl)cc4Cl)c3c2)ccc1O

>  <Name>  (590) 
nan

>  <Pocket>  (590) 
nan

>  <ATP_Site>  (590) 
nan

>  <Peripheral>  (590) 
nan

>  <Num_H_Atoms_ProtBoundConf>  (590) 
nan

>  <Num_Resolved_Atoms>  (590) 
nan

>  <Num_Not_Resolved_Atoms>  (590) 
nan

$$$$
CHEMBL3661239
     RDKit          3D

  0  0  0  0  0  0  0  0  0  0999 V3000
M  V30 BEGIN CTAB
M  V30 COUNTS 44 47 0 0 0
M  V30 BEGIN ATOM
M  V30 1 C -2.662900 -2.185668 1.856596 0
M  V30 2 O -2.384549 -3.397987 1.210436 0
M  V30 3 C -1.355396 -3.536789 0.296928 0
M  V30 4 C -0.505344 -2.496205 -0.063928 0
M  V30 5 C 0.523040 -2.635574 -0.976877 0
M  V30 6 C 1.356715 -1.478503 -1.282901 0
M  V30 7 C 1.964037 -1.237195 -2.499465 0
M  V30 8 C 2.744536 -0.101486 -2.687793 0
M  V30 9 C 2.933345 0.819805 -1.655797 0
M  V30 10 N 3.678346 1.923800 -1.786320 0
M  V30 11 C 3.834161 2.779701 -0.761311 0
M  V30 12 N 3.256082 2.585006 0.453434 0
M  V30 13 C 2.487182 1.485014 0.654058 0
M  V30 14 N 1.845346 1.172319 1.858586 0
M  V30 15 C 0.866051 1.732821 2.710007 0
M  V30 16 C 1.188058 2.017513 4.034459 0
M  V30 17 C 0.240517 2.569429 4.867308 0
M  V30 18 C -1.049276 2.852382 4.408168 0
M  V30 19 C -1.366195 2.564975 3.080878 0
M  V30 20 O -2.670570 2.878685 2.710129 0
M  V30 21 C -0.405776 2.013538 2.263232 0
M  V30 22 Cl -0.909532 1.702320 0.631358 0
M  V30 23 C 2.340228 0.610257 -0.424994 0
M  V30 24 C 1.576381 -0.543966 -0.311993 0
M  V30 25 C 0.710075 -3.887536 -1.561340 0
M  V30 26 C -0.120498 -4.962177 -1.228322 0
M  V30 27 C -1.149609 -4.777707 -0.299129 0
M  V30 28 O -1.952672 -5.895786 -0.003738 0
M  V30 29 H -1.752570 -1.707193 2.219520 0
M  V30 30 H -3.341988 -2.428692 2.724157 0
M  V30 31 H -3.202838 -1.532320 1.140632 0
M  V30 32 H -0.734764 -1.575507 0.444361 0
M  V30 33 H 1.805996 -1.965186 -3.289797 0
M  V30 34 H 3.215919 0.077282 -3.648893 0
M  V30 35 H 4.427863 3.678805 -0.835040 0
M  V30 36 H 2.187061 0.262358 2.239928 0
M  V30 37 H 2.177810 1.803447 4.398633 0
M  V30 38 H 0.518080 2.783673 5.905082 0
M  V30 39 H -1.760140 3.283573 5.090436 0
M  V30 40 H -2.986640 2.430666 1.846217 0
M  V30 41 H 1.114157 -0.698263 0.659981 0
M  V30 42 H 1.524010 -4.002849 -2.284782 0
M  V30 43 H 0.043647 -5.935735 -1.698444 0
M  V30 44 H -2.849502 -5.715861 0.473927 0
M  V30 END ATOM
M  V30 BEGIN BOND
M  V30 1 1 1 2
M  V30 2 1 2 3
M  V30 3 2 3 4
M  V30 4 1 4 5
M  V30 5 1 5 6
M  V30 6 2 6 7
M  V30 7 1 7 8
M  V30 8 2 8 9
M  V30 9 1 9 10
M  V30 10 2 10 11
M  V30 11 1 11 12
M  V30 12 2 12 13
M  V30 13 1 13 14
M  V30 14 1 14 15
M  V30 15 2 15 16
M  V30 16 1 16 17
M  V30 17 2 17 18
M  V30 18 1 18 19
M  V30 19 1 19 20
M  V30 20 2 19 21
M  V30 21 1 21 22
M  V30 22 1 13 23
M  V30 23 2 23 24
M  V30 24 2 5 25
M  V30 25 1 25 26
M  V30 26 2 26 27
M  V30 27 1 27 28
M  V30 28 1 27 3
M  V30 29 1 24 6
M  V30 30 1 23 9
M  V30 31 1 21 15
M  V30 32 1 1 29
M  V30 33 1 1 30
M  V30 34 1 1 31
M  V30 35 1 4 32
M  V30 36 1 7 33
M  V30 37 1 8 34
M  V30 38 1 11 35
M  V30 39 1 14 36
M  V30 40 1 16 37
M  V30 41 1 17 38
M  V30 42 1 18 39
M  V30 43 1 20 40
M  V30 44 1 24 41
M  V30 45 1 25 42
M  V30 46 1 26 43
M  V30 47 1 28 44
M  V30 END BOND
M  V30 END CTAB
M  END
>  <Dataset>  (591) 
ChEMBL_Kinases

>  <Ligand_Instance>  (591) 
nan

>  <PDB_ID>  (591) 
nan

>  <Standardized_SMILES>  (591) 
COc1cc(-c2ccc3ncnc(Nc4cccc(O)c4Cl)c3c2)ccc1O

>  <Name>  (591) 
nan

>  <Pocket>  (591) 
nan

>  <ATP_Site>  (591) 
nan

>  <Peripheral>  (591) 
nan

>  <Num_H_Atoms_ProtBoundConf>  (591) 
nan

>  <Num_Resolved_Atoms>  (591) 
nan

>  <Num_Not_Resolved_Atoms>  (591) 
nan

$$$$
CHEMBL3661238
     RDKit          3D

  0  0  0  0  0  0  0  0  0  0999 V3000
M  V30 BEGIN CTAB
M  V30 COUNTS 44 47 0 0 0
M  V30 BEGIN ATOM
M  V30 1 C -1.711563 -2.885284 2.680075 0
M  V30 2 O -1.706384 -3.646540 1.502377 0
M  V30 3 C -0.849362 -3.437813 0.446492 0
M  V30 4 C 0.082416 -2.422644 0.508295 0
M  V30 5 C 0.938938 -2.212632 -0.544934 0
M  V30 6 C 1.936626 -1.153055 -0.531043 0
M  V30 7 C 3.126484 -1.337441 -1.203740 0
M  V30 8 C 4.116734 -0.369430 -1.234512 0
M  V30 9 C 3.804685 0.777766 -0.540146 0
M  V30 10 N 4.699114 1.773729 -0.494700 0
M  V30 11 C 4.480019 2.916630 0.166353 0
M  V30 12 N 3.339995 3.130405 0.826357 0
M  V30 13 C 2.374681 2.177322 0.835368 0
M  V30 14 N 1.193900 2.455482 1.548877 0
M  V30 15 C -0.132987 2.071112 1.829100 0
M  V30 16 C -0.583547 1.658320 3.089059 0
M  V30 17 C -1.895858 1.317893 3.307354 0
M  V30 18 O -2.292875 0.914599 4.573030 0
M  V30 19 C -2.742062 1.402692 2.230985 0
M  V30 20 C -2.429385 1.791599 0.949103 0
M  V30 21 C -1.098498 2.116168 0.810306 0
M  V30 22 Cl -0.544884 2.636476 -0.785069 0
M  V30 23 C 2.644087 1.020194 0.144838 0
M  V30 24 C 1.708477 0.011002 0.130354 0
M  V30 25 C 0.886915 -3.014122 -1.691070 0
M  V30 26 C -0.065961 -4.035469 -1.728501 0
M  V30 27 C -0.929919 -4.248446 -0.668363 0
M  V30 28 O -1.896599 -5.255662 -0.663190 0
M  V30 29 H -0.713374 -2.861809 3.136430 0
M  V30 30 H -2.397791 -3.372186 3.422111 0
M  V30 31 H -2.129499 -1.873639 2.473493 0
M  V30 32 H 0.166450 -1.783307 1.355432 0
M  V30 33 H 3.295621 -2.278664 -1.732013 0
M  V30 34 H 5.058996 -0.489181 -1.754237 0
M  V30 35 H 5.216310 3.719012 0.195711 0
M  V30 36 H 1.209342 3.315101 2.175937 0
M  V30 37 H 0.161534 1.624078 3.877437 0
M  V30 38 H -3.255548 0.696172 4.791729 0
M  V30 39 H -3.772785 1.122535 2.448115 0
M  V30 40 H -3.117932 1.844996 0.134545 0
M  V30 41 H 0.779886 0.110481 0.653822 0
M  V30 42 H 1.530124 -2.900761 -2.549814 0
M  V30 43 H -0.199328 -4.726191 -2.575172 0
M  V30 44 H -2.887304 -4.970308 -0.668992 0
M  V30 END ATOM
M  V30 BEGIN BOND
M  V30 1 1 1 2
M  V30 2 1 2 3
M  V30 3 2 3 4
M  V30 4 1 4 5
M  V30 5 1 5 6
M  V30 6 2 6 7
M  V30 7 1 7 8
M  V30 8 2 8 9
M  V30 9 1 9 10
M  V30 10 2 10 11
M  V30 11 1 11 12
M  V30 12 2 12 13
M  V30 13 1 13 14
M  V30 14 1 14 15
M  V30 15 2 15 16
M  V30 16 1 16 17
M  V30 17 1 17 18
M  V30 18 2 17 19
M  V30 19 1 19 20
M  V30 20 2 20 21
M  V30 21 1 21 22
M  V30 22 1 13 23
M  V30 23 2 23 24
M  V30 24 2 5 25
M  V30 25 1 25 26
M  V30 26 2 26 27
M  V30 27 1 27 28
M  V30 28 1 27 3
M  V30 29 1 24 6
M  V30 30 1 23 9
M  V30 31 1 21 15
M  V30 32 1 1 29
M  V30 33 1 1 30
M  V30 34 1 1 31
M  V30 35 1 4 32
M  V30 36 1 7 33
M  V30 37 1 8 34
M  V30 38 1 11 35
M  V30 39 1 14 36
M  V30 40 1 16 37
M  V30 41 1 18 38
M  V30 42 1 19 39
M  V30 43 1 20 40
M  V30 44 1 24 41
M  V30 45 1 25 42
M  V30 46 1 26 43
M  V30 47 1 28 44
M  V30 END BOND
M  V30 END CTAB
M  END
>  <Dataset>  (592) 
ChEMBL_Kinases

>  <Ligand_Instance>  (592) 
nan

>  <PDB_ID>  (592) 
nan

>  <Standardized_SMILES>  (592) 
COc1cc(-c2ccc3ncnc(Nc4cc(O)ccc4Cl)c3c2)ccc1O

>  <Name>  (592) 
nan

>  <Pocket>  (592) 
nan

>  <ATP_Site>  (592) 
nan

>  <Peripheral>  (592) 
nan

>  <Num_H_Atoms_ProtBoundConf>  (592) 
nan

>  <Num_Resolved_Atoms>  (592) 
nan

>  <Num_Not_Resolved_Atoms>  (592) 
nan

$$$$
CHEMBL3661237
     RDKit          3D

  0  0  0  0  0  0  0  0  0  0999 V3000
M  V30 BEGIN CTAB
M  V30 COUNTS 44 47 0 0 0
M  V30 BEGIN ATOM
M  V30 1 C -2.109040 -2.828119 2.976374 0
M  V30 2 O -1.843249 -3.786839 1.950999 0
M  V30 3 C -1.072427 -3.517333 0.841936 0
M  V30 4 C -0.386452 -2.413945 0.389308 0
M  V30 5 C 0.306110 -2.474673 -0.792646 0
M  V30 6 C 1.003803 -1.230617 -1.152663 0
M  V30 7 C 1.104290 -1.004259 -2.508891 0
M  V30 8 C 1.757191 0.152603 -2.879175 0
M  V30 9 C 2.282768 1.038453 -1.961841 0
M  V30 10 N 2.923701 2.176028 -2.282222 0
M  V30 11 C 3.410145 2.995748 -1.327286 0
M  V30 12 N 3.268638 2.700313 -0.026154 0
M  V30 13 C 2.628869 1.561671 0.375617 0
M  V30 14 N 2.559687 1.402014 1.784432 0
M  V30 15 C 1.305280 1.811751 2.344100 0
M  V30 16 C 0.455601 0.979567 3.081938 0
M  V30 17 C -0.724941 1.447937 3.563464 0
M  V30 18 O -1.498416 0.535346 4.287317 0
M  V30 19 C -1.146566 2.757761 3.353177 0
M  V30 20 C -0.321260 3.586833 2.629920 0
M  V30 21 C 0.881598 3.108877 2.139876 0
M  V30 22 F 1.570857 4.040844 1.455942 0
M  V30 23 C 2.147103 0.750565 -0.628765 0
M  V30 24 C 1.508475 -0.384472 -0.178897 0
M  V30 25 C 0.372543 -3.594069 -1.594290 0
M  V30 26 C -0.321833 -4.719658 -1.141887 0
M  V30 27 C -1.033573 -4.678811 0.061080 0
M  V30 28 O -1.629107 -5.912022 0.287192 0
M  V30 29 H -1.182049 -2.274954 3.122219 0
M  V30 30 H -2.323750 -3.392633 3.924071 0
M  V30 31 H -2.984337 -2.205269 2.761706 0
M  V30 32 H -0.503175 -1.600349 1.085936 0
M  V30 33 H 0.716012 -1.654210 -3.279382 0
M  V30 34 H 1.867284 0.387637 -3.949401 0
M  V30 35 H 3.922479 3.910382 -1.619837 0
M  V30 36 H 3.335798 1.023961 2.400619 0
M  V30 37 H 0.800753 -0.049085 3.241348 0
M  V30 38 H -2.456239 0.734883 4.537065 0
M  V30 39 H -2.114380 3.075992 3.767882 0
M  V30 40 H -0.705467 4.593271 2.497427 0
M  V30 41 H 1.398803 -0.619584 0.867136 0
M  V30 42 H 0.948529 -3.528510 -2.507895 0
M  V30 43 H -0.228138 -5.566387 -1.816465 0
M  V30 44 H -2.494031 -6.007459 0.797204 0
M  V30 END ATOM
M  V30 BEGIN BOND
M  V30 1 1 1 2
M  V30 2 1 2 3
M  V30 3 2 3 4
M  V30 4 1 4 5
M  V30 5 1 5 6
M  V30 6 2 6 7
M  V30 7 1 7 8
M  V30 8 2 8 9
M  V30 9 1 9 10
M  V30 10 2 10 11
M  V30 11 1 11 12
M  V30 12 2 12 13
M  V30 13 1 13 14
M  V30 14 1 14 15
M  V30 15 2 15 16
M  V30 16 1 16 17
M  V30 17 1 17 18
M  V30 18 2 17 19
M  V30 19 1 19 20
M  V30 20 2 20 21
M  V30 21 1 21 22
M  V30 22 1 13 23
M  V30 23 2 23 24
M  V30 24 2 5 25
M  V30 25 1 25 26
M  V30 26 2 26 27
M  V30 27 1 27 28
M  V30 28 1 27 3
M  V30 29 1 24 6
M  V30 30 1 23 9
M  V30 31 1 21 15
M  V30 32 1 1 29
M  V30 33 1 1 30
M  V30 34 1 1 31
M  V30 35 1 4 32
M  V30 36 1 7 33
M  V30 37 1 8 34
M  V30 38 1 11 35
M  V30 39 1 14 36
M  V30 40 1 16 37
M  V30 41 1 18 38
M  V30 42 1 19 39
M  V30 43 1 20 40
M  V30 44 1 24 41
M  V30 45 1 25 42
M  V30 46 1 26 43
M  V30 47 1 28 44
M  V30 END BOND
M  V30 END CTAB
M  END
>  <Dataset>  (593) 
ChEMBL_Kinases

>  <Ligand_Instance>  (593) 
nan

>  <PDB_ID>  (593) 
nan

>  <Standardized_SMILES>  (593) 
COc1cc(-c2ccc3ncnc(Nc4cc(O)ccc4F)c3c2)ccc1O

>  <Name>  (593) 
nan

>  <Pocket>  (593) 
nan

>  <ATP_Site>  (593) 
nan

>  <Peripheral>  (593) 
nan

>  <Num_H_Atoms_ProtBoundConf>  (593) 
nan

>  <Num_Resolved_Atoms>  (593) 
nan

>  <Num_Not_Resolved_Atoms>  (593) 
nan

$$$$
CHEMBL3661236
     RDKit          3D

  0  0  0  0  0  0  0  0  0  0999 V3000
M  V30 BEGIN CTAB
M  V30 COUNTS 51 54 0 0 0
M  V30 BEGIN ATOM
M  V30 1 C 0.167918 -4.039076 2.137480 0
M  V30 2 O 1.016842 -4.782994 1.274308 0
M  V30 3 C 1.565666 -4.119712 0.171799 0
M  V30 4 C 1.344189 -2.793876 -0.140643 0
M  V30 5 C 1.943511 -2.230237 -1.268310 0
M  V30 6 C 1.680246 -0.821324 -1.555400 0
M  V30 7 C 1.637202 -0.273472 -2.830629 0
M  V30 8 C 1.382488 1.077182 -2.991688 0
M  V30 9 C 1.164554 1.921017 -1.911445 0
M  V30 10 N 0.921157 3.230118 -2.092293 0
M  V30 11 C 0.723200 3.978392 -0.992203 0
M  V30 12 N 0.752574 3.500708 0.286279 0
M  V30 13 C 0.994083 2.192226 0.499927 0
M  V30 14 N 1.056837 1.580124 1.750683 0
M  V30 15 C 0.165137 0.992293 2.653608 0
M  V30 16 C 0.680516 0.416972 3.795620 0
M  V30 17 C -0.175033 -0.162706 4.700921 0
M  V30 18 C -1.506901 -0.150690 4.441322 0
M  V30 19 C -2.117660 0.408027 3.312639 0
M  V30 20 N -3.499988 0.394327 3.093001 0
M  V30 21 S -4.440309 0.038808 1.720952 0
M  V30 22 C -4.036379 1.204630 0.439784 0
M  V30 23 O -4.282593 -1.373158 1.246719 0
M  V30 24 O -5.881767 0.222830 2.062990 0
M  V30 25 C -1.197618 0.968061 2.454323 0
M  V30 26 C 1.200162 1.405904 -0.615866 0
M  V30 27 C 1.457921 0.055189 -0.517907 0
M  V30 28 C 2.754181 -3.026563 -2.052680 0
M  V30 29 C 2.998742 -4.359176 -1.770003 0
M  V30 30 C 2.382514 -4.868505 -0.643836 0
M  V30 31 O 2.639905 -6.221412 -0.369715 0
M  V30 32 H -0.563986 -3.422974 1.541653 0
M  V30 33 H -0.444300 -4.738867 2.765025 0
M  V30 34 H 0.712836 -3.323532 2.774952 0
M  V30 35 H 0.706774 -2.221705 0.501691 0
M  V30 36 H 1.806603 -0.930856 -3.662357 0
M  V30 37 H 1.348626 1.507685 -3.995565 0
M  V30 38 H 0.517119 5.057007 -1.023602 0
M  V30 39 H 2.078268 1.652197 1.926421 0
M  V30 40 H 1.746473 0.428296 3.965584 0
M  V30 41 H 0.212671 -0.614624 5.595383 0
M  V30 42 H -2.154041 -0.626477 5.194270 0
M  V30 43 H -3.962997 0.673037 4.011516 0
M  V30 44 H -3.708962 2.162613 0.896511 0
M  V30 45 H -3.249246 0.851027 -0.223387 0
M  V30 46 H -4.947224 1.333867 -0.183461 0
M  V30 47 H -1.528100 1.436599 1.538284 0
M  V30 48 H 1.484156 -0.336037 0.486489 0
M  V30 49 H 3.225614 -2.578540 -2.941736 0
M  V30 50 H 3.649508 -4.957359 -2.419761 0
M  V30 51 H 1.826615 -6.841973 -0.312984 0
M  V30 END ATOM
M  V30 BEGIN BOND
M  V30 1 1 1 2
M  V30 2 1 2 3
M  V30 3 2 3 4
M  V30 4 1 4 5
M  V30 5 1 5 6
M  V30 6 2 6 7
M  V30 7 1 7 8
M  V30 8 2 8 9
M  V30 9 1 9 10
M  V30 10 2 10 11
M  V30 11 1 11 12
M  V30 12 2 12 13
M  V30 13 1 13 14
M  V30 14 1 14 15
M  V30 15 2 15 16
M  V30 16 1 16 17
M  V30 17 2 17 18
M  V30 18 1 18 19
M  V30 19 1 19 20
M  V30 20 1 20 21
M  V30 21 1 21 22
M  V30 22 2 21 23
M  V30 23 2 21 24
M  V30 24 2 19 25
M  V30 25 1 13 26
M  V30 26 2 26 27
M  V30 27 2 5 28
M  V30 28 1 28 29
M  V30 29 2 29 30
M  V30 30 1 30 31
M  V30 31 1 30 3
M  V30 32 1 27 6
M  V30 33 1 26 9
M  V30 34 1 25 15
M  V30 35 1 1 32
M  V30 36 1 1 33
M  V30 37 1 1 34
M  V30 38 1 4 35
M  V30 39 1 7 36
M  V30 40 1 8 37
M  V30 41 1 11 38
M  V30 42 1 14 39
M  V30 43 1 16 40
M  V30 44 1 17 41
M  V30 45 1 18 42
M  V30 46 1 20 43
M  V30 47 1 22 44
M  V30 48 1 22 45
M  V30 49 1 22 46
M  V30 50 1 25 47
M  V30 51 1 27 48
M  V30 52 1 28 49
M  V30 53 1 29 50
M  V30 54 1 31 51
M  V30 END BOND
M  V30 END CTAB
M  END
>  <Dataset>  (594) 
ChEMBL_Kinases

>  <Ligand_Instance>  (594) 
nan

>  <PDB_ID>  (594) 
nan

>  <Standardized_SMILES>  (594) 
COc1cc(-c2ccc3ncnc(Nc4cccc(NS(C)(=O)=O)c4)c3c2)ccc1O

>  <Name>  (594) 
nan

>  <Pocket>  (594) 
nan

>  <ATP_Site>  (594) 
nan

>  <Peripheral>  (594) 
nan

>  <Num_H_Atoms_ProtBoundConf>  (594) 
nan

>  <Num_Resolved_Atoms>  (594) 
nan

>  <Num_Not_Resolved_Atoms>  (594) 
nan

$$$$
CHEMBL3661235
     RDKit          3D

  0  0  0  0  0  0  0  0  0  0999 V3000
M  V30 BEGIN CTAB
M  V30 COUNTS 46 50 0 0 0
M  V30 BEGIN ATOM
M  V30 1 C -1.114060 -2.541879 3.895943 0
M  V30 2 O -1.322387 -3.565778 2.934497 0
M  V30 3 C -0.579922 -3.494007 1.762780 0
M  V30 4 C 0.355364 -2.578039 1.358210 0
M  V30 5 C 0.986913 -2.688738 0.129919 0
M  V30 6 C 1.973662 -1.674099 -0.212113 0
M  V30 7 C 3.077288 -1.882294 -1.025005 0
M  V30 8 C 3.967120 -0.838985 -1.285134 0
M  V30 9 C 3.768572 0.405026 -0.745385 0
M  V30 10 N 4.614417 1.412413 -0.997299 0
M  V30 11 C 4.426499 2.650372 -0.473510 0
M  V30 12 N 3.364729 2.880139 0.320516 0
M  V30 13 C 2.461026 1.944346 0.635903 0
M  V30 14 N 1.318113 2.057354 1.459951 0
M  V30 15 C -0.086598 1.966897 1.328619 0
M  V30 16 C -0.756449 1.954198 2.548133 0
M  V30 17 C -2.123176 1.841509 2.591252 0
M  V30 18 C -2.814941 1.743741 1.403802 0
M  V30 19 N -4.131808 1.619907 1.155195 0
M  V30 20 C -4.319206 1.555198 -0.190024 0
M  V30 21 N -3.099300 1.641146 -0.775400 0
M  V30 22 C -2.165421 1.757351 0.185110 0
M  V30 23 C -0.792634 1.870591 0.154513 0
M  V30 24 C 2.676556 0.683464 0.084701 0
M  V30 25 C 1.850632 -0.401132 0.287999 0
M  V30 26 C 0.649975 -3.749804 -0.681656 0
M  V30 27 C -0.290883 -4.689459 -0.296932 0
M  V30 28 C -0.916289 -4.558557 0.947791 0
M  V30 29 O -1.844810 -5.580370 1.205740 0
M  V30 30 H -1.582459 -2.788230 4.874933 0
M  V30 31 H -1.618475 -1.619597 3.485460 0
M  V30 32 H -0.021143 -2.337408 3.968133 0
M  V30 33 H 0.520177 -1.804808 2.087438 0
M  V30 34 H 3.200904 -2.874576 -1.434627 0
M  V30 35 H 4.823488 -1.042635 -1.931402 0
M  V30 36 H 5.107629 3.465489 -0.670382 0
M  V30 37 H 1.803064 2.273180 2.348645 0
M  V30 38 H -0.264126 2.033574 3.528452 0
M  V30 39 H -2.650302 1.829219 3.556846 0
M  V30 40 H -5.283904 1.454485 -0.632743 0
M  V30 41 H -2.903864 1.618811 -1.818073 0
M  V30 42 H -0.213689 1.889872 -0.775659 0
M  V30 43 H 0.994341 -0.219629 0.935549 0
M  V30 44 H 1.147487 -3.840301 -1.649029 0
M  V30 45 H -0.499983 -5.494953 -1.002352 0
M  V30 46 H -2.803833 -5.329472 1.308596 0
M  V30 END ATOM
M  V30 BEGIN BOND
M  V30 1 1 1 2
M  V30 2 1 2 3
M  V30 3 2 3 4
M  V30 4 1 4 5
M  V30 5 1 5 6
M  V30 6 2 6 7
M  V30 7 1 7 8
M  V30 8 2 8 9
M  V30 9 1 9 10
M  V30 10 2 10 11
M  V30 11 1 11 12
M  V30 12 2 12 13
M  V30 13 1 13 14
M  V30 14 1 14 15
M  V30 15 2 15 16
M  V30 16 1 16 17
M  V30 17 2 17 18
M  V30 18 1 18 19
M  V30 19 2 19 20
M  V30 20 1 20 21
M  V30 21 1 21 22
M  V30 22 2 22 23
M  V30 23 1 13 24
M  V30 24 2 24 25
M  V30 25 2 5 26
M  V30 26 1 26 27
M  V30 27 2 27 28
M  V30 28 1 28 29
M  V30 29 1 28 3
M  V30 30 1 25 6
M  V30 31 1 24 9
M  V30 32 1 23 15
M  V30 33 1 22 18
M  V30 34 1 1 30
M  V30 35 1 1 31
M  V30 36 1 1 32
M  V30 37 1 4 33
M  V30 38 1 7 34
M  V30 39 1 8 35
M  V30 40 1 11 36
M  V30 41 1 14 37
M  V30 42 1 16 38
M  V30 43 1 17 39
M  V30 44 1 20 40
M  V30 45 1 21 41
M  V30 46 1 23 42
M  V30 47 1 25 43
M  V30 48 1 26 44
M  V30 49 1 27 45
M  V30 50 1 29 46
M  V30 END BOND
M  V30 END CTAB
M  END
>  <Dataset>  (595) 
ChEMBL_Kinases

>  <Ligand_Instance>  (595) 
nan

>  <PDB_ID>  (595) 
nan

>  <Standardized_SMILES>  (595) 
COc1cc(-c2ccc3ncnc(Nc4ccc5nc[nH]c5c4)c3c2)ccc1O

>  <Name>  (595) 
nan

>  <Pocket>  (595) 
nan

>  <ATP_Site>  (595) 
nan

>  <Peripheral>  (595) 
nan

>  <Num_H_Atoms_ProtBoundConf>  (595) 
nan

>  <Num_Resolved_Atoms>  (595) 
nan

>  <Num_Not_Resolved_Atoms>  (595) 
nan

$$$$
CHEMBL3661234
     RDKit          3D

  0  0  0  0  0  0  0  0  0  0999 V3000
M  V30 BEGIN CTAB
M  V30 COUNTS 47 50 0 0 0
M  V30 BEGIN ATOM
M  V30 1 C 1.013634 -3.981512 2.485121 0
M  V30 2 O -0.071069 -4.661856 1.836393 0
M  V30 3 C -0.560222 -4.144799 0.619374 0
M  V30 4 C -0.032681 -3.011662 0.038526 0
M  V30 5 C -0.423926 -2.426738 -1.127994 0
M  V30 6 C 0.252948 -1.203581 -1.592101 0
M  V30 7 C 0.454713 -0.831292 -2.887809 0
M  V30 8 C 1.109921 0.362979 -3.158269 0
M  V30 9 C 1.567852 1.192170 -2.156900 0
M  V30 10 N 2.215905 2.365067 -2.423838 0
M  V30 11 C 2.638515 3.123565 -1.367621 0
M  V30 12 N 2.450046 2.775262 -0.086458 0
M  V30 13 C 1.818394 1.631838 0.248043 0
M  V30 14 N 1.579064 1.178112 1.594801 0
M  V30 15 C 0.411455 1.724579 2.224014 0
M  V30 16 C -0.397013 2.629680 1.567680 0
M  V30 17 C -1.532377 3.213609 2.076467 0
M  V30 18 C -1.874581 2.844320 3.367065 0
M  V30 19 C -1.110088 1.932868 4.103777 0
M  V30 20 O -1.441784 1.549110 5.409627 0
M  V30 21 C 0.005082 1.408509 3.499484 0
M  V30 22 C 0.814623 0.434347 4.269064 0
M  V30 23 C 1.379463 0.844167 -0.823248 0
M  V30 24 C 0.729974 -0.338590 -0.621609 0
M  V30 25 C -1.466520 -3.053039 -1.789693 0
M  V30 26 C -2.038963 -4.199607 -1.252722 0
M  V30 27 C -1.599086 -4.758207 -0.051174 0
M  V30 28 O -2.162396 -5.903649 0.497362 0
M  V30 29 H 1.323694 -4.539960 3.367525 0
M  V30 30 H 1.876778 -3.881447 1.766190 0
M  V30 31 H 0.669069 -2.967501 2.767119 0
M  V30 32 H 0.793549 -2.583312 0.626430 0
M  V30 33 H 0.086348 -1.501255 -3.652211 0
M  V30 34 H 1.262214 0.643741 -4.214658 0
M  V30 35 H 3.162351 4.075676 -1.516253 0
M  V30 36 H 2.132493 0.507716 2.183508 0
M  V30 37 H -0.160212 2.947209 0.546065 0
M  V30 38 H -2.134112 3.920343 1.519348 0
M  V30 39 H -2.751580 3.244645 3.867767 0
M  V30 40 H -2.254024 0.929646 5.518533 0
M  V30 41 H 0.654926 -0.578354 3.842210 0
M  V30 42 H 0.506771 0.403360 5.337853 0
M  V30 43 H 1.882155 0.677801 4.234628 0
M  V30 44 H 0.587990 -0.590842 0.441758 0
M  V30 45 H -1.804931 -2.614182 -2.723144 0
M  V30 46 H -2.854703 -4.680798 -1.778485 0
M  V30 47 H -2.119576 -6.052407 1.490053 0
M  V30 END ATOM
M  V30 BEGIN BOND
M  V30 1 1 1 2
M  V30 2 1 2 3
M  V30 3 2 3 4
M  V30 4 1 4 5
M  V30 5 1 5 6
M  V30 6 2 6 7
M  V30 7 1 7 8
M  V30 8 2 8 9
M  V30 9 1 9 10
M  V30 10 2 10 11
M  V30 11 1 11 12
M  V30 12 2 12 13
M  V30 13 1 13 14
M  V30 14 1 14 15
M  V30 15 2 15 16
M  V30 16 1 16 17
M  V30 17 2 17 18
M  V30 18 1 18 19
M  V30 19 1 19 20
M  V30 20 2 19 21
M  V30 21 1 21 22
M  V30 22 1 13 23
M  V30 23 2 23 24
M  V30 24 2 5 25
M  V30 25 1 25 26
M  V30 26 2 26 27
M  V30 27 1 27 28
M  V30 28 1 27 3
M  V30 29 1 24 6
M  V30 30 1 23 9
M  V30 31 1 21 15
M  V30 32 1 1 29
M  V30 33 1 1 30
M  V30 34 1 1 31
M  V30 35 1 4 32
M  V30 36 1 7 33
M  V30 37 1 8 34
M  V30 38 1 11 35
M  V30 39 1 14 36
M  V30 40 1 16 37
M  V30 41 1 17 38
M  V30 42 1 18 39
M  V30 43 1 20 40
M  V30 44 1 22 41
M  V30 45 1 22 42
M  V30 46 1 22 43
M  V30 47 1 24 44
M  V30 48 1 25 45
M  V30 49 1 26 46
M  V30 50 1 28 47
M  V30 END BOND
M  V30 END CTAB
M  END
>  <Dataset>  (596) 
ChEMBL_Kinases

>  <Ligand_Instance>  (596) 
nan

>  <PDB_ID>  (596) 
nan

>  <Standardized_SMILES>  (596) 
COc1cc(-c2ccc3ncnc(Nc4cccc(O)c4C)c3c2)ccc1O

>  <Name>  (596) 
nan

>  <Pocket>  (596) 
nan

>  <ATP_Site>  (596) 
nan

>  <Peripheral>  (596) 
nan

>  <Num_H_Atoms_ProtBoundConf>  (596) 
nan

>  <Num_Resolved_Atoms>  (596) 
nan

>  <Num_Not_Resolved_Atoms>  (596) 
nan

$$$$
CHEMBL3661233
     RDKit          3D

  0  0  0  0  0  0  0  0  0  0999 V3000
M  V30 BEGIN CTAB
M  V30 COUNTS 43 46 0 0 0
M  V30 BEGIN ATOM
M  V30 1 C -2.705475 -5.260702 1.228489 0
M  V30 2 O -1.387096 -5.159877 1.700457 0
M  V30 3 C -0.543024 -4.151598 1.305222 0
M  V30 4 C -0.717811 -3.105104 0.455788 0
M  V30 5 C 0.286592 -2.218324 0.222195 0
M  V30 6 C 0.203699 -1.083475 -0.682962 0
M  V30 7 C -0.508903 -1.010360 -1.850735 0
M  V30 8 C -0.496766 0.124690 -2.629306 0
M  V30 9 C 0.236077 1.233603 -2.259170 0
M  V30 10 N 0.287780 2.388321 -2.982144 0
M  V30 11 C 1.036504 3.430598 -2.531959 0
M  V30 12 N 1.743791 3.400814 -1.402185 0
M  V30 13 C 1.760032 2.304886 -0.614194 0
M  V30 14 N 2.447435 2.110246 0.618522 0
M  V30 15 C 1.736331 2.137065 1.858682 0
M  V30 16 C 2.311252 1.910250 3.105012 0
M  V30 17 C 1.539829 1.940190 4.263680 0
M  V30 18 C 0.195999 2.191968 4.228071 0
M  V30 19 C -0.428752 2.424826 3.023022 0
M  V30 20 F -1.735579 2.674624 2.970805 0
M  V30 21 C 0.379958 2.383700 1.908535 0
M  V30 22 C 0.993132 1.245035 -1.079944 0
M  V30 23 C 0.919553 0.065158 -0.365647 0
M  V30 24 C 1.492592 -2.423994 0.880766 0
M  V30 25 C 1.750765 -3.466418 1.761663 0
M  V30 26 C 0.676388 -4.355261 1.968560 0
M  V30 27 O 1.031775 -5.371647 2.870605 0
M  V30 28 H -3.401424 -5.414364 2.095898 0
M  V30 29 H -2.831266 -6.074765 0.479007 0
M  V30 30 H -2.996890 -4.323400 0.744482 0
M  V30 31 H -1.666176 -3.020939 -0.003948 0
M  V30 32 H -1.074113 -1.887835 -2.124234 0
M  V30 33 H -1.066812 0.178082 -3.558813 0
M  V30 34 H 1.050065 4.334657 -3.137797 0
M  V30 35 H 3.487049 1.937140 0.719928 0
M  V30 36 H 3.358994 1.711699 3.134635 0
M  V30 37 H 2.057544 1.752215 5.210324 0
M  V30 38 H -0.379067 2.208854 5.147713 0
M  V30 39 H -0.139280 2.577900 0.953476 0
M  V30 40 H 1.491596 0.048032 0.559506 0
M  V30 41 H 2.333420 -1.746089 0.722478 0
M  V30 42 H 2.722297 -3.553660 2.231793 0
M  V30 43 H 0.522954 -5.466121 3.742512 0
M  V30 END ATOM
M  V30 BEGIN BOND
M  V30 1 1 1 2
M  V30 2 1 2 3
M  V30 3 2 3 4
M  V30 4 1 4 5
M  V30 5 1 5 6
M  V30 6 2 6 7
M  V30 7 1 7 8
M  V30 8 2 8 9
M  V30 9 1 9 10
M  V30 10 2 10 11
M  V30 11 1 11 12
M  V30 12 2 12 13
M  V30 13 1 13 14
M  V30 14 1 14 15
M  V30 15 2 15 16
M  V30 16 1 16 17
M  V30 17 2 17 18
M  V30 18 1 18 19
M  V30 19 1 19 20
M  V30 20 2 19 21
M  V30 21 1 13 22
M  V30 22 2 22 23
M  V30 23 2 5 24
M  V30 24 1 24 25
M  V30 25 2 25 26
M  V30 26 1 26 27
M  V30 27 1 26 3
M  V30 28 1 23 6
M  V30 29 1 22 9
M  V30 30 1 21 15
M  V30 31 1 1 28
M  V30 32 1 1 29
M  V30 33 1 1 30
M  V30 34 1 4 31
M  V30 35 1 7 32
M  V30 36 1 8 33
M  V30 37 1 11 34
M  V30 38 1 14 35
M  V30 39 1 16 36
M  V30 40 1 17 37
M  V30 41 1 18 38
M  V30 42 1 21 39
M  V30 43 1 23 40
M  V30 44 1 24 41
M  V30 45 1 25 42
M  V30 46 1 27 43
M  V30 END BOND
M  V30 END CTAB
M  END
>  <Dataset>  (597) 
ChEMBL_Kinases

>  <Ligand_Instance>  (597) 
nan

>  <PDB_ID>  (597) 
nan

>  <Standardized_SMILES>  (597) 
COc1cc(-c2ccc3ncnc(Nc4cccc(F)c4)c3c2)ccc1O

>  <Name>  (597) 
nan

>  <Pocket>  (597) 
nan

>  <ATP_Site>  (597) 
nan

>  <Peripheral>  (597) 
nan

>  <Num_H_Atoms_ProtBoundConf>  (597) 
nan

>  <Num_Resolved_Atoms>  (597) 
nan

>  <Num_Not_Resolved_Atoms>  (597) 
nan

$$$$
CHEMBL3661232
     RDKit          3D

  0  0  0  0  0  0  0  0  0  0999 V3000
M  V30 BEGIN CTAB
M  V30 COUNTS 46 50 0 0 0
M  V30 BEGIN ATOM
M  V30 1 C 2.899910 0.367815 -6.956556 0
M  V30 2 O 2.129018 -0.820871 -6.926995 0
M  V30 3 C 1.515846 -1.202955 -5.756908 0
M  V30 4 C 1.574143 -0.519321 -4.547981 0
M  V30 5 C 0.904927 -1.019540 -3.442265 0
M  V30 6 C 0.974888 -0.296538 -2.175818 0
M  V30 7 C 2.147279 0.399573 -1.908830 0
M  V30 8 C 2.196747 1.078284 -0.704060 0
M  V30 9 C 1.181339 1.109260 0.229970 0
M  V30 10 N 1.318054 1.795130 1.373755 0
M  V30 11 C 0.258935 1.766737 2.236602 0
M  V30 12 N -0.871787 1.088262 1.965593 0
M  V30 13 C -1.015476 0.408295 0.838909 0
M  V30 14 N -2.223864 -0.294875 0.586696 0
M  V30 15 C -3.291296 -0.297901 1.525574 0
M  V30 16 C -4.518884 0.208495 1.148984 0
M  V30 17 C -5.565538 0.199842 2.075074 0
M  V30 18 C -5.324976 -0.316629 3.330549 0
M  V30 19 C -4.089091 -0.814045 3.674821 0
M  V30 20 N -3.676960 -1.352681 4.843569 0
M  V30 21 N -2.403125 -1.684767 4.685305 0
M  V30 22 C -1.965820 -1.381875 3.451742 0
M  V30 23 C -3.020240 -0.820683 2.772692 0
M  V30 24 C 0.016329 0.397498 -0.072621 0
M  V30 25 C -0.061904 -0.288708 -1.266139 0
M  V30 26 C 0.184201 -2.194967 -3.550390 0
M  V30 27 C 0.122608 -2.882825 -4.757140 0
M  V30 28 C 0.784111 -2.389342 -5.851733 0
M  V30 29 O 0.674866 -3.134372 -7.023529 0
M  V30 30 H 2.252517 1.159177 -6.485078 0
M  V30 31 H 3.191165 0.649995 -7.983702 0
M  V30 32 H 3.771782 0.279786 -6.266578 0
M  V30 33 H 2.152623 0.390805 -4.529135 0
M  V30 34 H 2.966295 0.402250 -2.610788 0
M  V30 35 H 3.122261 1.618059 -0.510738 0
M  V30 36 H 0.396118 2.326425 3.148098 0
M  V30 37 H -2.522964 -0.863572 -0.217786 0
M  V30 38 H -4.634061 0.602695 0.131830 0
M  V30 39 H -6.474843 0.619182 1.670809 0
M  V30 40 H -6.184672 -0.286355 3.985366 0
M  V30 41 H -4.257625 -1.484122 5.716019 0
M  V30 42 H -0.999983 -1.523199 3.020257 0
M  V30 43 H -0.946642 -0.829216 -1.495881 0
M  V30 44 H -0.341456 -2.600750 -2.708290 0
M  V30 45 H -0.456037 -3.816593 -4.822545 0
M  V30 46 H 1.402906 -3.808817 -7.305286 0
M  V30 END ATOM
M  V30 BEGIN BOND
M  V30 1 1 1 2
M  V30 2 1 2 3
M  V30 3 2 3 4
M  V30 4 1 4 5
M  V30 5 1 5 6
M  V30 6 2 6 7
M  V30 7 1 7 8
M  V30 8 2 8 9
M  V30 9 1 9 10
M  V30 10 2 10 11
M  V30 11 1 11 12
M  V30 12 2 12 13
M  V30 13 1 13 14
M  V30 14 1 14 15
M  V30 15 2 15 16
M  V30 16 1 16 17
M  V30 17 2 17 18
M  V30 18 1 18 19
M  V30 19 1 19 20
M  V30 20 1 20 21
M  V30 21 2 21 22
M  V30 22 1 22 23
M  V30 23 1 13 24
M  V30 24 2 24 25
M  V30 25 2 5 26
M  V30 26 1 26 27
M  V30 27 2 27 28
M  V30 28 1 28 29
M  V30 29 1 28 3
M  V30 30 1 25 6
M  V30 31 1 24 9
M  V30 32 1 23 15
M  V30 33 2 23 19
M  V30 34 1 1 30
M  V30 35 1 1 31
M  V30 36 1 1 32
M  V30 37 1 4 33
M  V30 38 1 7 34
M  V30 39 1 8 35
M  V30 40 1 11 36
M  V30 41 1 14 37
M  V30 42 1 16 38
M  V30 43 1 17 39
M  V30 44 1 18 40
M  V30 45 1 20 41
M  V30 46 1 22 42
M  V30 47 1 25 43
M  V30 48 1 26 44
M  V30 49 1 27 45
M  V30 50 1 29 46
M  V30 END BOND
M  V30 END CTAB
M  END
>  <Dataset>  (598) 
ChEMBL_Kinases

>  <Ligand_Instance>  (598) 
nan

>  <PDB_ID>  (598) 
nan

>  <Standardized_SMILES>  (598) 
COc1cc(-c2ccc3ncnc(Nc4cccc5[nH]ncc45)c3c2)ccc1O

>  <Name>  (598) 
nan

>  <Pocket>  (598) 
nan

>  <ATP_Site>  (598) 
nan

>  <Peripheral>  (598) 
nan

>  <Num_H_Atoms_ProtBoundConf>  (598) 
nan

>  <Num_Resolved_Atoms>  (598) 
nan

>  <Num_Not_Resolved_Atoms>  (598) 
nan

$$$$
CHEMBL3661231
     RDKit          3D

  0  0  0  0  0  0  0  0  0  0999 V3000
M  V30 BEGIN CTAB
M  V30 COUNTS 44 47 0 0 0
M  V30 BEGIN ATOM
M  V30 1 C 0.032393 -5.092147 2.431119 0
M  V30 2 O -0.463800 -4.119383 1.531968 0
M  V30 3 C 0.311965 -3.004367 1.290257 0
M  V30 4 C 1.553031 -2.861849 1.926649 0
M  V30 5 C 2.337938 -1.761682 1.695062 0
M  V30 6 N 3.552049 -1.546767 2.262556 0
M  V30 7 C 4.280134 -0.451793 1.989790 0
M  V30 8 N 3.834014 0.489538 1.134649 0
M  V30 9 C 2.619988 0.302634 0.550586 0
M  V30 10 N 2.389949 1.412051 -0.323565 0
M  V30 11 C 2.097725 2.665221 0.274089 0
M  V30 12 C 2.340762 3.815229 -0.486898 0
M  V30 13 C 2.105207 5.083918 -0.008301 0
M  V30 14 C 1.609423 5.196138 1.272066 0
M  V30 15 C 1.337686 4.097697 2.094146 0
M  V30 16 O 0.836777 4.254746 3.376786 0
M  V30 17 C 1.602917 2.833866 1.541176 0
M  V30 18 C 1.855231 -0.811618 0.815722 0
M  V30 19 C 0.651543 -0.849723 0.137064 0
M  V30 20 C -0.091176 -1.986695 0.418111 0
M  V30 21 C -1.393875 -2.105387 -0.237685 0
M  V30 22 C -1.777832 -1.879015 -1.546790 0
M  V30 23 C -3.063469 -2.051613 -1.939280 0
M  V30 24 C -4.065169 -2.460083 -1.071330 0
M  V30 25 O -5.372612 -2.642251 -1.439139 0
M  V30 26 C -3.696830 -2.692434 0.248941 0
M  V30 27 C -2.385353 -2.513176 0.637295 0
M  V30 28 H 1.013006 -5.454336 2.070045 0
M  V30 29 H 0.126309 -4.590742 3.424817 0
M  V30 30 H -0.644011 -5.949979 2.546031 0
M  V30 31 H 1.938764 -3.605303 2.619197 0
M  V30 32 H 5.231943 -0.428071 2.529426 0
M  V30 33 H 2.439841 1.249522 -1.338873 0
M  V30 34 H 2.730624 3.735774 -1.496904 0
M  V30 35 H 2.301241 5.986402 -0.609196 0
M  V30 36 H 1.436547 6.205736 1.617180 0
M  V30 37 H 0.757516 3.437702 3.956299 0
M  V30 38 H 1.411146 1.932613 2.131388 0
M  V30 39 H 0.347523 -0.073059 -0.532183 0
M  V30 40 H -0.931889 -1.560165 -2.159356 0
M  V30 41 H -3.308669 -1.861391 -2.973372 0
M  V30 42 H -5.740049 -3.263876 -2.116633 0
M  V30 43 H -4.489889 -3.021472 0.935064 0
M  V30 44 H -2.260682 -2.731230 1.699611 0
M  V30 END ATOM
M  V30 BEGIN BOND
M  V30 1 1 1 2
M  V30 2 1 2 3
M  V30 3 2 3 4
M  V30 4 1 4 5
M  V30 5 2 5 6
M  V30 6 1 6 7
M  V30 7 2 7 8
M  V30 8 1 8 9
M  V30 9 1 9 10
M  V30 10 1 10 11
M  V30 11 2 11 12
M  V30 12 1 12 13
M  V30 13 2 13 14
M  V30 14 1 14 15
M  V30 15 1 15 16
M  V30 16 2 15 17
M  V30 17 2 9 18
M  V30 18 1 18 19
M  V30 19 2 19 20
M  V30 20 1 20 21
M  V30 21 2 21 22
M  V30 22 1 22 23
M  V30 23 2 23 24
M  V30 24 1 24 25
M  V30 25 1 24 26
M  V30 26 2 26 27
M  V30 27 1 20 3
M  V30 28 1 27 21
M  V30 29 1 18 5
M  V30 30 1 17 11
M  V30 31 1 1 28
M  V30 32 1 1 29
M  V30 33 1 1 30
M  V30 34 1 4 31
M  V30 35 1 7 32
M  V30 36 1 10 33
M  V30 37 1 12 34
M  V30 38 1 13 35
M  V30 39 1 14 36
M  V30 40 1 16 37
M  V30 41 1 17 38
M  V30 42 1 19 39
M  V30 43 1 22 40
M  V30 44 1 23 41
M  V30 45 1 25 42
M  V30 46 1 26 43
M  V30 47 1 27 44
M  V30 END BOND
M  V30 END CTAB
M  END
>  <Dataset>  (599) 
ChEMBL_Kinases

>  <Ligand_Instance>  (599) 
nan

>  <PDB_ID>  (599) 
nan

>  <Standardized_SMILES>  (599) 
COc1cc2ncnc(Nc3cccc(O)c3)c2cc1-c1ccc(O)cc1

>  <Name>  (599) 
nan

>  <Pocket>  (599) 
nan

>  <ATP_Site>  (599) 
nan

>  <Peripheral>  (599) 
nan

>  <Num_H_Atoms_ProtBoundConf>  (599) 
nan

>  <Num_Resolved_Atoms>  (599) 
nan

>  <Num_Not_Resolved_Atoms>  (599) 
nan

$$$$
CHEMBL3661230
     RDKit          3D

  0  0  0  0  0  0  0  0  0  0999 V3000
M  V30 BEGIN CTAB
M  V30 COUNTS 48 51 0 0 0
M  V30 BEGIN ATOM
M  V30 1 C -0.791200 -6.529294 1.079509 0
M  V30 2 O -1.272859 -5.675564 2.064939 0
M  V30 3 C -0.819433 -4.408362 2.378095 0
M  V30 4 C 0.211302 -3.762695 1.753519 0
M  V30 5 C 0.534193 -2.476987 2.203684 0
M  V30 6 C 1.638738 -1.810354 1.530185 0
M  V30 7 C 2.749863 -2.468542 0.989937 0
M  V30 8 C 3.769790 -1.786149 0.358476 0
M  V30 9 C 3.679905 -0.390720 0.260261 0
M  V30 10 N 4.654923 0.300168 -0.356706 0
M  V30 11 C 4.600412 1.657255 -0.479222 0
M  V30 12 N 3.554272 2.319164 0.024827 0
M  V30 13 C 2.534412 1.689315 0.660071 0
M  V30 14 N 1.419577 2.390446 1.189002 0
M  V30 15 C 0.166374 2.438432 0.527263 0
M  V30 16 C -0.012697 1.646768 -0.617524 0
M  V30 17 C -1.256238 1.730983 -1.199800 0
M  V30 18 C -2.326216 2.510005 -0.770399 0
M  V30 19 S -3.794819 2.365035 -1.729872 0
M  V30 20 N -3.671991 3.407166 -3.097063 0
M  V30 21 O -4.009055 0.958346 -2.194611 0
M  V30 22 O -4.966162 2.846518 -0.903413 0
M  V30 23 C -2.108984 3.274094 0.356754 0
M  V30 24 C -0.875464 3.218117 0.972114 0
M  V30 25 C 2.579834 0.298676 0.791136 0
M  V30 26 C 1.598440 -0.440771 1.408228 0
M  V30 27 C -0.112189 -1.824127 3.225364 0
M  V30 28 C -1.151305 -2.554267 3.808289 0
M  V30 29 C -1.537874 -3.842664 3.419405 0
M  V30 30 O -2.587087 -4.336184 4.152837 0
M  V30 31 H 0.148975 -6.148587 0.624783 0
M  V30 32 H -0.540382 -7.534119 1.518333 0
M  V30 33 H -1.498377 -6.654489 0.227749 0
M  V30 34 H 0.737319 -4.246653 0.946462 0
M  V30 35 H 2.766975 -3.560272 1.094158 0
M  V30 36 H 4.623024 -2.327748 -0.052009 0
M  V30 37 H 5.450469 2.075524 -0.993689 0
M  V30 38 H 1.512143 2.899214 2.108481 0
M  V30 39 H 0.797061 1.030288 -0.977467 0
M  V30 40 H -1.337266 1.092240 -2.088574 0
M  V30 41 H -3.559266 2.781570 -3.950875 0
M  V30 42 H -2.780703 3.972141 -3.093924 0
M  V30 43 H -2.965315 3.861747 0.651174 0
M  V30 44 H -0.759102 3.847059 1.865748 0
M  V30 45 H 0.801986 0.146618 1.785018 0
M  V30 46 H 0.171082 -0.850742 3.527282 0
M  V30 47 H -1.647937 -2.002813 4.618940 0
M  V30 48 H -3.575125 -4.291997 3.877850 0
M  V30 END ATOM
M  V30 BEGIN BOND
M  V30 1 1 1 2
M  V30 2 1 2 3
M  V30 3 2 3 4
M  V30 4 1 4 5
M  V30 5 1 5 6
M  V30 6 2 6 7
M  V30 7 1 7 8
M  V30 8 2 8 9
M  V30 9 1 9 10
M  V30 10 2 10 11
M  V30 11 1 11 12
M  V30 12 2 12 13
M  V30 13 1 13 14
M  V30 14 1 14 15
M  V30 15 2 15 16
M  V30 16 1 16 17
M  V30 17 2 17 18
M  V30 18 1 18 19
M  V30 19 1 19 20
M  V30 20 2 19 21
M  V30 21 2 19 22
M  V30 22 1 18 23
M  V30 23 2 23 24
M  V30 24 1 13 25
M  V30 25 2 25 26
M  V30 26 2 5 27
M  V30 27 1 27 28
M  V30 28 2 28 29
M  V30 29 1 29 30
M  V30 30 1 29 3
M  V30 31 1 26 6
M  V30 32 1 25 9
M  V30 33 1 24 15
M  V30 34 1 1 31
M  V30 35 1 1 32
M  V30 36 1 1 33
M  V30 37 1 4 34
M  V30 38 1 7 35
M  V30 39 1 8 36
M  V30 40 1 11 37
M  V30 41 1 14 38
M  V30 42 1 16 39
M  V30 43 1 17 40
M  V30 44 1 20 41
M  V30 45 1 20 42
M  V30 46 1 23 43
M  V30 47 1 24 44
M  V30 48 1 26 45
M  V30 49 1 27 46
M  V30 50 1 28 47
M  V30 51 1 30 48
M  V30 END BOND
M  V30 END CTAB
M  END
>  <Dataset>  (600) 
ChEMBL_Kinases

>  <Ligand_Instance>  (600) 
nan

>  <PDB_ID>  (600) 
nan

>  <Standardized_SMILES>  (600) 
COc1cc(-c2ccc3ncnc(Nc4ccc(S(N)(=O)=O)cc4)c3c2)ccc1O

>  <Name>  (600) 
nan

>  <Pocket>  (600) 
nan

>  <ATP_Site>  (600) 
nan

>  <Peripheral>  (600) 
nan

>  <Num_H_Atoms_ProtBoundConf>  (600) 
nan

>  <Num_Resolved_Atoms>  (600) 
nan

>  <Num_Not_Resolved_Atoms>  (600) 
nan

$$$$
CHEMBL3661229
     RDKit          3D

  0  0  0  0  0  0  0  0  0  0999 V3000
M  V30 BEGIN CTAB
M  V30 COUNTS 50 53 0 0 0
M  V30 BEGIN ATOM
M  V30 1 C 5.613452 -3.153767 -0.804588 0
M  V30 2 O 4.353365 -3.774941 -1.100056 0
M  V30 3 C 3.218985 -3.161861 -0.569016 0
M  V30 4 C 3.342101 -2.022854 0.193682 0
M  V30 5 C 2.176336 -1.471275 0.685604 0
M  V30 6 C 2.137624 -0.259166 1.515915 0
M  V30 7 C 3.205121 0.011049 2.377860 0
M  V30 8 C 3.159036 1.161673 3.161065 0
M  V30 9 C 2.078644 2.017171 3.085449 0
M  V30 10 N 1.949529 3.143138 3.805276 0
M  V30 11 C 0.895758 3.967432 3.730120 0
M  V30 12 N -0.085546 3.668324 2.900903 0
M  V30 13 C -0.085511 2.567208 2.117388 0
M  V30 14 N -1.192200 2.355061 1.270767 0
M  V30 15 C -1.754596 1.556724 0.283744 0
M  V30 16 C -1.367365 1.746855 -1.048278 0
M  V30 17 C -1.906157 0.962450 -2.018021 0
M  V30 18 C -2.821468 -0.005998 -1.689713 0
M  V30 19 C -3.251618 -0.255033 -0.417000 0
M  V30 20 N -4.199150 -1.277126 -0.194775 0
M  V30 21 C -4.770120 -1.710096 1.012935 0
M  V30 22 O -4.439912 -1.158286 2.088547 0
M  V30 23 C -5.769007 -2.809487 1.115917 0
M  V30 24 F -6.146206 -3.033079 2.413276 0
M  V30 25 F -5.337655 -3.977693 0.561134 0
M  V30 26 F -6.948577 -2.450101 0.447422 0
M  V30 27 C -2.677979 0.562179 0.518430 0
M  V30 28 C 1.021773 1.760298 2.239187 0
M  V30 29 C 1.077586 0.620933 1.470278 0
M  V30 30 C 0.965390 -2.068902 0.400297 0
M  V30 31 C 0.853063 -3.211902 -0.366072 0
M  V30 32 C 2.021332 -3.782988 -0.871577 0
M  V30 33 O 1.933377 -4.934060 -1.646005 0
M  V30 34 H 5.724931 -3.142412 0.310131 0
M  V30 35 H 6.452416 -3.750847 -1.202414 0
M  V30 36 H 5.639949 -2.106028 -1.131759 0
M  V30 37 H 4.277012 -1.557028 0.417772 0
M  V30 38 H 4.062648 -0.652579 2.448528 0
M  V30 39 H 3.958513 1.419254 3.845713 0
M  V30 40 H 0.862279 4.844353 4.332693 0
M  V30 41 H -1.997800 3.021258 1.317017 0
M  V30 42 H -0.637315 2.530838 -1.249711 0
M  V30 43 H -1.625600 1.085834 -3.053722 0
M  V30 44 H -3.223462 -0.609874 -2.509557 0
M  V30 45 H -4.558552 -1.817317 -1.008402 0
M  V30 46 H -2.944068 0.453734 1.556584 0
M  V30 47 H 0.300720 0.359891 0.803315 0
M  V30 48 H 0.005842 -1.690088 0.754719 0
M  V30 49 H -0.096928 -3.682645 -0.590358 0
M  V30 50 H 1.451533 -4.929659 -2.541380 0
M  V30 END ATOM
M  V30 BEGIN BOND
M  V30 1 1 1 2
M  V30 2 1 2 3
M  V30 3 2 3 4
M  V30 4 1 4 5
M  V30 5 1 5 6
M  V30 6 2 6 7
M  V30 7 1 7 8
M  V30 8 2 8 9
M  V30 9 1 9 10
M  V30 10 2 10 11
M  V30 11 1 11 12
M  V30 12 2 12 13
M  V30 13 1 13 14
M  V30 14 1 14 15
M  V30 15 2 15 16
M  V30 16 1 16 17
M  V30 17 2 17 18
M  V30 18 1 18 19
M  V30 19 1 19 20
M  V30 20 1 20 21
M  V30 21 2 21 22
M  V30 22 1 21 23
M  V30 23 1 23 24
M  V30 24 1 23 25
M  V30 25 1 23 26
M  V30 26 2 19 27
M  V30 27 1 13 28
M  V30 28 2 28 29
M  V30 29 2 5 30
M  V30 30 1 30 31
M  V30 31 2 31 32
M  V30 32 1 32 33
M  V30 33 1 32 3
M  V30 34 1 29 6
M  V30 35 1 28 9
M  V30 36 1 27 15
M  V30 37 1 1 34
M  V30 38 1 1 35
M  V30 39 1 1 36
M  V30 40 1 4 37
M  V30 41 1 7 38
M  V30 42 1 8 39
M  V30 43 1 11 40
M  V30 44 1 14 41
M  V30 45 1 16 42
M  V30 46 1 17 43
M  V30 47 1 18 44
M  V30 48 1 20 45
M  V30 49 1 27 46
M  V30 50 1 29 47
M  V30 51 1 30 48
M  V30 52 1 31 49
M  V30 53 1 33 50
M  V30 END BOND
M  V30 END CTAB
M  END
>  <Dataset>  (601) 
ChEMBL_Kinases

>  <Ligand_Instance>  (601) 
nan

>  <PDB_ID>  (601) 
nan

>  <Standardized_SMILES>  (601) 
COc1cc(-c2ccc3ncnc(Nc4cccc(NC(=O)C(F)(F)F)c4)c3c2)ccc1O

>  <Name>  (601) 
nan

>  <Pocket>  (601) 
nan

>  <ATP_Site>  (601) 
nan

>  <Peripheral>  (601) 
nan

>  <Num_H_Atoms_ProtBoundConf>  (601) 
nan

>  <Num_Resolved_Atoms>  (601) 
nan

>  <Num_Not_Resolved_Atoms>  (601) 
nan

$$$$
CHEMBL3661228
     RDKit          3D

  0  0  0  0  0  0  0  0  0  0999 V3000
M  V30 BEGIN CTAB
M  V30 COUNTS 50 53 0 0 0
M  V30 BEGIN ATOM
M  V30 1 C -2.157891 -3.589109 2.130998 0
M  V30 2 O -1.216613 -4.335601 1.452768 0
M  V30 3 C -0.118542 -3.959339 0.745192 0
M  V30 4 C 0.432012 -2.728146 0.462979 0
M  V30 5 C 1.574258 -2.522733 -0.291823 0
M  V30 6 C 2.083571 -1.197041 -0.514633 0
M  V30 7 C 2.723043 -0.856903 -1.702198 0
M  V30 8 C 3.220646 0.412384 -1.921649 0
M  V30 9 C 3.089268 1.380978 -0.943605 0
M  V30 10 N 3.559810 2.614287 -1.151224 0
M  V30 11 C 3.408531 3.546343 -0.177996 0
M  V30 12 N 2.807180 3.330154 1.017007 0
M  V30 13 C 2.315633 2.086562 1.265969 0
M  V30 14 N 1.641931 1.593421 2.413691 0
M  V30 15 C 0.272806 1.172075 2.577252 0
M  V30 16 C -0.079910 0.590650 3.773230 0
M  V30 17 C -1.399538 0.171764 3.881143 0
M  V30 18 C -2.299838 0.327904 2.857358 0
M  V30 19 C -1.957132 0.907667 1.657494 0
M  V30 20 N -2.912541 1.059738 0.628405 0
M  V30 21 C -2.782446 1.539829 -0.695692 0
M  V30 22 C -3.982303 1.606910 -1.606446 0
M  V30 23 O -1.661763 1.898374 -1.075884 0
M  V30 24 C -0.649999 1.317782 1.564094 0
M  V30 25 C 2.468984 1.124522 0.267500 0
M  V30 26 C 2.000741 -0.171757 0.400732 0
M  V30 27 C 2.182984 -3.665064 -0.781072 0
M  V30 28 C 1.691335 -4.944488 -0.541433 0
M  V30 29 C 0.542108 -5.056104 0.223588 0
M  V30 30 O 0.175304 -6.385893 0.377606 0
M  V30 31 H -1.764596 -2.665091 2.613746 0
M  V30 32 H -2.988926 -3.212917 1.462744 0
M  V30 33 H -2.656149 -4.230026 2.917526 0
M  V30 34 H -0.149417 -1.913102 0.911587 0
M  V30 35 H 2.831552 -1.615849 -2.488731 0
M  V30 36 H 3.716173 0.637621 -2.873916 0
M  V30 37 H 3.800614 4.545563 -0.372007 0
M  V30 38 H 2.303171 1.561762 3.214469 0
M  V30 39 H 0.630804 0.472249 4.563594 0
M  V30 40 H -1.697166 -0.288814 4.809392 0
M  V30 41 H -3.318010 -0.048805 3.062185 0
M  V30 42 H -3.904983 0.776420 0.881112 0
M  V30 43 H -4.890205 1.458424 -0.995679 0
M  V30 44 H -3.907908 0.678963 -2.252371 0
M  V30 45 H -3.983296 2.528261 -2.208185 0
M  V30 46 H -0.256714 1.783728 0.686997 0
M  V30 47 H 1.520463 -0.482135 1.305300 0
M  V30 48 H 3.069578 -3.471692 -1.362077 0
M  V30 49 H 2.279415 -5.730599 -0.990861 0
M  V30 50 H -0.704506 -6.694562 -0.008910 0
M  V30 END ATOM
M  V30 BEGIN BOND
M  V30 1 1 1 2
M  V30 2 1 2 3
M  V30 3 2 3 4
M  V30 4 1 4 5
M  V30 5 1 5 6
M  V30 6 2 6 7
M  V30 7 1 7 8
M  V30 8 2 8 9
M  V30 9 1 9 10
M  V30 10 2 10 11
M  V30 11 1 11 12
M  V30 12 2 12 13
M  V30 13 1 13 14
M  V30 14 1 14 15
M  V30 15 2 15 16
M  V30 16 1 16 17
M  V30 17 2 17 18
M  V30 18 1 18 19
M  V30 19 1 19 20
M  V30 20 1 20 21
M  V30 21 1 21 22
M  V30 22 2 21 23
M  V30 23 2 19 24
M  V30 24 1 13 25
M  V30 25 2 25 26
M  V30 26 2 5 27
M  V30 27 1 27 28
M  V30 28 2 28 29
M  V30 29 1 29 30
M  V30 30 1 29 3
M  V30 31 1 26 6
M  V30 32 1 25 9
M  V30 33 1 24 15
M  V30 34 1 1 31
M  V30 35 1 1 32
M  V30 36 1 1 33
M  V30 37 1 4 34
M  V30 38 1 7 35
M  V30 39 1 8 36
M  V30 40 1 11 37
M  V30 41 1 14 38
M  V30 42 1 16 39
M  V30 43 1 17 40
M  V30 44 1 18 41
M  V30 45 1 20 42
M  V30 46 1 22 43
M  V30 47 1 22 44
M  V30 48 1 22 45
M  V30 49 1 24 46
M  V30 50 1 26 47
M  V30 51 1 27 48
M  V30 52 1 28 49
M  V30 53 1 30 50
M  V30 END BOND
M  V30 END CTAB
M  END
>  <Dataset>  (602) 
ChEMBL_Kinases

>  <Ligand_Instance>  (602) 
nan

>  <PDB_ID>  (602) 
nan

>  <Standardized_SMILES>  (602) 
COc1cc(-c2ccc3ncnc(Nc4cccc(NC(C)=O)c4)c3c2)ccc1O

>  <Name>  (602) 
nan

>  <Pocket>  (602) 
nan

>  <ATP_Site>  (602) 
nan

>  <Peripheral>  (602) 
nan

>  <Num_H_Atoms_ProtBoundConf>  (602) 
nan

>  <Num_Resolved_Atoms>  (602) 
nan

>  <Num_Not_Resolved_Atoms>  (602) 
nan

$$$$
CHEMBL3661227
     RDKit          3D

  0  0  0  0  0  0  0  0  0  0999 V3000
M  V30 BEGIN CTAB
M  V30 COUNTS 48 51 0 0 0
M  V30 BEGIN ATOM
M  V30 1 C -2.696366 1.068912 3.144899 0
M  V30 2 O -2.621985 -0.118403 3.917076 0
M  V30 3 C -1.980124 -1.206633 3.334545 0
M  V30 4 C -1.410657 -1.242246 2.093598 0
M  V30 5 C -0.804972 -2.394696 1.638066 0
M  V30 6 C -0.217575 -2.327764 0.302814 0
M  V30 7 C 0.603230 -1.224939 0.091498 0
M  V30 8 C 1.203963 -1.095916 -1.144300 0
M  V30 9 C 2.044532 -0.005928 -1.403614 0
M  V30 10 N 2.295846 0.984601 -0.426091 0
M  V30 11 C 2.002442 2.242605 0.123985 0
M  V30 12 C 1.563436 2.336160 1.426745 0
M  V30 13 C 1.305169 3.616363 1.890782 0
M  V30 14 O 0.861965 3.706213 3.206587 0
M  V30 15 C 1.490357 4.702528 1.063186 0
M  V30 16 C 1.929839 4.587300 -0.235872 0
M  V30 17 C 2.189350 3.324804 -0.707776 0
M  V30 18 Cl 2.743691 3.208173 -2.350890 0
M  V30 19 N 2.646485 0.124334 -2.625097 0
M  V30 20 C 2.444869 -0.772939 -3.576873 0
M  V30 21 N 1.637162 -1.823781 -3.331198 0
M  V30 22 C 1.012964 -2.017854 -2.157288 0
M  V30 23 C 0.193451 -3.091679 -1.903794 0
M  V30 24 C -0.428515 -3.265078 -0.686417 0
M  V30 25 O -1.262237 -4.303633 -0.340630 0
M  V30 26 C -1.594268 -5.349812 -1.213197 0
M  V30 27 C -0.735469 -3.553017 2.381811 0
M  V30 28 C -1.309222 -3.521091 3.635931 0
M  V30 29 C -1.917260 -2.375795 4.102086 0
M  V30 30 O -2.453338 -2.478689 5.378918 0
M  V30 31 H -3.018822 0.814770 2.104793 0
M  V30 32 H -1.707550 1.569380 3.114359 0
M  V30 33 H -3.411838 1.798272 3.574111 0
M  V30 34 H -1.458208 -0.338447 1.499496 0
M  V30 35 H 0.783760 -0.482682 0.844379 0
M  V30 36 H 3.049228 0.498936 0.097102 0
M  V30 37 H 1.418975 1.472852 2.075976 0
M  V30 38 H 0.103285 3.104535 3.533825 0
M  V30 39 H 1.259063 5.646784 1.530993 0
M  V30 40 H 2.020646 5.532171 -0.740332 0
M  V30 41 H 2.899113 -0.707962 -4.552882 0
M  V30 42 H 0.016021 -3.832383 -2.662597 0
M  V30 43 H -2.001827 -6.198562 -0.607254 0
M  V30 44 H -2.387149 -5.054984 -1.946051 0
M  V30 45 H -0.662008 -5.697304 -1.716447 0
M  V30 46 H -0.240749 -4.440797 1.967896 0
M  V30 47 H -1.257039 -4.438355 4.232996 0
M  V30 48 H -3.397638 -2.145536 5.514876 0
M  V30 END ATOM
M  V30 BEGIN BOND
M  V30 1 1 1 2
M  V30 2 1 2 3
M  V30 3 2 3 4
M  V30 4 1 4 5
M  V30 5 1 5 6
M  V30 6 2 6 7
M  V30 7 1 7 8
M  V30 8 2 8 9
M  V30 9 1 9 10
M  V30 10 1 10 11
M  V30 11 2 11 12
M  V30 12 1 12 13
M  V30 13 1 13 14
M  V30 14 2 13 15
M  V30 15 1 15 16
M  V30 16 2 16 17
M  V30 17 1 17 18
M  V30 18 1 9 19
M  V30 19 2 19 20
M  V30 20 1 20 21
M  V30 21 2 21 22
M  V30 22 1 22 23
M  V30 23 2 23 24
M  V30 24 1 24 25
M  V30 25 1 25 26
M  V30 26 2 5 27
M  V30 27 1 27 28
M  V30 28 2 28 29
M  V30 29 1 29 30
M  V30 30 1 29 3
M  V30 31 1 24 6
M  V30 32 1 22 8
M  V30 33 1 17 11
M  V30 34 1 1 31
M  V30 35 1 1 32
M  V30 36 1 1 33
M  V30 37 1 4 34
M  V30 38 1 7 35
M  V30 39 1 10 36
M  V30 40 1 12 37
M  V30 41 1 14 38
M  V30 42 1 15 39
M  V30 43 1 16 40
M  V30 44 1 20 41
M  V30 45 1 23 42
M  V30 46 1 26 43
M  V30 47 1 26 44
M  V30 48 1 26 45
M  V30 49 1 27 46
M  V30 50 1 28 47
M  V30 51 1 30 48
M  V30 END BOND
M  V30 END CTAB
M  END
>  <Dataset>  (603) 
ChEMBL_Kinases

>  <Ligand_Instance>  (603) 
nan

>  <PDB_ID>  (603) 
nan

>  <Standardized_SMILES>  (603) 
COc1cc(-c2cc3c(Nc4cc(O)ccc4Cl)ncnc3cc2OC)ccc1O

>  <Name>  (603) 
nan

>  <Pocket>  (603) 
nan

>  <ATP_Site>  (603) 
nan

>  <Peripheral>  (603) 
nan

>  <Num_H_Atoms_ProtBoundConf>  (603) 
nan

>  <Num_Resolved_Atoms>  (603) 
nan

>  <Num_Not_Resolved_Atoms>  (603) 
nan

$$$$
CHEMBL3661225
     RDKit          3D

  0  0  0  0  0  0  0  0  0  0999 V3000
M  V30 BEGIN CTAB
M  V30 COUNTS 46 50 0 0 0
M  V30 BEGIN ATOM
M  V30 1 C -1.149234 -3.845755 3.453837 0
M  V30 2 O -1.171803 -4.542107 2.234228 0
M  V30 3 C -0.413878 -4.128012 1.153336 0
M  V30 4 C 0.450791 -3.070071 0.991405 0
M  V30 5 C 1.087425 -2.875374 -0.195903 0
M  V30 6 C 1.980038 -1.711561 -0.235216 0
M  V30 7 C 3.125586 -1.718188 -1.036826 0
M  V30 8 C 3.970263 -0.621052 -1.077208 0
M  V30 9 C 3.705379 0.506926 -0.328952 0
M  V30 10 N 4.460928 1.620962 -0.299428 0
M  V30 11 C 4.146633 2.689861 0.453161 0
M  V30 12 N 3.045275 2.698212 1.224958 0
M  V30 13 C 2.202843 1.626176 1.276957 0
M  V30 14 N 1.023076 1.568995 2.070509 0
M  V30 15 C -0.219886 2.000117 1.526201 0
M  V30 16 C -0.266780 2.462397 0.223793 0
M  V30 17 C -1.489574 2.872286 -0.270736 0
M  V30 18 C -2.638144 2.821674 0.516671 0
M  V30 19 C -3.969629 3.154262 0.305274 0
M  V30 20 N -4.658981 2.898750 1.425056 0
M  V30 21 N -3.841276 2.414960 2.358441 0
M  V30 22 C -2.602110 2.356037 1.834862 0
M  V30 23 C -1.368057 1.958419 2.287930 0
M  V30 24 C 2.566728 0.540099 0.481195 0
M  V30 25 C 1.747514 -0.571294 0.496738 0
M  V30 26 C 0.891878 -3.720600 -1.267100 0
M  V30 27 C 0.041158 -4.779737 -1.141200 0
M  V30 28 C -0.621708 -4.994600 0.072706 0
M  V30 29 O -1.460299 -6.119370 0.049087 0
M  V30 30 H -1.235154 -4.593450 4.291766 0
M  V30 31 H -2.014039 -3.130920 3.546237 0
M  V30 32 H -0.168664 -3.367525 3.565827 0
M  V30 33 H 0.530497 -2.480252 1.875661 0
M  V30 34 H 3.366826 -2.592976 -1.641885 0
M  V30 35 H 4.857243 -0.565185 -1.667658 0
M  V30 36 H 4.765831 3.578198 0.464911 0
M  V30 37 H 1.055670 1.213112 3.053180 0
M  V30 38 H 0.603019 2.507647 -0.391486 0
M  V30 39 H -1.551264 3.238855 -1.290446 0
M  V30 40 H -4.360078 3.549021 -0.611292 0
M  V30 41 H -4.097324 2.123060 3.341087 0
M  V30 42 H -1.325591 1.596779 3.302397 0
M  V30 43 H 0.876448 -0.561270 1.109114 0
M  V30 44 H 1.417011 -3.528838 -2.189035 0
M  V30 45 H -0.074274 -5.409496 -2.012899 0
M  V30 46 H -2.332016 -6.115641 0.558648 0
M  V30 END ATOM
M  V30 BEGIN BOND
M  V30 1 1 1 2
M  V30 2 1 2 3
M  V30 3 2 3 4
M  V30 4 1 4 5
M  V30 5 1 5 6
M  V30 6 2 6 7
M  V30 7 1 7 8
M  V30 8 2 8 9
M  V30 9 1 9 10
M  V30 10 2 10 11
M  V30 11 1 11 12
M  V30 12 2 12 13
M  V30 13 1 13 14
M  V30 14 1 14 15
M  V30 15 2 15 16
M  V30 16 1 16 17
M  V30 17 2 17 18
M  V30 18 1 18 19
M  V30 19 2 19 20
M  V30 20 1 20 21
M  V30 21 1 21 22
M  V30 22 2 22 23
M  V30 23 1 13 24
M  V30 24 2 24 25
M  V30 25 2 5 26
M  V30 26 1 26 27
M  V30 27 2 27 28
M  V30 28 1 28 29
M  V30 29 1 28 3
M  V30 30 1 25 6
M  V30 31 1 24 9
M  V30 32 1 23 15
M  V30 33 1 22 18
M  V30 34 1 1 30
M  V30 35 1 1 31
M  V30 36 1 1 32
M  V30 37 1 4 33
M  V30 38 1 7 34
M  V30 39 1 8 35
M  V30 40 1 11 36
M  V30 41 1 14 37
M  V30 42 1 16 38
M  V30 43 1 17 39
M  V30 44 1 19 40
M  V30 45 1 21 41
M  V30 46 1 23 42
M  V30 47 1 25 43
M  V30 48 1 26 44
M  V30 49 1 27 45
M  V30 50 1 29 46
M  V30 END BOND
M  V30 END CTAB
M  END
>  <Dataset>  (604) 
ChEMBL_Kinases

>  <Ligand_Instance>  (604) 
nan

>  <PDB_ID>  (604) 
nan

>  <Standardized_SMILES>  (604) 
COc1cc(-c2ccc3ncnc(Nc4ccc5cn[nH]c5c4)c3c2)ccc1O

>  <Name>  (604) 
nan

>  <Pocket>  (604) 
nan

>  <ATP_Site>  (604) 
nan

>  <Peripheral>  (604) 
nan

>  <Num_H_Atoms_ProtBoundConf>  (604) 
nan

>  <Num_Resolved_Atoms>  (604) 
nan

>  <Num_Not_Resolved_Atoms>  (604) 
nan

$$$$
CHEMBL3662832
     RDKit          3D

  0  0  0  0  0  0  0  0  0  0999 V3000
M  V30 BEGIN CTAB
M  V30 COUNTS 62 65 0 0 0
M  V30 BEGIN ATOM
M  V30 1 C 2.135659 -4.917674 4.607097 0
M  V30 2 C 1.253017 -4.117041 3.651402 0
M  V30 3 N 1.377115 -2.713684 3.873562 0
M  V30 4 C 2.625058 -2.121624 3.537957 0
M  V30 5 C 2.877980 -1.917518 2.073436 0 CFG=2
M  V30 6 C 3.834580 -0.776953 1.893161 0
M  V30 7 N 1.606572 -1.707009 1.361425 0
M  V30 8 C 1.754371 -1.555463 -0.019048 0
M  V30 9 O 3.003720 -1.695654 -0.063146 0
M  V30 10 N 0.808231 -1.317971 -1.056985 0
M  V30 11 C -0.645028 -1.116440 -1.293820 0
M  V30 12 C -0.604677 0.143762 -2.061041 0
M  V30 13 C -1.215337 1.334432 -2.369697 0
M  V30 14 N -2.441333 1.911973 -1.962802 0
M  V30 15 C -3.494267 1.434425 -1.147815 0
M  V30 16 O -3.390682 0.297014 -0.665665 0
M  V30 17 C -4.697368 2.193006 -0.835816 0
M  V30 18 C -5.677037 1.667874 -0.035703 0
M  V30 19 C -6.819917 2.382875 0.262698 0
M  V30 20 C -6.975828 3.671077 -0.266143 0
M  V30 21 F -8.074740 4.421299 -0.010377 0
M  V30 22 C -5.965459 4.171583 -1.071529 0
M  V30 23 N -4.873375 3.431981 -1.329641 0
M  V30 24 N -0.440959 1.994524 -3.240546 0
M  V30 25 N 0.612886 1.245330 -3.468456 0
M  V30 26 C 0.572514 0.100102 -2.777351 0
M  V30 27 C 1.232753 -1.203857 -2.440018 0
M  V30 28 C 2.731388 -1.102015 -2.597597 0
M  V30 29 C 0.631726 -2.256335 -3.318946 0
M  V30 30 C 0.297301 -1.655338 1.943840 0
M  V30 31 C 0.287386 -1.910122 3.435344 0 CFG=2
M  V30 32 C 0.165801 -0.619067 4.239690 0
M  V30 33 H 1.562145 -5.109642 5.560086 0
M  V30 34 H 3.049342 -4.404140 4.900135 0
M  V30 35 H 2.432555 -5.889420 4.137564 0
M  V30 36 H 1.415483 -4.441056 2.594010 0
M  V30 37 H 0.202883 -4.389884 3.910332 0
M  V30 38 H 2.657509 -1.113348 4.017895 0
M  V30 39 H 3.501421 -2.658010 3.958939 0
M  V30 40 H 3.368142 -2.825624 1.615248 0
M  V30 41 H 4.746453 -1.022974 1.310262 0
M  V30 42 H 3.269740 0.077506 1.423107 0
M  V30 43 H 4.219848 -0.483245 2.895182 0
M  V30 44 H -1.176687 -1.089228 -0.347083 0
M  V30 45 H -1.021698 -1.886720 -2.000401 0
M  V30 46 H -2.701563 2.891789 -2.282943 0
M  V30 47 H -5.589595 0.666162 0.394597 0
M  V30 48 H -7.576802 1.958607 0.888967 0
M  V30 49 H -6.063879 5.166452 -1.492542 0
M  V30 50 H 1.406293 1.494890 -4.112496 0
M  V30 51 H 3.170007 -0.342586 -1.942821 0
M  V30 52 H 3.016408 -0.900835 -3.657491 0
M  V30 53 H 3.166112 -2.083155 -2.358501 0
M  V30 54 H 1.386975 -2.569298 -4.091570 0
M  V30 55 H -0.239082 -1.895921 -3.905124 0
M  V30 56 H 0.351869 -3.189280 -2.758544 0
M  V30 57 H -0.340231 -2.424555 1.433660 0
M  V30 58 H -0.142991 -0.655170 1.771320 0
M  V30 59 H -0.662302 -2.464330 3.655876 0
M  V30 60 H -0.881292 -0.235076 4.146896 0
M  V30 61 H 0.840653 0.179510 3.871525 0
M  V30 62 H 0.339050 -0.881151 5.300153 0
M  V30 END ATOM
M  V30 BEGIN BOND
M  V30 1 1 1 2
M  V30 2 1 2 3
M  V30 3 1 3 4
M  V30 4 1 4 5
M  V30 5 1 5 6
M  V30 6 1 5 7
M  V30 7 1 7 8
M  V30 8 2 8 9
M  V30 9 1 8 10
M  V30 10 1 10 11
M  V30 11 1 11 12
M  V30 12 1 12 13
M  V30 13 1 13 14
M  V30 14 1 14 15
M  V30 15 2 15 16
M  V30 16 1 15 17
M  V30 17 2 17 18
M  V30 18 1 18 19
M  V30 19 2 19 20
M  V30 20 1 20 21
M  V30 21 1 20 22
M  V30 22 2 22 23
M  V30 23 2 13 24
M  V30 24 1 24 25
M  V30 25 1 25 26
M  V30 26 1 26 27
M  V30 27 1 27 28
M  V30 28 1 27 29
M  V30 29 1 7 30
M  V30 30 1 30 31
M  V30 31 1 31 32
M  V30 32 1 31 3
M  V30 33 1 27 10
M  V30 34 2 26 12
M  V30 35 1 23 17
M  V30 36 1 1 33
M  V30 37 1 1 34
M  V30 38 1 1 35
M  V30 39 1 2 36
M  V30 40 1 2 37
M  V30 41 1 4 38
M  V30 42 1 4 39
M  V30 43 1 5 40 CFG=3
M  V30 44 1 6 41
M  V30 45 1 6 42
M  V30 46 1 6 43
M  V30 47 1 11 44
M  V30 48 1 11 45
M  V30 49 1 14 46
M  V30 50 1 18 47
M  V30 51 1 19 48
M  V30 52 1 22 49
M  V30 53 1 25 50
M  V30 54 1 28 51
M  V30 55 1 28 52
M  V30 56 1 28 53
M  V30 57 1 29 54
M  V30 58 1 29 55
M  V30 59 1 29 56
M  V30 60 1 30 57
M  V30 61 1 30 58
M  V30 62 1 31 59 CFG=3
M  V30 63 1 32 60
M  V30 64 1 32 61
M  V30 65 1 32 62
M  V30 END BOND
M  V30 END CTAB
M  END
>  <Dataset>  (605) 
ChEMBL_Kinases

>  <Ligand_Instance>  (605) 
nan

>  <PDB_ID>  (605) 
nan

>  <Standardized_SMILES>  (605) 
CCN1C[C@H](C)N(C(=O)N2Cc3c(NC(=O)c4ccc(F)cn4)n[nH]c3C2(C)C)C[C@@H]1C

>  <Name>  (605) 
nan

>  <Pocket>  (605) 
nan

>  <ATP_Site>  (605) 
nan

>  <Peripheral>  (605) 
nan

>  <Num_H_Atoms_ProtBoundConf>  (605) 
nan

>  <Num_Resolved_Atoms>  (605) 
nan

>  <Num_Not_Resolved_Atoms>  (605) 
nan

$$$$
CHEMBL3661205
     RDKit          3D

  0  0  0  0  0  0  0  0  0  0999 V3000
M  V30 BEGIN CTAB
M  V30 COUNTS 43 46 0 0 0
M  V30 BEGIN ATOM
M  V30 1 C -2.237920 -5.766657 0.492584 0
M  V30 2 O -1.031154 -5.595888 1.203150 0
M  V30 3 C -0.189712 -4.525516 1.074095 0
M  V30 4 C -0.291500 -3.410262 0.272339 0
M  V30 5 C 0.685456 -2.415354 0.285319 0
M  V30 6 C 0.505168 -1.276152 -0.586321 0
M  V30 7 C -0.117418 -1.296412 -1.811246 0
M  V30 8 C -0.233018 -0.143819 -2.559957 0
M  V30 9 C 0.261602 1.075636 -2.129210 0
M  V30 10 N 0.152571 2.210966 -2.855964 0
M  V30 11 C 0.650636 3.395641 -2.401615 0
M  V30 12 N 1.270087 3.427540 -1.188211 0
M  V30 13 C 1.392978 2.308549 -0.441270 0
M  V30 14 N 2.040713 2.328203 0.833878 0
M  V30 15 C 1.339030 2.573885 2.050669 0
M  V30 16 C 1.921271 2.606217 3.307005 0
M  V30 17 C 1.184076 2.849994 4.449777 0
M  V30 18 C -0.176007 3.068574 4.338272 0
M  V30 19 F -0.905321 3.310018 5.466997 0
M  V30 20 C -0.841021 3.055052 3.127685 0
M  V30 21 C -0.022599 2.803764 2.044619 0
M  V30 22 C 0.886735 1.112173 -0.906588 0
M  V30 23 C 0.992932 -0.052169 -0.171297 0
M  V30 24 C 1.746146 -2.590597 1.123569 0
M  V30 25 C 1.916636 -3.689400 1.961437 0
M  V30 26 C 0.915204 -4.659937 1.915958 0
M  V30 27 O 1.160778 -5.720422 2.780181 0
M  V30 28 H -3.142025 -5.658659 1.133126 0
M  V30 29 H -2.226913 -6.779152 0.025932 0
M  V30 30 H -2.339854 -5.056878 -0.336132 0
M  V30 31 H -1.177162 -3.391733 -0.343998 0
M  V30 32 H -0.505674 -2.247183 -2.151726 0
M  V30 33 H -0.729092 -0.173251 -3.530698 0
M  V30 34 H 0.558833 4.296432 -2.988965 0
M  V30 35 H 3.071708 2.160047 0.922292 0
M  V30 36 H 2.995104 2.430562 3.363556 0
M  V30 37 H 1.682295 2.866135 5.415826 0
M  V30 38 H -1.898194 3.219762 2.991663 0
M  V30 39 H -0.495640 2.779854 1.051586 0
M  V30 40 H 1.498846 0.019406 0.799226 0
M  V30 41 H 2.490960 -1.793232 1.107490 0
M  V30 42 H 2.787362 -3.742127 2.589420 0
M  V30 43 H 0.428062 -6.292991 3.164340 0
M  V30 END ATOM
M  V30 BEGIN BOND
M  V30 1 1 1 2
M  V30 2 1 2 3
M  V30 3 2 3 4
M  V30 4 1 4 5
M  V30 5 1 5 6
M  V30 6 2 6 7
M  V30 7 1 7 8
M  V30 8 2 8 9
M  V30 9 1 9 10
M  V30 10 2 10 11
M  V30 11 1 11 12
M  V30 12 2 12 13
M  V30 13 1 13 14
M  V30 14 1 14 15
M  V30 15 2 15 16
M  V30 16 1 16 17
M  V30 17 2 17 18
M  V30 18 1 18 19
M  V30 19 1 18 20
M  V30 20 2 20 21
M  V30 21 1 13 22
M  V30 22 2 22 23
M  V30 23 2 5 24
M  V30 24 1 24 25
M  V30 25 2 25 26
M  V30 26 1 26 27
M  V30 27 1 26 3
M  V30 28 1 23 6
M  V30 29 1 22 9
M  V30 30 1 21 15
M  V30 31 1 1 28
M  V30 32 1 1 29
M  V30 33 1 1 30
M  V30 34 1 4 31
M  V30 35 1 7 32
M  V30 36 1 8 33
M  V30 37 1 11 34
M  V30 38 1 14 35
M  V30 39 1 16 36
M  V30 40 1 17 37
M  V30 41 1 20 38
M  V30 42 1 21 39
M  V30 43 1 23 40
M  V30 44 1 24 41
M  V30 45 1 25 42
M  V30 46 1 27 43
M  V30 END BOND
M  V30 END CTAB
M  END
>  <Dataset>  (606) 
ChEMBL_Kinases

>  <Ligand_Instance>  (606) 
nan

>  <PDB_ID>  (606) 
nan

>  <Standardized_SMILES>  (606) 
COc1cc(-c2ccc3ncnc(Nc4ccc(F)cc4)c3c2)ccc1O

>  <Name>  (606) 
nan

>  <Pocket>  (606) 
nan

>  <ATP_Site>  (606) 
nan

>  <Peripheral>  (606) 
nan

>  <Num_H_Atoms_ProtBoundConf>  (606) 
nan

>  <Num_Resolved_Atoms>  (606) 
nan

>  <Num_Not_Resolved_Atoms>  (606) 
nan

$$$$
CHEMBL3661206
     RDKit          3D

  0  0  0  0  0  0  0  0  0  0999 V3000
M  V30 BEGIN CTAB
M  V30 COUNTS 43 46 0 0 0
M  V30 BEGIN ATOM
M  V30 1 C -2.959670 -5.350702 0.505221 0
M  V30 2 O -1.909385 -5.371338 1.438717 0
M  V30 3 C -0.850752 -4.473790 1.401558 0
M  V30 4 C -0.717878 -3.478897 0.454438 0
M  V30 5 C 0.362891 -2.601587 0.457936 0
M  V30 6 C 0.465113 -1.567985 -0.563586 0
M  V30 7 C 0.036971 -1.604814 -1.872426 0
M  V30 8 C 0.220669 -0.514820 -2.697568 0
M  V30 9 C 0.830501 0.645504 -2.264197 0
M  V30 10 N 0.997796 1.693809 -3.094164 0
M  V30 11 C 1.592442 2.830625 -2.685870 0
M  V30 12 N 2.032408 2.910800 -1.396543 0
M  V30 13 C 1.865996 1.862356 -0.563144 0
M  V30 14 N 2.340628 1.987015 0.775267 0
M  V30 15 C 1.606446 2.512070 1.875991 0
M  V30 16 C 1.291812 1.834565 3.035860 0
M  V30 17 C 0.581109 2.394866 4.068649 0
M  V30 18 C 0.135450 3.707112 3.986471 0
M  V30 19 Cl -0.769464 4.435751 5.289054 0
M  V30 20 C 0.432657 4.397917 2.852201 0
M  V30 21 C 1.145805 3.832992 1.817854 0
M  V30 22 F 1.422617 4.567023 0.692501 0
M  V30 23 C 1.258988 0.685479 -0.958793 0
M  V30 24 C 1.080330 -0.385374 -0.142083 0
M  V30 25 C 1.310704 -2.740627 1.431421 0
M  V30 26 C 1.172740 -3.749320 2.389184 0
M  V30 27 C 0.100209 -4.629534 2.395860 0
M  V30 28 O 0.036092 -5.592235 3.368000 0
M  V30 29 H -3.200483 -4.295181 0.286594 0
M  V30 30 H -3.887572 -5.793581 0.907815 0
M  V30 31 H -2.671281 -5.848060 -0.458051 0
M  V30 32 H -1.482448 -3.378594 -0.318184 0
M  V30 33 H -0.431720 -2.540046 -2.149702 0
M  V30 34 H -0.141873 -0.611239 -3.719671 0
M  V30 35 H 1.756068 3.702256 -3.301689 0
M  V30 36 H 3.322196 1.658486 0.955635 0
M  V30 37 H 1.649919 0.816090 3.073192 0
M  V30 38 H 0.379802 1.781585 4.947300 0
M  V30 39 H 0.074604 5.427442 2.807789 0
M  V30 40 H 1.456273 -0.245074 0.862261 0
M  V30 41 H 2.175565 -2.089676 1.486682 0
M  V30 42 H 1.929360 -3.857327 3.164899 0
M  V30 43 H -0.066666 -5.343321 4.346111 0
M  V30 END ATOM
M  V30 BEGIN BOND
M  V30 1 1 1 2
M  V30 2 1 2 3
M  V30 3 2 3 4
M  V30 4 1 4 5
M  V30 5 1 5 6
M  V30 6 2 6 7
M  V30 7 1 7 8
M  V30 8 2 8 9
M  V30 9 1 9 10
M  V30 10 2 10 11
M  V30 11 1 11 12
M  V30 12 2 12 13
M  V30 13 1 13 14
M  V30 14 1 14 15
M  V30 15 2 15 16
M  V30 16 1 16 17
M  V30 17 2 17 18
M  V30 18 1 18 19
M  V30 19 1 18 20
M  V30 20 2 20 21
M  V30 21 1 21 22
M  V30 22 1 13 23
M  V30 23 2 23 24
M  V30 24 2 5 25
M  V30 25 1 25 26
M  V30 26 2 26 27
M  V30 27 1 27 28
M  V30 28 1 27 3
M  V30 29 1 24 6
M  V30 30 1 23 9
M  V30 31 1 21 15
M  V30 32 1 1 29
M  V30 33 1 1 30
M  V30 34 1 1 31
M  V30 35 1 4 32
M  V30 36 1 7 33
M  V30 37 1 8 34
M  V30 38 1 11 35
M  V30 39 1 14 36
M  V30 40 1 16 37
M  V30 41 1 17 38
M  V30 42 1 20 39
M  V30 43 1 24 40
M  V30 44 1 25 41
M  V30 45 1 26 42
M  V30 46 1 28 43
M  V30 END BOND
M  V30 END CTAB
M  END
>  <Dataset>  (607) 
ChEMBL_Kinases

>  <Ligand_Instance>  (607) 
nan

>  <PDB_ID>  (607) 
nan

>  <Standardized_SMILES>  (607) 
COc1cc(-c2ccc3ncnc(Nc4ccc(Cl)cc4F)c3c2)ccc1O

>  <Name>  (607) 
nan

>  <Pocket>  (607) 
nan

>  <ATP_Site>  (607) 
nan

>  <Peripheral>  (607) 
nan

>  <Num_H_Atoms_ProtBoundConf>  (607) 
nan

>  <Num_Resolved_Atoms>  (607) 
nan

>  <Num_Not_Resolved_Atoms>  (607) 
nan

$$$$
CHEMBL3661207
     RDKit          3D

  0  0  0  0  0  0  0  0  0  0999 V3000
M  V30 BEGIN CTAB
M  V30 COUNTS 46 49 0 0 0
M  V30 BEGIN ATOM
M  V30 1 C 0.351943 -4.564980 1.133823 0
M  V30 2 O -0.897555 -4.764387 0.540706 0
M  V30 3 C -1.446814 -3.862676 -0.358310 0
M  V30 4 C -0.814752 -2.701844 -0.741559 0
M  V30 5 C -1.290708 -1.763268 -1.622169 0
M  V30 6 C -0.512492 -0.573265 -1.936307 0
M  V30 7 C -0.520149 0.096912 -3.142642 0
M  V30 8 C 0.269466 1.231571 -3.330522 0
M  V30 9 C 1.085393 1.732316 -2.333342 0
M  V30 10 N 1.861980 2.815153 -2.474203 0
M  V30 11 C 2.642745 3.260162 -1.473367 0
M  V30 12 N 2.654467 2.608539 -0.289212 0
M  V30 13 C 1.893076 1.507596 -0.080608 0
M  V30 14 N 1.964058 0.885935 1.174672 0
M  V30 15 C 1.482877 0.969157 2.495746 0
M  V30 16 C 2.550095 1.116479 3.380755 0
M  V30 17 C 2.325470 1.222649 4.759824 0
M  V30 18 C 1.007954 1.171758 5.163958 0
M  V30 19 C 0.762537 1.282144 6.639277 0
M  V30 20 C -0.080924 1.027826 4.331369 0
M  V30 21 C 0.196833 0.928012 2.985227 0
M  V30 22 F -0.752869 0.786350 2.032553 0
M  V30 23 C 1.102614 1.072807 -1.122883 0
M  V30 24 C 0.315627 -0.046759 -0.956297 0
M  V30 25 C -2.537167 -2.057864 -2.153207 0
M  V30 26 C -3.226968 -3.198438 -1.816110 0
M  V30 27 C -2.686331 -4.109923 -0.915408 0
M  V30 28 O -3.331895 -5.288123 -0.528392 0
M  V30 29 H 1.133185 -4.193988 0.451400 0
M  V30 30 H 0.675980 -5.527438 1.598410 0
M  V30 31 H 0.270068 -3.824947 1.974850 0
M  V30 32 H 0.159469 -2.547602 -0.279566 0
M  V30 33 H -1.157184 -0.297155 -3.918036 0
M  V30 34 H 0.247258 1.741266 -4.287440 0
M  V30 35 H 3.256779 4.143340 -1.633812 0
M  V30 36 H 2.635582 0.105169 0.917394 0
M  V30 37 H 3.621353 1.165295 3.132270 0
M  V30 38 H 3.130731 1.339078 5.484249 0
M  V30 39 H 0.777482 2.328928 6.995739 0
M  V30 40 H 1.524654 0.678960 7.209789 0
M  V30 41 H -0.202484 0.826302 6.863863 0
M  V30 42 H -1.098061 0.991018 4.664149 0
M  V30 43 H 0.352389 -0.539237 -0.012462 0
M  V30 44 H -2.963395 -1.346530 -2.859185 0
M  V30 45 H -4.192142 -3.444405 -2.215827 0
M  V30 46 H -3.651877 -5.428365 0.438744 0
M  V30 END ATOM
M  V30 BEGIN BOND
M  V30 1 1 1 2
M  V30 2 1 2 3
M  V30 3 2 3 4
M  V30 4 1 4 5
M  V30 5 1 5 6
M  V30 6 2 6 7
M  V30 7 1 7 8
M  V30 8 2 8 9
M  V30 9 1 9 10
M  V30 10 2 10 11
M  V30 11 1 11 12
M  V30 12 2 12 13
M  V30 13 1 13 14
M  V30 14 1 14 15
M  V30 15 2 15 16
M  V30 16 1 16 17
M  V30 17 2 17 18
M  V30 18 1 18 19
M  V30 19 1 18 20
M  V30 20 2 20 21
M  V30 21 1 21 22
M  V30 22 1 13 23
M  V30 23 2 23 24
M  V30 24 2 5 25
M  V30 25 1 25 26
M  V30 26 2 26 27
M  V30 27 1 27 28
M  V30 28 1 27 3
M  V30 29 1 24 6
M  V30 30 1 23 9
M  V30 31 1 21 15
M  V30 32 1 1 29
M  V30 33 1 1 30
M  V30 34 1 1 31
M  V30 35 1 4 32
M  V30 36 1 7 33
M  V30 37 1 8 34
M  V30 38 1 11 35
M  V30 39 1 14 36
M  V30 40 1 16 37
M  V30 41 1 17 38
M  V30 42 1 19 39
M  V30 43 1 19 40
M  V30 44 1 19 41
M  V30 45 1 20 42
M  V30 46 1 24 43
M  V30 47 1 25 44
M  V30 48 1 26 45
M  V30 49 1 28 46
M  V30 END BOND
M  V30 END CTAB
M  END
>  <Dataset>  (608) 
ChEMBL_Kinases

>  <Ligand_Instance>  (608) 
nan

>  <PDB_ID>  (608) 
nan

>  <Standardized_SMILES>  (608) 
COc1cc(-c2ccc3ncnc(Nc4ccc(C)cc4F)c3c2)ccc1O

>  <Name>  (608) 
nan

>  <Pocket>  (608) 
nan

>  <ATP_Site>  (608) 
nan

>  <Peripheral>  (608) 
nan

>  <Num_H_Atoms_ProtBoundConf>  (608) 
nan

>  <Num_Resolved_Atoms>  (608) 
nan

>  <Num_Not_Resolved_Atoms>  (608) 
nan

$$$$
CHEMBL3661209
     RDKit          3D

  0  0  0  0  0  0  0  0  0  0999 V3000
M  V30 BEGIN CTAB
M  V30 COUNTS 44 47 0 0 0
M  V30 BEGIN ATOM
M  V30 1 C -2.382675 -5.083846 -0.469942 0
M  V30 2 O -1.232268 -5.208203 0.335139 0
M  V30 3 C -0.322098 -4.174032 0.354116 0
M  V30 4 C -0.384980 -2.996291 -0.335239 0
M  V30 5 C 0.605700 -2.050570 -0.211158 0
M  V30 6 C 0.672869 -0.777686 -0.904832 0
M  V30 7 C 0.225850 -0.499798 -2.167128 0
M  V30 8 C 0.361952 0.777691 -2.721418 0
M  V30 9 C 0.954578 1.792951 -1.996888 0
M  V30 10 N 1.112288 3.049540 -2.488968 0
M  V30 11 C 1.695223 3.987117 -1.733003 0
M  V30 12 N 2.157446 3.782254 -0.474995 0
M  V30 13 C 2.038285 2.545240 0.097612 0
M  V30 14 N 2.433189 2.156059 1.416775 0
M  V30 15 C 1.327159 1.992922 2.330845 0
M  V30 16 C 1.481249 1.588687 3.646004 0
M  V30 17 C 0.423186 1.419148 4.495307 0
M  V30 18 C -0.878247 1.657406 4.044353 0
M  V30 19 O -2.020187 1.508090 4.841733 0
M  V30 20 C -1.105507 2.061553 2.756281 0
M  V30 21 C 0.012925 2.210174 1.959190 0
M  V30 22 C 1.426697 1.588792 -0.720522 0
M  V30 23 C 1.260115 0.303413 -0.235850 0
M  V30 24 C 1.654145 -2.368369 0.645510 0
M  V30 25 C 1.778744 -3.553629 1.378977 0
M  V30 26 C 0.742925 -4.478518 1.213626 0
M  V30 27 O 0.873512 -5.662214 1.948230 0
M  V30 28 H -3.181065 -5.794091 -0.103145 0
M  V30 29 H -2.235394 -5.303593 -1.531850 0
M  V30 30 H -2.805033 -4.045980 -0.399678 0
M  V30 31 H -1.209343 -2.812021 -0.971541 0
M  V30 32 H -0.235273 -1.317466 -2.711966 0
M  V30 33 H -0.001021 0.977460 -3.722813 0
M  V30 34 H 1.862224 5.019379 -2.046712 0
M  V30 35 H 3.383641 1.970929 1.826767 0
M  V30 36 H 2.482013 1.397458 4.022013 0
M  V30 37 H 0.507610 1.109852 5.509972 0
M  V30 38 H -2.746297 0.926046 4.430179 0
M  V30 39 H -2.086160 2.265278 2.328458 0
M  V30 40 H -0.165520 2.532319 0.932786 0
M  V30 41 H 1.618048 0.114065 0.762948 0
M  V30 42 H 2.491284 -1.698974 0.822248 0
M  V30 43 H 2.598241 -3.763490 2.023239 0
M  V30 44 H 0.207859 -5.815870 2.702926 0
M  V30 END ATOM
M  V30 BEGIN BOND
M  V30 1 1 1 2
M  V30 2 1 2 3
M  V30 3 2 3 4
M  V30 4 1 4 5
M  V30 5 1 5 6
M  V30 6 2 6 7
M  V30 7 1 7 8
M  V30 8 2 8 9
M  V30 9 1 9 10
M  V30 10 2 10 11
M  V30 11 1 11 12
M  V30 12 2 12 13
M  V30 13 1 13 14
M  V30 14 1 14 15
M  V30 15 2 15 16
M  V30 16 1 16 17
M  V30 17 2 17 18
M  V30 18 1 18 19
M  V30 19 1 18 20
M  V30 20 2 20 21
M  V30 21 1 13 22
M  V30 22 2 22 23
M  V30 23 2 5 24
M  V30 24 1 24 25
M  V30 25 2 25 26
M  V30 26 1 26 27
M  V30 27 1 26 3
M  V30 28 1 23 6
M  V30 29 1 22 9
M  V30 30 1 21 15
M  V30 31 1 1 28
M  V30 32 1 1 29
M  V30 33 1 1 30
M  V30 34 1 4 31
M  V30 35 1 7 32
M  V30 36 1 8 33
M  V30 37 1 11 34
M  V30 38 1 14 35
M  V30 39 1 16 36
M  V30 40 1 17 37
M  V30 41 1 19 38
M  V30 42 1 20 39
M  V30 43 1 21 40
M  V30 44 1 23 41
M  V30 45 1 24 42
M  V30 46 1 25 43
M  V30 47 1 27 44
M  V30 END BOND
M  V30 END CTAB
M  END
>  <Dataset>  (609) 
ChEMBL_Kinases

>  <Ligand_Instance>  (609) 
nan

>  <PDB_ID>  (609) 
nan

>  <Standardized_SMILES>  (609) 
COc1cc(-c2ccc3ncnc(Nc4ccc(O)cc4)c3c2)ccc1O

>  <Name>  (609) 
nan

>  <Pocket>  (609) 
nan

>  <ATP_Site>  (609) 
nan

>  <Peripheral>  (609) 
nan

>  <Num_H_Atoms_ProtBoundConf>  (609) 
nan

>  <Num_Resolved_Atoms>  (609) 
nan

>  <Num_Not_Resolved_Atoms>  (609) 
nan

$$$$
CHEMBL3661210
     RDKit          3D

  0  0  0  0  0  0  0  0  0  0999 V3000
M  V30 BEGIN CTAB
M  V30 COUNTS 43 46 0 0 0
M  V30 BEGIN ATOM
M  V30 1 C -1.798224 -2.611444 3.221676 0
M  V30 2 O -1.058056 -3.700935 2.789865 0
M  V30 3 C -0.175940 -3.711607 1.728380 0
M  V30 4 C 0.074824 -2.590639 0.952580 0
M  V30 5 C 0.975802 -2.709656 -0.087029 0
M  V30 6 C 1.352188 -1.589709 -0.955906 0
M  V30 7 C 1.705003 -1.552427 -2.277381 0
M  V30 8 C 2.061573 -0.382990 -2.917922 0
M  V30 9 C 2.049792 0.796774 -2.154821 0
M  V30 10 N 2.411668 1.938455 -2.833220 0
M  V30 11 C 2.404961 3.106033 -2.103021 0
M  V30 12 N 2.064747 3.179972 -0.772696 0
M  V30 13 C 1.718066 2.003274 -0.163233 0
M  V30 14 N 1.340913 1.999196 1.229348 0
M  V30 15 C 0.137229 2.013859 1.982663 0
M  V30 16 C -0.341784 1.081739 2.911494 0
M  V30 17 C -1.551599 1.301995 3.524582 0
M  V30 18 C -2.313820 2.413012 3.258312 0
M  V30 19 F -3.494457 2.490489 3.942636 0
M  V30 20 C -1.869507 3.358190 2.344718 0
M  V30 21 C -0.642904 3.138857 1.720051 0
M  V30 22 F -0.319265 4.127451 0.859073 0
M  V30 23 C 1.702403 0.802700 -0.832019 0
M  V30 24 C 1.357573 -0.385449 -0.241959 0
M  V30 25 C 1.639958 -3.888592 -0.395427 0
M  V30 26 C 1.399149 -5.017221 0.372262 0
M  V30 27 C 0.491459 -4.904660 1.423892 0
M  V30 28 O 0.257054 -6.041059 2.189630 0
M  V30 29 H -1.367021 -2.223782 4.185134 0
M  V30 30 H -2.859221 -2.906811 3.489878 0
M  V30 31 H -1.885471 -1.813713 2.483412 0
M  V30 32 H -0.406745 -1.644730 1.131595 0
M  V30 33 H 1.663549 -2.555029 -2.735460 0
M  V30 34 H 2.323171 -0.463879 -3.964055 0
M  V30 35 H 2.685108 4.058405 -2.583611 0
M  V30 36 H 2.282004 1.991125 1.732751 0
M  V30 37 H 0.341530 0.260495 3.037500 0
M  V30 38 H -1.762085 0.480425 4.201997 0
M  V30 39 H -2.559115 4.177756 2.235782 0
M  V30 40 H 1.095119 -0.279861 0.816817 0
M  V30 41 H 2.334031 -4.001175 -1.192598 0
M  V30 42 H 1.878416 -5.990849 0.197091 0
M  V30 43 H 0.632891 -6.133367 3.136030 0
M  V30 END ATOM
M  V30 BEGIN BOND
M  V30 1 1 1 2
M  V30 2 1 2 3
M  V30 3 2 3 4
M  V30 4 1 4 5
M  V30 5 1 5 6
M  V30 6 2 6 7
M  V30 7 1 7 8
M  V30 8 2 8 9
M  V30 9 1 9 10
M  V30 10 2 10 11
M  V30 11 1 11 12
M  V30 12 2 12 13
M  V30 13 1 13 14
M  V30 14 1 14 15
M  V30 15 2 15 16
M  V30 16 1 16 17
M  V30 17 2 17 18
M  V30 18 1 18 19
M  V30 19 1 18 20
M  V30 20 2 20 21
M  V30 21 1 21 22
M  V30 22 1 13 23
M  V30 23 2 23 24
M  V30 24 2 5 25
M  V30 25 1 25 26
M  V30 26 2 26 27
M  V30 27 1 27 28
M  V30 28 1 27 3
M  V30 29 1 24 6
M  V30 30 1 23 9
M  V30 31 1 21 15
M  V30 32 1 1 29
M  V30 33 1 1 30
M  V30 34 1 1 31
M  V30 35 1 4 32
M  V30 36 1 7 33
M  V30 37 1 8 34
M  V30 38 1 11 35
M  V30 39 1 14 36
M  V30 40 1 16 37
M  V30 41 1 17 38
M  V30 42 1 20 39
M  V30 43 1 24 40
M  V30 44 1 25 41
M  V30 45 1 26 42
M  V30 46 1 28 43
M  V30 END BOND
M  V30 END CTAB
M  END
>  <Dataset>  (610) 
ChEMBL_Kinases

>  <Ligand_Instance>  (610) 
nan

>  <PDB_ID>  (610) 
nan

>  <Standardized_SMILES>  (610) 
COc1cc(-c2ccc3ncnc(Nc4ccc(F)cc4F)c3c2)ccc1O

>  <Name>  (610) 
nan

>  <Pocket>  (610) 
nan

>  <ATP_Site>  (610) 
nan

>  <Peripheral>  (610) 
nan

>  <Num_H_Atoms_ProtBoundConf>  (610) 
nan

>  <Num_Resolved_Atoms>  (610) 
nan

>  <Num_Not_Resolved_Atoms>  (610) 
nan

$$$$
CHEMBL3661211
     RDKit          3D

  0  0  0  0  0  0  0  0  0  0999 V3000
M  V30 BEGIN CTAB
M  V30 COUNTS 44 47 0 0 0
M  V30 BEGIN ATOM
M  V30 1 C -2.457167 -2.607904 2.817127 0
M  V30 2 O -2.061459 -3.610685 1.936279 0
M  V30 3 C -1.203648 -3.489061 0.864161 0
M  V30 4 C -0.526078 -2.375006 0.407838 0
M  V30 5 C 0.297806 -2.419843 -0.691622 0
M  V30 6 C 1.014744 -1.236042 -1.131990 0
M  V30 7 C 1.285084 -1.007978 -2.484030 0
M  V30 8 C 1.969314 0.105096 -2.874522 0
M  V30 9 C 2.433005 1.059369 -1.996427 0
M  V30 10 N 3.108188 2.180974 -2.292215 0
M  V30 11 C 3.501252 3.032155 -1.324930 0
M  V30 12 N 3.243269 2.812497 -0.011068 0
M  V30 13 C 2.560038 1.686668 0.340414 0
M  V30 14 N 2.355479 1.569594 1.740907 0
M  V30 15 C 1.155192 1.571501 2.513475 0
M  V30 16 C 0.655622 0.632605 3.365543 0
M  V30 17 C -0.546977 0.800857 4.014138 0
M  V30 18 C -1.268939 1.978563 3.782283 0
M  V30 19 Cl -2.783635 2.087582 4.658213 0
M  V30 20 C -0.787457 2.951477 2.922736 0
M  V30 21 C 0.432694 2.739054 2.288469 0
M  V30 22 O 0.815396 3.792862 1.443545 0
M  V30 23 C 2.171320 0.836792 -0.673563 0
M  V30 24 C 1.482213 -0.274715 -0.239372 0
M  V30 25 C 0.464565 -3.625728 -1.379908 0
M  V30 26 C -0.207010 -4.776636 -0.944187 0
M  V30 27 C -1.033280 -4.690140 0.175447 0
M  V30 28 O -1.632068 -5.887336 0.500375 0
M  V30 29 H -1.618725 -1.966218 3.083521 0
M  V30 30 H -2.844416 -3.053470 3.760233 0
M  V30 31 H -3.312521 -2.010695 2.392946 0
M  V30 32 H -0.701907 -1.490991 0.979122 0
M  V30 33 H 0.948657 -1.724138 -3.223864 0
M  V30 34 H 2.181564 0.287380 -3.927674 0
M  V30 35 H 4.053111 3.939580 -1.621792 0
M  V30 36 H 3.200166 1.469280 2.327712 0
M  V30 37 H 1.330225 -0.233574 3.451627 0
M  V30 38 H -0.792348 -0.036310 4.651828 0
M  V30 39 H -1.367411 3.836824 2.772239 0
M  V30 40 H 0.146661 4.173799 0.791196 0
M  V30 41 H 1.262943 -0.481778 0.796224 0
M  V30 42 H 1.128518 -3.626279 -2.255249 0
M  V30 43 H -0.037330 -5.673682 -1.521578 0
M  V30 44 H -2.616766 -5.917122 0.693979 0
M  V30 END ATOM
M  V30 BEGIN BOND
M  V30 1 1 1 2
M  V30 2 1 2 3
M  V30 3 2 3 4
M  V30 4 1 4 5
M  V30 5 1 5 6
M  V30 6 2 6 7
M  V30 7 1 7 8
M  V30 8 2 8 9
M  V30 9 1 9 10
M  V30 10 2 10 11
M  V30 11 1 11 12
M  V30 12 2 12 13
M  V30 13 1 13 14
M  V30 14 1 14 15
M  V30 15 2 15 16
M  V30 16 1 16 17
M  V30 17 2 17 18
M  V30 18 1 18 19
M  V30 19 1 18 20
M  V30 20 2 20 21
M  V30 21 1 21 22
M  V30 22 1 13 23
M  V30 23 2 23 24
M  V30 24 2 5 25
M  V30 25 1 25 26
M  V30 26 2 26 27
M  V30 27 1 27 28
M  V30 28 1 27 3
M  V30 29 1 24 6
M  V30 30 1 23 9
M  V30 31 1 21 15
M  V30 32 1 1 29
M  V30 33 1 1 30
M  V30 34 1 1 31
M  V30 35 1 4 32
M  V30 36 1 7 33
M  V30 37 1 8 34
M  V30 38 1 11 35
M  V30 39 1 14 36
M  V30 40 1 16 37
M  V30 41 1 17 38
M  V30 42 1 20 39
M  V30 43 1 22 40
M  V30 44 1 24 41
M  V30 45 1 25 42
M  V30 46 1 26 43
M  V30 47 1 28 44
M  V30 END BOND
M  V30 END CTAB
M  END
>  <Dataset>  (611) 
ChEMBL_Kinases

>  <Ligand_Instance>  (611) 
nan

>  <PDB_ID>  (611) 
nan

>  <Standardized_SMILES>  (611) 
COc1cc(-c2ccc3ncnc(Nc4ccc(Cl)cc4O)c3c2)ccc1O

>  <Name>  (611) 
nan

>  <Pocket>  (611) 
nan

>  <ATP_Site>  (611) 
nan

>  <Peripheral>  (611) 
nan

>  <Num_H_Atoms_ProtBoundConf>  (611) 
nan

>  <Num_Resolved_Atoms>  (611) 
nan

>  <Num_Not_Resolved_Atoms>  (611) 
nan

$$$$
CHEMBL3661212
     RDKit          3D

  0  0  0  0  0  0  0  0  0  0999 V3000
M  V30 BEGIN CTAB
M  V30 COUNTS 47 50 0 0 0
M  V30 BEGIN ATOM
M  V30 1 C 0.899833 -4.519406 5.031003 0
M  V30 2 O 0.954695 -3.109859 4.905305 0
M  V30 3 C 1.586722 -2.476341 3.834193 0
M  V30 4 C 2.221422 -3.164972 2.801438 0
M  V30 5 C 2.822561 -2.471118 1.775288 0
M  V30 6 C 2.815958 -1.083071 1.737214 0
M  V30 7 C 2.199318 -0.381195 2.736735 0
M  V30 8 N 2.071824 0.998921 2.822894 0
M  V30 9 C 2.232887 2.112868 1.987540 0
M  V30 10 N 3.118035 3.127056 2.064548 0
M  V30 11 C 3.133593 4.142506 1.167183 0
M  V30 12 N 2.302145 4.256630 0.131397 0
M  V30 13 C 1.375880 3.279021 -0.027381 0
M  V30 14 C 0.464199 3.274007 -1.065616 0
M  V30 15 C -0.470626 2.280776 -1.241046 0
M  V30 16 C -0.525870 1.213750 -0.344639 0
M  V30 17 C -1.474938 0.097963 -0.431163 0
M  V30 18 C -1.888839 -0.529933 0.747693 0
M  V30 19 C -2.779272 -1.593316 0.761560 0
M  V30 20 C -3.264673 -2.031498 -0.458248 0
M  V30 21 O -4.171333 -3.112291 -0.466555 0
M  V30 22 C -2.843336 -1.398907 -1.591217 0
M  V30 23 O -3.402706 -1.924812 -2.775769 0
M  V30 24 C -3.038229 -1.350012 -4.036357 0
M  V30 25 C -1.975217 -0.356139 -1.660689 0
M  V30 26 C 0.404445 1.247819 0.691017 0
M  V30 27 C 1.351662 2.228203 0.892759 0
M  V30 28 C 1.603587 -1.109536 3.757610 0
M  V30 29 H 0.096244 -4.827371 5.743706 0
M  V30 30 H 0.657912 -5.017577 4.059121 0
M  V30 31 H 1.893248 -4.832675 5.404073 0
M  V30 32 H 2.211127 -4.249923 2.847641 0
M  V30 33 H 3.320563 -2.994276 0.954787 0
M  V30 34 H 3.268132 -0.473631 0.961033 0
M  V30 35 H 1.795716 1.505738 3.721166 0
M  V30 36 H 3.868184 4.911552 1.284830 0
M  V30 37 H 0.500526 4.098625 -1.761771 0
M  V30 38 H -1.176946 2.277618 -2.054632 0
M  V30 39 H -1.555687 -0.241134 1.736424 0
M  V30 40 H -3.094933 -2.078178 1.676032 0
M  V30 41 H -3.828803 -4.063432 -0.436863 0
M  V30 42 H -3.306333 -2.035632 -4.867709 0
M  V30 43 H -1.954151 -1.109939 -4.095129 0
M  V30 44 H -3.616600 -0.433882 -4.200501 0
M  V30 45 H -1.657770 0.137530 -2.564118 0
M  V30 46 H 0.349358 0.423251 1.382127 0
M  V30 47 H 1.096572 -0.588053 4.584683 0
M  V30 END ATOM
M  V30 BEGIN BOND
M  V30 1 1 1 2
M  V30 2 1 2 3
M  V30 3 2 3 4
M  V30 4 1 4 5
M  V30 5 2 5 6
M  V30 6 1 6 7
M  V30 7 1 7 8
M  V30 8 1 8 9
M  V30 9 2 9 10
M  V30 10 1 10 11
M  V30 11 2 11 12
M  V30 12 1 12 13
M  V30 13 2 13 14
M  V30 14 1 14 15
M  V30 15 2 15 16
M  V30 16 1 16 17
M  V30 17 2 17 18
M  V30 18 1 18 19
M  V30 19 2 19 20
M  V30 20 1 20 21
M  V30 21 1 20 22
M  V30 22 1 22 23
M  V30 23 1 23 24
M  V30 24 2 22 25
M  V30 25 1 16 26
M  V30 26 2 26 27
M  V30 27 2 7 28
M  V30 28 1 28 3
M  V30 29 1 27 9
M  V30 30 1 27 13
M  V30 31 1 25 17
M  V30 32 1 1 29
M  V30 33 1 1 30
M  V30 34 1 1 31
M  V30 35 1 4 32
M  V30 36 1 5 33
M  V30 37 1 6 34
M  V30 38 1 8 35
M  V30 39 1 11 36
M  V30 40 1 14 37
M  V30 41 1 15 38
M  V30 42 1 18 39
M  V30 43 1 19 40
M  V30 44 1 21 41
M  V30 45 1 24 42
M  V30 46 1 24 43
M  V30 47 1 24 44
M  V30 48 1 25 45
M  V30 49 1 26 46
M  V30 50 1 28 47
M  V30 END BOND
M  V30 END CTAB
M  END
>  <Dataset>  (612) 
ChEMBL_Kinases

>  <Ligand_Instance>  (612) 
nan

>  <PDB_ID>  (612) 
nan

>  <Standardized_SMILES>  (612) 
COc1cccc(Nc2ncnc3ccc(-c4ccc(O)c(OC)c4)cc23)c1

>  <Name>  (612) 
nan

>  <Pocket>  (612) 
nan

>  <ATP_Site>  (612) 
nan

>  <Peripheral>  (612) 
nan

>  <Num_H_Atoms_ProtBoundConf>  (612) 
nan

>  <Num_Resolved_Atoms>  (612) 
nan

>  <Num_Not_Resolved_Atoms>  (612) 
nan

$$$$
CHEMBL3661224
     RDKit          3D

  0  0  0  0  0  0  0  0  0  0999 V3000
M  V30 BEGIN CTAB
M  V30 COUNTS 46 50 0 0 0
M  V30 BEGIN ATOM
M  V30 1 C -1.782683 -3.310219 2.283297 0
M  V30 2 O -1.686275 -4.028898 1.074790 0
M  V30 3 C -0.995980 -3.599535 -0.045621 0
M  V30 4 C -0.284826 -2.447696 -0.241517 0
M  V30 5 C 0.353708 -2.162909 -1.430040 0
M  V30 6 C 1.091422 -0.909795 -1.552269 0
M  V30 7 C 2.213100 -0.772765 -2.345549 0
M  V30 8 C 2.870688 0.448057 -2.417081 0
M  V30 9 C 2.418405 1.543759 -1.700062 0
M  V30 10 N 3.112602 2.713599 -1.815311 0
M  V30 11 C 2.634702 3.768692 -1.091803 0
M  V30 12 N 1.546966 3.695568 -0.301893 0
M  V30 13 C 0.845796 2.531792 -0.179347 0
M  V30 14 N -0.309563 2.279570 0.600514 0
M  V30 15 C -0.087874 1.807401 1.924496 0
M  V30 16 C 1.191269 1.613934 2.408888 0
M  V30 17 C 1.431406 1.151096 3.700147 0
M  V30 18 C 0.322127 0.882964 4.506864 0
M  V30 19 C -0.984467 1.066345 4.052351 0
M  V30 20 C -1.132527 1.521537 2.778215 0
M  V30 21 O -1.845940 0.706998 5.104317 0
M  V30 22 C -1.106349 -0.186741 5.947685 0
M  V30 23 O 0.191027 0.415528 5.828004 0
M  V30 24 C 1.286955 1.443072 -0.886971 0
M  V30 25 C 0.680790 0.209454 -0.858452 0
M  V30 26 C 0.256549 -3.104484 -2.462665 0
M  V30 27 C -0.457893 -4.283079 -2.294629 0
M  V30 28 C -1.092184 -4.536020 -1.073709 0
M  V30 29 O -1.787713 -5.758043 -1.011209 0
M  V30 30 H -1.235365 -3.920171 3.055608 0
M  V30 31 H -2.859195 -3.203419 2.574932 0
M  V30 32 H -1.333063 -2.315516 2.241967 0
M  V30 33 H -0.264230 -1.791633 0.594064 0
M  V30 34 H 2.579120 -1.618396 -2.911621 0
M  V30 35 H 3.740168 0.504654 -3.049129 0
M  V30 36 H 3.148179 4.723805 -1.145888 0
M  V30 37 H -1.300669 2.409814 0.288175 0
M  V30 38 H 2.064344 1.812827 1.807947 0
M  V30 39 H 2.444361 0.997029 4.086276 0
M  V30 40 H -2.133164 1.667006 2.416369 0
M  V30 41 H -0.997690 -1.190402 5.486049 0
M  V30 42 H -1.479476 -0.217448 6.969369 0
M  V30 43 H -0.207767 0.102062 -0.229558 0
M  V30 44 H 0.766851 -2.874100 -3.409022 0
M  V30 45 H -0.487141 -4.962466 -3.140477 0
M  V30 46 H -2.450203 -5.869298 -0.248600 0
M  V30 END ATOM
M  V30 BEGIN BOND
M  V30 1 1 1 2
M  V30 2 1 2 3
M  V30 3 2 3 4
M  V30 4 1 4 5
M  V30 5 1 5 6
M  V30 6 2 6 7
M  V30 7 1 7 8
M  V30 8 2 8 9
M  V30 9 1 9 10
M  V30 10 2 10 11
M  V30 11 1 11 12
M  V30 12 2 12 13
M  V30 13 1 13 14
M  V30 14 1 14 15
M  V30 15 2 15 16
M  V30 16 1 16 17
M  V30 17 2 17 18
M  V30 18 1 18 19
M  V30 19 2 19 20
M  V30 20 1 19 21
M  V30 21 1 21 22
M  V30 22 1 22 23
M  V30 23 1 13 24
M  V30 24 2 24 25
M  V30 25 2 5 26
M  V30 26 1 26 27
M  V30 27 2 27 28
M  V30 28 1 28 29
M  V30 29 1 28 3
M  V30 30 1 25 6
M  V30 31 1 24 9
M  V30 32 1 20 15
M  V30 33 1 23 18
M  V30 34 1 1 30
M  V30 35 1 1 31
M  V30 36 1 1 32
M  V30 37 1 4 33
M  V30 38 1 7 34
M  V30 39 1 8 35
M  V30 40 1 11 36
M  V30 41 1 14 37
M  V30 42 1 16 38
M  V30 43 1 17 39
M  V30 44 1 20 40
M  V30 45 1 22 41
M  V30 46 1 22 42
M  V30 47 1 25 43
M  V30 48 1 26 44
M  V30 49 1 27 45
M  V30 50 1 29 46
M  V30 END BOND
M  V30 END CTAB
M  END
>  <Dataset>  (613) 
ChEMBL_Kinases

>  <Ligand_Instance>  (613) 
nan

>  <PDB_ID>  (613) 
nan

>  <Standardized_SMILES>  (613) 
COc1cc(-c2ccc3ncnc(Nc4ccc5c(c4)OCO5)c3c2)ccc1O

>  <Name>  (613) 
nan

>  <Pocket>  (613) 
nan

>  <ATP_Site>  (613) 
nan

>  <Peripheral>  (613) 
nan

>  <Num_H_Atoms_ProtBoundConf>  (613) 
nan

>  <Num_Resolved_Atoms>  (613) 
nan

>  <Num_Not_Resolved_Atoms>  (613) 
nan

$$$$
CHEMBL3661215
     RDKit          3D

  0  0  0  0  0  0  0  0  0  0999 V3000
M  V30 BEGIN CTAB
M  V30 COUNTS 48 51 0 0 0
M  V30 BEGIN ATOM
M  V30 1 C -1.292945 -4.400742 -2.121499 0
M  V30 2 O -0.308890 -4.535777 -1.121075 0
M  V30 3 C 0.622972 -3.551320 -0.864491 0
M  V30 4 C 0.665623 -2.363979 -1.581851 0
M  V30 5 C 1.673238 -1.516566 -1.161448 0
M  V30 6 C 2.573767 -1.721022 -0.172035 0
M  V30 7 N 3.557931 -0.821151 0.257728 0
M  V30 8 C 3.372812 0.464616 -0.354564 0
M  V30 9 N 4.197567 0.964831 -1.259549 0
M  V30 10 C 3.914809 2.171964 -1.774968 0
M  V30 11 N 2.813677 2.868923 -1.383650 0
M  V30 12 C 1.954865 2.380045 -0.461026 0
M  V30 13 C 0.831408 3.081760 -0.077314 0
M  V30 14 C -0.076779 2.588823 0.860306 0
M  V30 15 C 0.215108 1.349400 1.387825 0
M  V30 16 C -0.658153 0.662531 2.377709 0
M  V30 17 C -0.265936 -0.205415 3.376776 0
M  V30 18 C -1.251960 -0.757440 4.179098 0
M  V30 19 C -2.593743 -0.480971 4.025194 0
M  V30 20 O -3.469848 -1.127306 4.922708 0
M  V30 21 C -2.999733 0.396988 3.017638 0
M  V30 22 O -4.371283 0.558724 3.007197 0
M  V30 23 C -4.939390 1.420436 2.049222 0
M  V30 24 C -2.020385 0.942278 2.224866 0
M  V30 25 C 1.335933 0.633534 1.016548 0
M  V30 26 C 2.244177 1.127192 0.077186 0
M  V30 27 C 2.481457 -2.939671 0.514128 0
M  V30 28 C 1.492895 -3.838159 0.145375 0
M  V30 29 O 1.480297 -5.017465 0.880832 0
M  V30 30 H -1.656690 -3.341845 -2.153447 0
M  V30 31 H -0.846978 -4.740778 -3.075545 0
M  V30 32 H -2.175931 -5.075897 -1.913880 0
M  V30 33 H -0.024649 -2.154193 -2.377856 0
M  V30 34 H 1.731472 -0.578102 -1.700908 0
M  V30 35 H 4.307857 -1.062641 0.920994 0
M  V30 36 H 4.609186 2.545091 -2.510011 0
M  V30 37 H 0.660747 4.048720 -0.530686 0
M  V30 38 H -0.956720 3.109702 1.176476 0
M  V30 39 H 0.794668 -0.370693 3.438785 0
M  V30 40 H -0.798341 -1.420120 4.917245 0
M  V30 41 H -3.792292 -2.087947 4.719178 0
M  V30 42 H -4.820288 2.481783 2.410492 0
M  V30 43 H -4.397557 1.388438 1.070078 0
M  V30 44 H -5.987712 1.154978 1.807409 0
M  V30 45 H -2.426118 1.615065 1.462925 0
M  V30 46 H 1.524937 -0.318705 1.464839 0
M  V30 47 H 3.195917 -3.147209 1.326268 0
M  V30 48 H 0.623026 -5.547924 1.055504 0
M  V30 END ATOM
M  V30 BEGIN BOND
M  V30 1 1 1 2
M  V30 2 1 2 3
M  V30 3 2 3 4
M  V30 4 1 4 5
M  V30 5 2 5 6
M  V30 6 1 6 7
M  V30 7 1 7 8
M  V30 8 2 8 9
M  V30 9 1 9 10
M  V30 10 2 10 11
M  V30 11 1 11 12
M  V30 12 2 12 13
M  V30 13 1 13 14
M  V30 14 2 14 15
M  V30 15 1 15 16
M  V30 16 2 16 17
M  V30 17 1 17 18
M  V30 18 2 18 19
M  V30 19 1 19 20
M  V30 20 1 19 21
M  V30 21 1 21 22
M  V30 22 1 22 23
M  V30 23 2 21 24
M  V30 24 1 15 25
M  V30 25 2 25 26
M  V30 26 1 6 27
M  V30 27 2 27 28
M  V30 28 1 28 29
M  V30 29 1 28 3
M  V30 30 1 26 8
M  V30 31 1 26 12
M  V30 32 1 24 16
M  V30 33 1 1 30
M  V30 34 1 1 31
M  V30 35 1 1 32
M  V30 36 1 4 33
M  V30 37 1 5 34
M  V30 38 1 7 35
M  V30 39 1 10 36
M  V30 40 1 13 37
M  V30 41 1 14 38
M  V30 42 1 17 39
M  V30 43 1 18 40
M  V30 44 1 20 41
M  V30 45 1 23 42
M  V30 46 1 23 43
M  V30 47 1 23 44
M  V30 48 1 24 45
M  V30 49 1 25 46
M  V30 50 1 27 47
M  V30 51 1 29 48
M  V30 END BOND
M  V30 END CTAB
M  END
>  <Dataset>  (614) 
ChEMBL_Kinases

>  <Ligand_Instance>  (614) 
nan

>  <PDB_ID>  (614) 
nan

>  <Standardized_SMILES>  (614) 
COc1ccc(Nc2ncnc3ccc(-c4ccc(O)c(OC)c4)cc23)cc1O

>  <Name>  (614) 
nan

>  <Pocket>  (614) 
nan

>  <ATP_Site>  (614) 
nan

>  <Peripheral>  (614) 
nan

>  <Num_H_Atoms_ProtBoundConf>  (614) 
nan

>  <Num_Resolved_Atoms>  (614) 
nan

>  <Num_Not_Resolved_Atoms>  (614) 
nan

$$$$
CHEMBL3661216
     RDKit          3D

  0  0  0  0  0  0  0  0  0  0999 V3000
M  V30 BEGIN CTAB
M  V30 COUNTS 48 51 0 0 0
M  V30 BEGIN ATOM
M  V30 1 C -1.889460 -5.461796 -2.116621 0
M  V30 2 O -1.697166 -5.352681 -0.726504 0
M  V30 3 C -0.953326 -4.342246 -0.158136 0
M  V30 4 C -0.362838 -3.387684 -0.953161 0
M  V30 5 C 0.368730 -2.400991 -0.335626 0
M  V30 6 C 1.064528 -1.310504 -1.015996 0
M  V30 7 C 1.603306 -1.497884 -2.289963 0
M  V30 8 C 2.260384 -0.428604 -2.899262 0
M  V30 9 C 2.388134 0.801392 -2.273862 0
M  V30 10 N 3.015035 1.837083 -2.845496 0
M  V30 11 C 3.109485 3.004377 -2.196576 0
M  V30 12 N 2.593660 3.186661 -0.974622 0
M  V30 13 C 1.941012 2.179280 -0.327607 0
M  V30 14 N 1.432580 2.437551 0.934978 0
M  V30 15 C 0.752659 1.915041 2.032723 0
M  V30 16 C 1.444028 1.243691 3.044732 0
M  V30 17 C 0.874042 0.683947 4.168328 0
M  V30 18 C -0.493769 0.839373 4.229319 0
M  V30 19 C -1.301562 1.473627 3.311347 0
M  V30 20 S -3.034620 1.604844 3.500751 0
M  V30 21 N -3.491162 3.019911 4.370663 0
M  V30 22 O -3.536745 0.386866 4.178384 0
M  V30 23 O -3.610433 1.727471 2.118213 0
M  V30 24 C -0.622238 1.998568 2.221977 0
M  V30 25 C 1.863703 1.005719 -1.017521 0
M  V30 26 C 1.223594 -0.067471 -0.447520 0
M  V30 27 C 0.481712 -2.405075 1.038159 0
M  V30 28 C -0.112534 -3.365302 1.834044 0
M  V30 29 C -0.854332 -4.368694 1.232096 0
M  V30 30 O -1.469965 -5.356374 1.999345 0
M  V30 31 H -0.933159 -5.597125 -2.663668 0
M  V30 32 H -2.551957 -6.334072 -2.302535 0
M  V30 33 H -2.386205 -4.552747 -2.515378 0
M  V30 34 H -0.434110 -3.361011 -2.019309 0
M  V30 35 H 1.513573 -2.449562 -2.793934 0
M  V30 36 H 2.689636 -0.561788 -3.901794 0
M  V30 37 H 3.615801 3.881999 -2.628282 0
M  V30 38 H 1.526705 3.377289 1.376760 0
M  V30 39 H 2.523325 1.171595 2.907617 0
M  V30 40 H 1.451010 0.178401 4.916606 0
M  V30 41 H -1.014836 0.418503 5.095956 0
M  V30 42 H -3.044376 3.870537 4.000928 0
M  V30 43 H -3.417628 2.889513 5.405086 0
M  V30 44 H -1.185529 2.516945 1.448563 0
M  V30 45 H 0.785662 0.017794 0.532623 0
M  V30 46 H 1.033809 -1.677529 1.636306 0
M  V30 47 H -0.044571 -3.398723 2.914400 0
M  V30 48 H -2.369571 -5.157327 2.448195 0
M  V30 END ATOM
M  V30 BEGIN BOND
M  V30 1 1 1 2
M  V30 2 1 2 3
M  V30 3 2 3 4
M  V30 4 1 4 5
M  V30 5 1 5 6
M  V30 6 2 6 7
M  V30 7 1 7 8
M  V30 8 2 8 9
M  V30 9 1 9 10
M  V30 10 2 10 11
M  V30 11 1 11 12
M  V30 12 2 12 13
M  V30 13 1 13 14
M  V30 14 1 14 15
M  V30 15 2 15 16
M  V30 16 1 16 17
M  V30 17 2 17 18
M  V30 18 1 18 19
M  V30 19 1 19 20
M  V30 20 1 20 21
M  V30 21 2 20 22
M  V30 22 2 20 23
M  V30 23 2 19 24
M  V30 24 1 13 25
M  V30 25 2 25 26
M  V30 26 2 5 27
M  V30 27 1 27 28
M  V30 28 2 28 29
M  V30 29 1 29 30
M  V30 30 1 29 3
M  V30 31 1 26 6
M  V30 32 1 25 9
M  V30 33 1 24 15
M  V30 34 1 1 31
M  V30 35 1 1 32
M  V30 36 1 1 33
M  V30 37 1 4 34
M  V30 38 1 7 35
M  V30 39 1 8 36
M  V30 40 1 11 37
M  V30 41 1 14 38
M  V30 42 1 16 39
M  V30 43 1 17 40
M  V30 44 1 18 41
M  V30 45 1 21 42
M  V30 46 1 21 43
M  V30 47 1 24 44
M  V30 48 1 26 45
M  V30 49 1 27 46
M  V30 50 1 28 47
M  V30 51 1 30 48
M  V30 END BOND
M  V30 END CTAB
M  END
>  <Dataset>  (615) 
ChEMBL_Kinases

>  <Ligand_Instance>  (615) 
nan

>  <PDB_ID>  (615) 
nan

>  <Standardized_SMILES>  (615) 
COc1cc(-c2ccc3ncnc(Nc4cccc(S(N)(=O)=O)c4)c3c2)ccc1O

>  <Name>  (615) 
nan

>  <Pocket>  (615) 
nan

>  <ATP_Site>  (615) 
nan

>  <Peripheral>  (615) 
nan

>  <Num_H_Atoms_ProtBoundConf>  (615) 
nan

>  <Num_Resolved_Atoms>  (615) 
nan

>  <Num_Not_Resolved_Atoms>  (615) 
nan

$$$$
CHEMBL3661217
     RDKit          3D

  0  0  0  0  0  0  0  0  0  0999 V3000
M  V30 BEGIN CTAB
M  V30 COUNTS 47 50 0 0 0
M  V30 BEGIN ATOM
M  V30 1 C 1.274781 -3.853259 2.033278 0
M  V30 2 O -0.050054 -4.294326 1.687366 0
M  V30 3 C -0.765136 -3.597970 0.746943 0
M  V30 4 C -0.308251 -2.480546 0.074855 0
M  V30 5 C -1.143049 -1.885564 -0.841043 0
M  V30 6 C -0.588346 -0.701177 -1.529721 0
M  V30 7 C -0.930585 -0.326739 -2.813451 0
M  V30 8 C -0.364591 0.788649 -3.382080 0
M  V30 9 C 0.549864 1.562436 -2.706625 0
M  V30 10 N 1.102760 2.663105 -3.257466 0
M  V30 11 C 1.992076 3.397166 -2.556963 0
M  V30 12 N 2.366057 3.079731 -1.300396 0
M  V30 13 C 1.867017 1.996554 -0.664193 0
M  V30 14 N 2.151218 1.520229 0.620854 0
M  V30 15 C 1.520145 1.299607 1.857353 0
M  V30 16 C 2.264877 0.549015 2.776719 0
M  V30 17 C 1.722905 0.252696 4.008493 0
M  V30 18 C 0.445143 0.709251 4.308659 0
M  V30 19 C -0.089428 0.338150 5.650997 0
M  V30 20 C -0.340960 1.456959 3.441143 0
M  V30 21 O -1.606316 1.908548 3.738301 0
M  V30 22 C 0.273249 1.709850 2.232167 0
M  V30 23 C 0.944635 1.241685 -1.401446 0
M  V30 24 C 0.346070 0.119111 -0.889463 0
M  V30 25 C -2.405020 -2.320186 -1.140053 0
M  V30 26 C -2.863388 -3.438511 -0.469815 0
M  V30 27 C -2.033865 -4.060004 0.463985 0
M  V30 28 O -2.577732 -5.182656 1.087374 0
M  V30 29 H 1.701921 -4.484373 2.838941 0
M  V30 30 H 1.876564 -3.898899 1.106509 0
M  V30 31 H 1.214710 -2.795346 2.427589 0
M  V30 32 H 0.688458 -2.198718 0.365597 0
M  V30 33 H -1.657438 -0.944942 -3.344719 0
M  V30 34 H -0.625978 1.093960 -4.396243 0
M  V30 35 H 2.433246 4.276859 -2.995497 0
M  V30 36 H 3.188731 1.317262 0.475907 0
M  V30 37 H 3.269472 0.197179 2.531112 0
M  V30 38 H 2.285121 -0.328903 4.723081 0
M  V30 39 H 0.133369 1.042869 6.446872 0
M  V30 40 H 0.321922 -0.676627 5.948838 0
M  V30 41 H -1.201043 0.214665 5.559271 0
M  V30 42 H -2.431222 1.331171 3.573488 0
M  V30 43 H -0.261144 2.289599 1.494166 0
M  V30 44 H 0.599465 -0.194358 0.106677 0
M  V30 45 H -2.957264 -1.779906 -1.862348 0
M  V30 46 H -3.878412 -3.810267 -0.695138 0
M  V30 47 H -2.864469 -5.047300 2.041718 0
M  V30 END ATOM
M  V30 BEGIN BOND
M  V30 1 1 1 2
M  V30 2 1 2 3
M  V30 3 2 3 4
M  V30 4 1 4 5
M  V30 5 1 5 6
M  V30 6 2 6 7
M  V30 7 1 7 8
M  V30 8 2 8 9
M  V30 9 1 9 10
M  V30 10 2 10 11
M  V30 11 1 11 12
M  V30 12 2 12 13
M  V30 13 1 13 14
M  V30 14 1 14 15
M  V30 15 2 15 16
M  V30 16 1 16 17
M  V30 17 2 17 18
M  V30 18 1 18 19
M  V30 19 1 18 20
M  V30 20 1 20 21
M  V30 21 2 20 22
M  V30 22 1 13 23
M  V30 23 2 23 24
M  V30 24 2 5 25
M  V30 25 1 25 26
M  V30 26 2 26 27
M  V30 27 1 27 28
M  V30 28 1 27 3
M  V30 29 1 24 6
M  V30 30 1 23 9
M  V30 31 1 22 15
M  V30 32 1 1 29
M  V30 33 1 1 30
M  V30 34 1 1 31
M  V30 35 1 4 32
M  V30 36 1 7 33
M  V30 37 1 8 34
M  V30 38 1 11 35
M  V30 39 1 14 36
M  V30 40 1 16 37
M  V30 41 1 17 38
M  V30 42 1 19 39
M  V30 43 1 19 40
M  V30 44 1 19 41
M  V30 45 1 21 42
M  V30 46 1 22 43
M  V30 47 1 24 44
M  V30 48 1 25 45
M  V30 49 1 26 46
M  V30 50 1 28 47
M  V30 END BOND
M  V30 END CTAB
M  END
>  <Dataset>  (616) 
ChEMBL_Kinases

>  <Ligand_Instance>  (616) 
nan

>  <PDB_ID>  (616) 
nan

>  <Standardized_SMILES>  (616) 
COc1cc(-c2ccc3ncnc(Nc4ccc(C)c(O)c4)c3c2)ccc1O

>  <Name>  (616) 
nan

>  <Pocket>  (616) 
nan

>  <ATP_Site>  (616) 
nan

>  <Peripheral>  (616) 
nan

>  <Num_H_Atoms_ProtBoundConf>  (616) 
nan

>  <Num_Resolved_Atoms>  (616) 
nan

>  <Num_Not_Resolved_Atoms>  (616) 
nan

$$$$
CHEMBL3661218
     RDKit          3D

  0  0  0  0  0  0  0  0  0  0999 V3000
M  V30 BEGIN CTAB
M  V30 COUNTS 48 51 0 0 0
M  V30 BEGIN ATOM
M  V30 1 C 0.378850 -3.113971 4.156033 0
M  V30 2 O -0.471538 -4.110019 3.576168 0
M  V30 3 C -1.090836 -3.829430 2.371286 0
M  V30 4 C -0.842877 -2.589589 1.807015 0
M  V30 5 C -1.451924 -2.278808 0.595059 0
M  V30 6 C -1.344785 -1.050684 -0.183102 0
M  V30 7 C -0.071632 -0.513058 -0.326300 0
M  V30 8 C 0.224356 0.656728 -1.037055 0
M  V30 9 C 1.479248 1.164535 -1.175659 0
M  V30 10 N 2.479460 0.417663 -0.495335 0
M  V30 11 C 3.069337 1.001098 0.687048 0
M  V30 12 C 3.871316 0.252479 1.551114 0
M  V30 13 C 4.445745 0.821549 2.682233 0
M  V30 14 C 4.196768 2.163943 2.929211 0
M  V30 15 C 3.411450 2.935775 2.099396 0
M  V30 16 O 3.167179 4.297664 2.355581 0
M  V30 17 C 2.845234 2.340045 0.968629 0
M  V30 18 N 1.602575 2.283161 -1.896021 0
M  V30 19 C 0.526951 2.879026 -2.457508 0
M  V30 20 N -0.702310 2.367026 -2.310453 0
M  V30 21 C -0.912564 1.247410 -1.604566 0
M  V30 22 C -2.203053 0.788562 -1.513580 0
M  V30 23 C -2.373144 -0.368059 -0.790375 0
M  V30 24 O -3.624494 -0.917202 -0.634244 0
M  V30 25 C -4.816370 -0.402751 -1.156200 0
M  V30 26 C -2.281494 -3.190613 -0.021113 0
M  V30 27 C -2.521601 -4.429290 0.555679 0
M  V30 28 C -1.920092 -4.752067 1.764310 0
M  V30 29 O -2.100304 -5.974088 2.422486 0
M  V30 30 H 1.172624 -2.930901 3.373740 0
M  V30 31 H -0.188713 -2.195851 4.389765 0
M  V30 32 H 0.842512 -3.589093 5.046103 0
M  V30 33 H -0.219483 -1.805524 2.193767 0
M  V30 34 H 0.769813 -1.013246 0.136596 0
M  V30 35 H 2.844677 -0.550582 -0.752641 0
M  V30 36 H 4.054906 -0.804617 1.336751 0
M  V30 37 H 5.059063 0.198531 3.316961 0
M  V30 38 H 4.635602 2.640038 3.812099 0
M  V30 39 H 2.544716 4.638311 3.067930 0
M  V30 40 H 2.230376 2.971227 0.333058 0
M  V30 41 H 0.837937 3.776264 -2.999773 0
M  V30 42 H -3.061852 1.232412 -1.940743 0
M  V30 43 H -5.710069 -0.775411 -0.585146 0
M  V30 44 H -4.980848 -0.672788 -2.200851 0
M  V30 45 H -4.878630 0.716945 -1.015612 0
M  V30 46 H -2.814638 -3.084553 -0.955093 0
M  V30 47 H -3.150889 -5.205416 0.153071 0
M  V30 48 H -2.212530 -6.809994 1.865010 0
M  V30 END ATOM
M  V30 BEGIN BOND
M  V30 1 1 1 2
M  V30 2 1 2 3
M  V30 3 2 3 4
M  V30 4 1 4 5
M  V30 5 1 5 6
M  V30 6 2 6 7
M  V30 7 1 7 8
M  V30 8 2 8 9
M  V30 9 1 9 10
M  V30 10 1 10 11
M  V30 11 2 11 12
M  V30 12 1 12 13
M  V30 13 2 13 14
M  V30 14 1 14 15
M  V30 15 1 15 16
M  V30 16 2 15 17
M  V30 17 1 9 18
M  V30 18 2 18 19
M  V30 19 1 19 20
M  V30 20 2 20 21
M  V30 21 1 21 22
M  V30 22 2 22 23
M  V30 23 1 23 24
M  V30 24 1 24 25
M  V30 25 2 5 26
M  V30 26 1 26 27
M  V30 27 2 27 28
M  V30 28 1 28 29
M  V30 29 1 28 3
M  V30 30 1 23 6
M  V30 31 1 21 8
M  V30 32 1 17 11
M  V30 33 1 1 30
M  V30 34 1 1 31
M  V30 35 1 1 32
M  V30 36 1 4 33
M  V30 37 1 7 34
M  V30 38 1 10 35
M  V30 39 1 12 36
M  V30 40 1 13 37
M  V30 41 1 14 38
M  V30 42 1 16 39
M  V30 43 1 17 40
M  V30 44 1 19 41
M  V30 45 1 22 42
M  V30 46 1 25 43
M  V30 47 1 25 44
M  V30 48 1 25 45
M  V30 49 1 26 46
M  V30 50 1 27 47
M  V30 51 1 29 48
M  V30 END BOND
M  V30 END CTAB
M  END
>  <Dataset>  (617) 
ChEMBL_Kinases

>  <Ligand_Instance>  (617) 
nan

>  <PDB_ID>  (617) 
nan

>  <Standardized_SMILES>  (617) 
COc1cc(-c2cc3c(Nc4cccc(O)c4)ncnc3cc2OC)ccc1O

>  <Name>  (617) 
nan

>  <Pocket>  (617) 
nan

>  <ATP_Site>  (617) 
nan

>  <Peripheral>  (617) 
nan

>  <Num_H_Atoms_ProtBoundConf>  (617) 
nan

>  <Num_Resolved_Atoms>  (617) 
nan

>  <Num_Not_Resolved_Atoms>  (617) 
nan

$$$$
CHEMBL3661220
     RDKit          3D

  0  0  0  0  0  0  0  0  0  0999 V3000
M  V30 BEGIN CTAB
M  V30 COUNTS 47 50 0 0 0
M  V30 BEGIN ATOM
M  V30 1 C -3.874130 -1.573681 0.857588 0
M  V30 2 O -3.456607 -2.938272 0.980335 0
M  V30 3 C -2.208870 -3.277184 0.469405 0
M  V30 4 C -1.350796 -2.380457 -0.147290 0
M  V30 5 C -0.122421 -2.702642 -0.653165 0
M  V30 6 C 0.679369 -1.652113 -1.269951 0
M  V30 7 C 1.564580 -1.829759 -2.300140 0
M  V30 8 C 2.290506 -0.748153 -2.813071 0
M  V30 9 C 2.123262 0.532659 -2.280969 0
M  V30 10 N 2.831388 1.588627 -2.774595 0
M  V30 11 C 2.635508 2.818500 -2.218383 0
M  V30 12 N 1.783690 3.041543 -1.213272 0
M  V30 13 C 1.075175 2.016163 -0.711082 0
M  V30 14 N 0.131580 2.061931 0.353875 0
M  V30 15 C 0.477983 1.771889 1.701191 0
M  V30 16 C 1.803274 1.430986 1.961512 0
M  V30 17 C 2.067449 1.154434 3.279812 0
M  V30 18 C 1.070399 1.225685 4.210971 0
M  V30 19 C 1.430125 0.919039 5.578141 0
M  V30 20 O 0.602911 0.946760 6.551157 0
M  V30 21 O 2.068405 0.584389 6.731727 0
M  V30 22 C -0.243318 1.560777 3.968710 0
M  V30 23 C -0.513172 1.838393 2.650773 0
M  V30 24 O -1.811473 2.196373 2.251051 0
M  V30 25 C 1.235187 0.746950 -1.237834 0
M  V30 26 C 0.552599 -0.371244 -0.782888 0
M  V30 27 C 0.279948 -4.023567 -0.534006 0
M  V30 28 C -0.548525 -4.950350 0.075521 0
M  V30 29 C -1.783864 -4.606366 0.579973 0
M  V30 30 O -2.646281 -5.515823 1.201826 0
M  V30 31 H -3.194799 -0.888364 1.373070 0
M  V30 32 H -3.862896 -1.330339 -0.236604 0
M  V30 33 H -4.917794 -1.472781 1.215175 0
M  V30 34 H -1.789319 -1.372733 -0.176682 0
M  V30 35 H 1.679822 -2.828830 -2.698216 0
M  V30 36 H 2.988476 -0.903214 -3.629437 0
M  V30 37 H 3.161873 3.704601 -2.557328 0
M  V30 38 H -0.829982 2.325422 0.064041 0
M  V30 39 H 2.498657 1.407446 1.155615 0
M  V30 40 H 3.070921 0.884213 3.551716 0
M  V30 41 H 2.849953 -0.065400 6.751249 0
M  V30 42 H -0.991683 1.601705 4.743077 0
M  V30 43 H -2.219313 3.048035 2.620397 0
M  V30 44 H -0.135689 -0.205209 0.026957 0
M  V30 45 H 1.250628 -4.299550 -0.928335 0
M  V30 46 H -0.243571 -5.998675 0.176458 0
M  V30 47 H -2.869077 -5.416083 2.203523 0
M  V30 END ATOM
M  V30 BEGIN BOND
M  V30 1 1 1 2
M  V30 2 1 2 3
M  V30 3 2 3 4
M  V30 4 1 4 5
M  V30 5 1 5 6
M  V30 6 2 6 7
M  V30 7 1 7 8
M  V30 8 2 8 9
M  V30 9 1 9 10
M  V30 10 2 10 11
M  V30 11 1 11 12
M  V30 12 2 12 13
M  V30 13 1 13 14
M  V30 14 1 14 15
M  V30 15 2 15 16
M  V30 16 1 16 17
M  V30 17 2 17 18
M  V30 18 1 18 19
M  V30 19 2 19 20
M  V30 20 1 19 21
M  V30 21 1 18 22
M  V30 22 2 22 23
M  V30 23 1 23 24
M  V30 24 1 13 25
M  V30 25 2 25 26
M  V30 26 2 5 27
M  V30 27 1 27 28
M  V30 28 2 28 29
M  V30 29 1 29 30
M  V30 30 1 29 3
M  V30 31 1 26 6
M  V30 32 1 25 9
M  V30 33 1 23 15
M  V30 34 1 1 31
M  V30 35 1 1 32
M  V30 36 1 1 33
M  V30 37 1 4 34
M  V30 38 1 7 35
M  V30 39 1 8 36
M  V30 40 1 11 37
M  V30 41 1 14 38
M  V30 42 1 16 39
M  V30 43 1 17 40
M  V30 44 1 21 41
M  V30 45 1 22 42
M  V30 46 1 24 43
M  V30 47 1 26 44
M  V30 48 1 27 45
M  V30 49 1 28 46
M  V30 50 1 30 47
M  V30 END BOND
M  V30 END CTAB
M  END
>  <Dataset>  (618) 
ChEMBL_Kinases

>  <Ligand_Instance>  (618) 
nan

>  <PDB_ID>  (618) 
nan

>  <Standardized_SMILES>  (618) 
COc1cc(-c2ccc3ncnc(Nc4ccc(C(=O)O)cc4O)c3c2)ccc1O

>  <Name>  (618) 
nan

>  <Pocket>  (618) 
nan

>  <ATP_Site>  (618) 
nan

>  <Peripheral>  (618) 
nan

>  <Num_H_Atoms_ProtBoundConf>  (618) 
nan

>  <Num_Resolved_Atoms>  (618) 
nan

>  <Num_Not_Resolved_Atoms>  (618) 
nan

$$$$
CHEMBL3661221
     RDKit          3D

  0  0  0  0  0  0  0  0  0  0999 V3000
M  V30 BEGIN CTAB
M  V30 COUNTS 47 50 0 0 0
M  V30 BEGIN ATOM
M  V30 1 C -0.815098 -5.372929 3.266993 0
M  V30 2 O -1.886047 -4.878258 2.468689 0
M  V30 3 C -1.700306 -3.908005 1.502837 0
M  V30 4 C -0.475629 -3.344186 1.230649 0
M  V30 5 C -0.485571 -2.380150 0.221126 0
M  V30 6 C 0.784081 -1.740427 -0.095789 0
M  V30 7 C 2.013310 -2.351068 0.011885 0
M  V30 8 C 3.119000 -1.596266 -0.327606 0
M  V30 9 C 3.058416 -0.289682 -0.759371 0
M  V30 10 N 4.180190 0.386674 -1.065208 0
M  V30 11 C 4.059959 1.658237 -1.472399 0
M  V30 12 N 2.878063 2.265213 -1.582601 0
M  V30 13 C 1.710951 1.655043 -1.295496 0
M  V30 14 N 0.384090 2.126265 -1.332215 0
M  V30 15 C -0.193940 2.420107 -0.064918 0
M  V30 16 C -1.486002 2.885677 0.070895 0
M  V30 17 C -2.141840 3.185168 1.241886 0
M  V30 18 C -1.433527 3.002265 2.418366 0
M  V30 19 C -0.138442 2.539450 2.339944 0
M  V30 20 C 0.608293 2.335914 3.591484 0
M  V30 21 N 1.938331 1.904150 3.548555 0
M  V30 22 O 0.060791 2.547727 4.704184 0
M  V30 23 C 0.461998 2.257733 1.135393 0
M  V30 24 C 1.844725 0.326439 -0.870112 0
M  V30 25 C 0.728450 -0.431959 -0.529095 0
M  V30 26 C -1.647465 -2.046525 -0.428987 0
M  V30 27 C -2.874279 -2.613108 -0.154365 0
M  V30 28 C -2.859921 -3.577329 0.856801 0
M  V30 29 O -4.111091 -4.153745 1.134230 0
M  V30 30 H -1.191029 -5.902047 4.151869 0
M  V30 31 H -0.218389 -4.465180 3.530259 0
M  V30 32 H -0.173704 -6.064061 2.705850 0
M  V30 33 H 0.397391 -3.642638 1.769241 0
M  V30 34 H 2.037833 -3.374707 0.352723 0
M  V30 35 H 4.078225 -2.116459 -0.226711 0
M  V30 36 H 4.899498 2.300318 -1.746330 0
M  V30 37 H -0.223023 2.285880 -2.172032 0
M  V30 38 H -2.065890 3.038618 -0.843892 0
M  V30 39 H -3.135573 3.542628 1.331147 0
M  V30 40 H -1.821261 3.195654 3.394951 0
M  V30 41 H 2.972346 1.980370 3.493003 0
M  V30 42 H 2.206014 0.888356 3.591707 0
M  V30 43 H 1.479734 1.894567 1.099200 0
M  V30 44 H -0.245999 0.033458 -0.609964 0
M  V30 45 H -1.656416 -1.297184 -1.217086 0
M  V30 46 H -3.765702 -2.332622 -0.678698 0
M  V30 47 H -4.565456 -4.721648 0.430605 0
M  V30 END ATOM
M  V30 BEGIN BOND
M  V30 1 1 1 2
M  V30 2 1 2 3
M  V30 3 2 3 4
M  V30 4 1 4 5
M  V30 5 1 5 6
M  V30 6 2 6 7
M  V30 7 1 7 8
M  V30 8 2 8 9
M  V30 9 1 9 10
M  V30 10 2 10 11
M  V30 11 1 11 12
M  V30 12 2 12 13
M  V30 13 1 13 14
M  V30 14 1 14 15
M  V30 15 2 15 16
M  V30 16 1 16 17
M  V30 17 2 17 18
M  V30 18 1 18 19
M  V30 19 1 19 20
M  V30 20 1 20 21
M  V30 21 2 20 22
M  V30 22 2 19 23
M  V30 23 1 13 24
M  V30 24 2 24 25
M  V30 25 2 5 26
M  V30 26 1 26 27
M  V30 27 2 27 28
M  V30 28 1 28 29
M  V30 29 1 28 3
M  V30 30 1 25 6
M  V30 31 1 24 9
M  V30 32 1 23 15
M  V30 33 1 1 30
M  V30 34 1 1 31
M  V30 35 1 1 32
M  V30 36 1 4 33
M  V30 37 1 7 34
M  V30 38 1 8 35
M  V30 39 1 11 36
M  V30 40 1 14 37
M  V30 41 1 16 38
M  V30 42 1 17 39
M  V30 43 1 18 40
M  V30 44 1 21 41
M  V30 45 1 21 42
M  V30 46 1 23 43
M  V30 47 1 25 44
M  V30 48 1 26 45
M  V30 49 1 27 46
M  V30 50 1 29 47
M  V30 END BOND
M  V30 END CTAB
M  END
>  <Dataset>  (619) 
ChEMBL_Kinases

>  <Ligand_Instance>  (619) 
nan

>  <PDB_ID>  (619) 
nan

>  <Standardized_SMILES>  (619) 
COc1cc(-c2ccc3ncnc(Nc4cccc(C(N)=O)c4)c3c2)ccc1O

>  <Name>  (619) 
nan

>  <Pocket>  (619) 
nan

>  <ATP_Site>  (619) 
nan

>  <Peripheral>  (619) 
nan

>  <Num_H_Atoms_ProtBoundConf>  (619) 
nan

>  <Num_Resolved_Atoms>  (619) 
nan

>  <Num_Not_Resolved_Atoms>  (619) 
nan

$$$$
CHEMBL3661222
     RDKit          3D

  0  0  0  0  0  0  0  0  0  0999 V3000
M  V30 BEGIN CTAB
M  V30 COUNTS 45 48 0 0 0
M  V30 BEGIN ATOM
M  V30 1 C -0.807836 -2.846920 4.382039 0
M  V30 2 O -1.096592 -3.916949 3.522075 0
M  V30 3 C -0.571068 -3.940205 2.240566 0
M  V30 4 C 0.245575 -2.938909 1.746217 0
M  V30 5 C 0.746260 -3.006637 0.457947 0
M  V30 6 C 1.608300 -1.950722 -0.070599 0
M  V30 7 C 2.599700 -2.186639 -1.001437 0
M  V30 8 C 3.461837 -1.267565 -1.562886 0
M  V30 9 C 3.309060 0.036829 -1.139520 0
M  V30 10 N 4.123921 0.971039 -1.662920 0
M  V30 11 C 4.013288 2.279542 -1.282785 0
M  V30 12 N 3.064043 2.615055 -0.366257 0
M  V30 13 C 2.233748 1.684490 0.171706 0
M  V30 14 N 1.269593 2.074351 1.113386 0
M  V30 15 C -0.084005 2.470678 1.189214 0
M  V30 16 C -0.584521 2.818672 2.421690 0
M  V30 17 C -1.904307 3.189155 2.447799 0
M  V30 18 C -2.674071 3.207321 1.296290 0
M  V30 19 C -2.143936 2.854527 0.083575 0
M  V30 20 N -3.052846 2.918081 -1.016744 0 CHG=1 VAL=4
M  V30 21 O -2.813514 2.648616 -2.215339 0
M  V30 22 O -4.386708 3.298403 -0.939263 0 CHG=-1 VAL=1
M  V30 23 C -0.812707 2.474648 0.021030 0
M  V30 24 C 2.330241 0.337841 -0.204751 0
M  V30 25 C 1.487213 -0.611892 0.333265 0
M  V30 26 C 0.457389 -4.064578 -0.384373 0
M  V30 27 C -0.360949 -5.050413 0.136997 0
M  V30 28 C -0.879891 -5.019590 1.415155 0
M  V30 29 O -1.692596 -6.054092 1.851513 0
M  V30 30 H 0.242112 -2.514789 4.349664 0
M  V30 31 H -1.499569 -1.980551 4.194137 0
M  V30 32 H -1.014118 -3.203330 5.421687 0
M  V30 33 H 0.494324 -2.101923 2.365177 0
M  V30 34 H 2.676355 -3.239928 -1.301927 0
M  V30 35 H 4.194164 -1.601002 -2.286599 0
M  V30 36 H 4.636158 3.068464 -1.667669 0
M  V30 37 H 1.884939 2.002207 1.961305 0
M  V30 38 H 0.040355 2.797269 3.310608 0
M  V30 39 H -2.292208 3.464495 3.441139 0
M  V30 40 H -3.688661 3.516598 1.461932 0
M  V30 41 H -0.455570 2.210033 -0.954595 0
M  V30 42 H 0.727994 -0.349022 1.064751 0
M  V30 43 H 0.842565 -4.129867 -1.394977 0
M  V30 44 H -0.612111 -5.896608 -0.487998 0
M  V30 45 H -2.432514 -6.439186 1.259920 0
M  V30 END ATOM
M  V30 BEGIN BOND
M  V30 1 1 1 2
M  V30 2 1 2 3
M  V30 3 2 3 4
M  V30 4 1 4 5
M  V30 5 1 5 6
M  V30 6 2 6 7
M  V30 7 1 7 8
M  V30 8 2 8 9
M  V30 9 1 9 10
M  V30 10 2 10 11
M  V30 11 1 11 12
M  V30 12 2 12 13
M  V30 13 1 13 14
M  V30 14 1 14 15
M  V30 15 2 15 16
M  V30 16 1 16 17
M  V30 17 2 17 18
M  V30 18 1 18 19
M  V30 19 1 19 20
M  V30 20 2 20 21
M  V30 21 1 20 22
M  V30 22 2 19 23
M  V30 23 1 13 24
M  V30 24 2 24 25
M  V30 25 2 5 26
M  V30 26 1 26 27
M  V30 27 2 27 28
M  V30 28 1 28 29
M  V30 29 1 28 3
M  V30 30 1 25 6
M  V30 31 1 24 9
M  V30 32 1 23 15
M  V30 33 1 1 30
M  V30 34 1 1 31
M  V30 35 1 1 32
M  V30 36 1 4 33
M  V30 37 1 7 34
M  V30 38 1 8 35
M  V30 39 1 11 36
M  V30 40 1 14 37
M  V30 41 1 16 38
M  V30 42 1 17 39
M  V30 43 1 18 40
M  V30 44 1 23 41
M  V30 45 1 25 42
M  V30 46 1 26 43
M  V30 47 1 27 44
M  V30 48 1 29 45
M  V30 END BOND
M  V30 END CTAB
M  END
>  <Dataset>  (620) 
ChEMBL_Kinases

>  <Ligand_Instance>  (620) 
nan

>  <PDB_ID>  (620) 
nan

>  <Standardized_SMILES>  (620) 
COc1cc(-c2ccc3ncnc(Nc4cccc([N+](=O)[O-])c4)c3c2)ccc1O

>  <Name>  (620) 
nan

>  <Pocket>  (620) 
nan

>  <ATP_Site>  (620) 
nan

>  <Peripheral>  (620) 
nan

>  <Num_H_Atoms_ProtBoundConf>  (620) 
nan

>  <Num_Resolved_Atoms>  (620) 
nan

>  <Num_Not_Resolved_Atoms>  (620) 
nan

$$$$
CHEMBL3661223
     RDKit          3D

  0  0  0  0  0  0  0  0  0  0999 V3000
M  V30 BEGIN CTAB
M  V30 COUNTS 45 48 0 0 0
M  V30 BEGIN ATOM
M  V30 1 C 1.477771 -4.444028 2.574363 0
M  V30 2 O 0.179987 -4.717017 2.070626 0
M  V30 3 C -0.338106 -3.904341 1.081074 0
M  V30 4 C 0.130538 -2.806625 0.419422 0
M  V30 5 C -0.532565 -2.130564 -0.546312 0
M  V30 6 C 0.045146 -0.957240 -1.188081 0
M  V30 7 C -0.184311 -0.573248 -2.490125 0
M  V30 8 C 0.405470 0.568684 -2.982834 0
M  V30 9 C 1.246403 1.376074 -2.207954 0
M  V30 10 N 1.808814 2.509414 -2.725008 0
M  V30 11 C 2.603346 3.269519 -1.943495 0
M  V30 12 N 2.822507 2.882792 -0.660435 0
M  V30 13 C 2.294921 1.791185 -0.132626 0
M  V30 14 N 2.485728 1.353728 1.210222 0
M  V30 15 C 1.473760 1.469729 2.222397 0
M  V30 16 C 1.680908 1.088845 3.526587 0
M  V30 17 C 0.681267 1.182451 4.483756 0
M  V30 18 C -0.581616 1.675461 4.140117 0
M  V30 19 C -0.762589 2.052430 2.821441 0
M  V30 20 N -2.070132 2.553424 2.491345 0
M  V30 21 C 0.222217 1.966917 1.848746 0
M  V30 22 C 1.459160 0.957689 -0.888612 0
M  V30 23 C 0.867525 -0.185743 -0.397940 0
M  V30 24 C -1.805393 -2.560256 -0.928580 0
M  V30 25 C -2.312238 -3.688028 -0.264051 0
M  V30 26 C -1.616107 -4.384527 0.740074 0
M  V30 27 O -2.271087 -5.473514 1.282973 0
M  V30 28 H 2.242741 -4.627140 1.758701 0
M  V30 29 H 1.708015 -5.099749 3.440771 0
M  V30 30 H 1.606525 -3.394874 2.914241 0
M  V30 31 H 1.113917 -2.544281 0.779284 0
M  V30 32 H -0.843888 -1.211016 -3.076623 0
M  V30 33 H 0.216933 0.869248 -4.018275 0
M  V30 34 H 3.028156 4.158603 -2.374977 0
M  V30 35 H 3.412405 0.928106 1.470482 0
M  V30 36 H 2.662434 0.709752 3.795209 0
M  V30 37 H 0.862087 0.874355 5.523956 0
M  V30 38 H -1.327682 1.731068 4.912358 0
M  V30 39 H -2.768198 1.757335 2.338756 0
M  V30 40 H -2.614677 3.419036 2.341545 0
M  V30 41 H -0.029463 2.290388 0.843991 0
M  V30 42 H 1.071457 -0.478470 0.629538 0
M  V30 43 H -2.359324 -2.058209 -1.685504 0
M  V30 44 H -3.303160 -3.973118 -0.602923 0
M  V30 45 H -3.260771 -5.597247 1.172526 0
M  V30 END ATOM
M  V30 BEGIN BOND
M  V30 1 1 1 2
M  V30 2 1 2 3
M  V30 3 2 3 4
M  V30 4 1 4 5
M  V30 5 1 5 6
M  V30 6 2 6 7
M  V30 7 1 7 8
M  V30 8 2 8 9
M  V30 9 1 9 10
M  V30 10 2 10 11
M  V30 11 1 11 12
M  V30 12 2 12 13
M  V30 13 1 13 14
M  V30 14 1 14 15
M  V30 15 2 15 16
M  V30 16 1 16 17
M  V30 17 2 17 18
M  V30 18 1 18 19
M  V30 19 1 19 20
M  V30 20 2 19 21
M  V30 21 1 13 22
M  V30 22 2 22 23
M  V30 23 2 5 24
M  V30 24 1 24 25
M  V30 25 2 25 26
M  V30 26 1 26 27
M  V30 27 1 26 3
M  V30 28 1 23 6
M  V30 29 1 22 9
M  V30 30 1 21 15
M  V30 31 1 1 28
M  V30 32 1 1 29
M  V30 33 1 1 30
M  V30 34 1 4 31
M  V30 35 1 7 32
M  V30 36 1 8 33
M  V30 37 1 11 34
M  V30 38 1 14 35
M  V30 39 1 16 36
M  V30 40 1 17 37
M  V30 41 1 18 38
M  V30 42 1 20 39
M  V30 43 1 20 40
M  V30 44 1 21 41
M  V30 45 1 23 42
M  V30 46 1 24 43
M  V30 47 1 25 44
M  V30 48 1 27 45
M  V30 END BOND
M  V30 END CTAB
M  END
>  <Dataset>  (621) 
ChEMBL_Kinases

>  <Ligand_Instance>  (621) 
nan

>  <PDB_ID>  (621) 
nan

>  <Standardized_SMILES>  (621) 
COc1cc(-c2ccc3ncnc(Nc4cccc(N)c4)c3c2)ccc1O

>  <Name>  (621) 
nan

>  <Pocket>  (621) 
nan

>  <ATP_Site>  (621) 
nan

>  <Peripheral>  (621) 
nan

>  <Num_H_Atoms_ProtBoundConf>  (621) 
nan

>  <Num_Resolved_Atoms>  (621) 
nan

>  <Num_Not_Resolved_Atoms>  (621) 
nan

$$$$
CHEMBL3661213
     RDKit          3D

  0  0  0  0  0  0  0  0  0  0999 V3000
M  V30 BEGIN CTAB
M  V30 COUNTS 44 47 0 0 0
M  V30 BEGIN ATOM
M  V30 1 C 0.638149 -5.035698 2.749186 0
M  V30 2 O 0.240323 -4.500750 1.617394 0
M  V30 3 C -0.067200 -3.885327 0.562657 0
M  V30 4 C 0.408169 -2.638843 0.237469 0
M  V30 5 C 0.088341 -1.941848 -0.904264 0
M  V30 6 C 0.554136 -0.629705 -1.335604 0
M  V30 7 C 0.647906 -0.342739 -2.691936 0
M  V30 8 C 1.093213 0.902274 -3.076405 0
M  V30 9 C 1.427934 1.810892 -2.099642 0
M  V30 10 N 1.848837 3.017513 -2.503375 0
M  V30 11 C 2.184189 3.953934 -1.587088 0
M  V30 12 N 2.108512 3.709889 -0.270808 0
M  V30 13 C 1.697009 2.527978 0.210807 0
M  V30 14 N 1.602191 2.208743 1.586305 0
M  V30 15 C 0.609921 1.907355 2.542440 0
M  V30 16 C -0.732869 1.823211 2.280306 0
M  V30 17 C -1.720866 1.531657 3.188905 0
M  V30 18 C -1.248481 1.309464 4.482431 0
M  V30 19 C 0.099814 1.386396 4.780218 0
M  V30 20 C 1.048920 1.683946 3.828346 0
M  V30 21 O 2.394954 1.753401 4.163236 0
M  V30 22 C 1.352380 1.570853 -0.744729 0
M  V30 23 C 0.900837 0.311430 -0.404991 0
M  V30 24 C -0.797017 -2.607440 -1.764988 0
M  V30 25 C -1.321838 -3.853385 -1.523508 0
M  V30 26 C -0.943546 -4.494765 -0.335729 0
M  V30 27 O -1.505778 -5.764958 -0.139179 0
M  V30 28 H 1.776188 -4.994490 2.858955 0
M  V30 29 H 0.390915 -6.131472 2.863436 0
M  V30 30 H 0.236568 -4.563782 3.700987 0
M  V30 31 H 1.097212 -2.102344 0.897846 0
M  V30 32 H 0.392666 -1.045589 -3.471726 0
M  V30 33 H 1.162879 1.119668 -4.130809 0
M  V30 34 H 2.517517 4.917369 -1.976439 0
M  V30 35 H 2.626323 2.235622 1.842026 0
M  V30 36 H -1.050035 2.007789 1.254587 0
M  V30 37 H -2.765395 1.474523 2.919267 0
M  V30 38 H -1.986586 1.070693 5.243662 0
M  V30 39 H 0.460708 1.210609 5.799707 0
M  V30 40 H 2.738556 2.697655 4.392169 0
M  V30 41 H 0.813455 0.041588 0.621582 0
M  V30 42 H -1.118629 -2.149414 -2.688294 0
M  V30 43 H -2.006151 -4.328190 -2.228755 0
M  V30 44 H -2.496448 -5.844534 0.131934 0
M  V30 END ATOM
M  V30 BEGIN BOND
M  V30 1 1 1 2
M  V30 2 1 2 3
M  V30 3 2 3 4
M  V30 4 1 4 5
M  V30 5 1 5 6
M  V30 6 2 6 7
M  V30 7 1 7 8
M  V30 8 2 8 9
M  V30 9 1 9 10
M  V30 10 2 10 11
M  V30 11 1 11 12
M  V30 12 2 12 13
M  V30 13 1 13 14
M  V30 14 1 14 15
M  V30 15 2 15 16
M  V30 16 1 16 17
M  V30 17 2 17 18
M  V30 18 1 18 19
M  V30 19 2 19 20
M  V30 20 1 20 21
M  V30 21 1 13 22
M  V30 22 2 22 23
M  V30 23 2 5 24
M  V30 24 1 24 25
M  V30 25 2 25 26
M  V30 26 1 26 27
M  V30 27 1 26 3
M  V30 28 1 23 6
M  V30 29 1 22 9
M  V30 30 1 20 15
M  V30 31 1 1 28
M  V30 32 1 1 29
M  V30 33 1 1 30
M  V30 34 1 4 31
M  V30 35 1 7 32
M  V30 36 1 8 33
M  V30 37 1 11 34
M  V30 38 1 14 35
M  V30 39 1 16 36
M  V30 40 1 17 37
M  V30 41 1 18 38
M  V30 42 1 19 39
M  V30 43 1 21 40
M  V30 44 1 23 41
M  V30 45 1 24 42
M  V30 46 1 25 43
M  V30 47 1 27 44
M  V30 END BOND
M  V30 END CTAB
M  END
>  <Dataset>  (622) 
ChEMBL_Kinases

>  <Ligand_Instance>  (622) 
nan

>  <PDB_ID>  (622) 
nan

>  <Standardized_SMILES>  (622) 
COc1cc(-c2ccc3ncnc(Nc4ccccc4O)c3c2)ccc1O

>  <Name>  (622) 
nan

>  <Pocket>  (622) 
nan

>  <ATP_Site>  (622) 
nan

>  <Peripheral>  (622) 
nan

>  <Num_H_Atoms_ProtBoundConf>  (622) 
nan

>  <Num_Resolved_Atoms>  (622) 
nan

>  <Num_Not_Resolved_Atoms>  (622) 
nan

$$$$
CHEMBL3661273
     RDKit          3D

  0  0  0  0  0  0  0  0  0  0999 V3000
M  V30 BEGIN CTAB
M  V30 COUNTS 45 49 0 0 0
M  V30 BEGIN ATOM
M  V30 1 N 2.960090 -5.390648 3.956914 0
M  V30 2 C 3.195128 -4.273163 3.117961 0
M  V30 3 O 4.235243 -4.637995 2.523471 0
M  V30 4 C 2.340692 -3.096297 3.091358 0
M  V30 5 C 1.268680 -3.077974 3.956840 0
M  V30 6 C 0.464240 -1.959870 3.914790 0
M  V30 7 C 0.756693 -0.934733 3.032997 0
M  V30 8 C 1.837846 -0.973143 2.172314 0
M  V30 9 C 2.048972 0.168421 1.264692 0
M  V30 10 C 3.264874 0.630021 0.808674 0
M  V30 11 C 3.302945 1.718096 -0.059065 0
M  V30 12 C 2.139332 2.362046 -0.486034 0
M  V30 13 N 2.214026 3.420142 -1.341698 0
M  V30 14 C 1.061480 4.018828 -1.742872 0
M  V30 15 N -0.141456 3.579457 -1.306221 0
M  V30 16 C -0.247103 2.534804 -0.458909 0
M  V30 17 N -1.439745 1.966397 0.062576 0
M  V30 18 C -1.845003 0.806977 -0.648905 0
M  V30 19 C -1.148974 0.288908 -1.721122 0
M  V30 20 C -1.492113 -0.839073 -2.448171 0
M  V30 21 C -2.640859 -1.486364 -2.042778 0
M  V30 22 C -3.416759 -1.047468 -0.974356 0
M  V30 23 N -4.551305 -1.501120 -0.407087 0
M  V30 24 N -4.889005 -0.697557 0.612834 0
M  V30 25 C -3.939141 0.278807 0.678897 0
M  V30 26 C -2.991268 0.088644 -0.310993 0
M  V30 27 C 0.906694 1.888991 -0.019510 0
M  V30 28 C 0.923008 0.818828 0.830352 0
M  V30 29 C 2.642381 -2.081065 2.208779 0
M  V30 30 H 3.509001 -5.785687 4.732830 0
M  V30 31 H 2.048665 -5.842617 3.674965 0
M  V30 32 H 1.054385 -3.883685 4.636317 0
M  V30 33 H -0.384266 -1.943456 4.599433 0
M  V30 34 H 0.051165 -0.122462 3.102457 0
M  V30 35 H 4.133736 0.107376 1.160578 0
M  V30 36 H 4.274834 2.037410 -0.384260 0
M  V30 37 H 1.056637 4.871209 -2.428012 0
M  V30 38 H -2.039742 2.265209 0.861681 0
M  V30 39 H -0.238207 0.786100 -2.056273 0
M  V30 40 H -0.881502 -1.173842 -3.278253 0
M  V30 41 H -2.951831 -2.385159 -2.590527 0
M  V30 42 H -5.105642 -2.344696 -0.693933 0
M  V30 43 H -3.951053 1.080608 1.416185 0
M  V30 44 H -0.047958 0.487196 1.166457 0
M  V30 45 H 3.481016 -2.099407 1.534772 0
M  V30 END ATOM
M  V30 BEGIN BOND
M  V30 1 1 1 2
M  V30 2 2 2 3
M  V30 3 1 2 4
M  V30 4 2 4 5
M  V30 5 1 5 6
M  V30 6 2 6 7
M  V30 7 1 7 8
M  V30 8 1 8 9
M  V30 9 2 9 10
M  V30 10 1 10 11
M  V30 11 2 11 12
M  V30 12 1 12 13
M  V30 13 2 13 14
M  V30 14 1 14 15
M  V30 15 2 15 16
M  V30 16 1 16 17
M  V30 17 1 17 18
M  V30 18 2 18 19
M  V30 19 1 19 20
M  V30 20 2 20 21
M  V30 21 1 21 22
M  V30 22 1 22 23
M  V30 23 1 23 24
M  V30 24 2 24 25
M  V30 25 1 25 26
M  V30 26 1 16 27
M  V30 27 2 27 28
M  V30 28 2 8 29
M  V30 29 1 29 4
M  V30 30 1 28 9
M  V30 31 1 27 12
M  V30 32 1 26 18
M  V30 33 2 26 22
M  V30 34 1 1 30
M  V30 35 1 1 31
M  V30 36 1 5 32
M  V30 37 1 6 33
M  V30 38 1 7 34
M  V30 39 1 10 35
M  V30 40 1 11 36
M  V30 41 1 14 37
M  V30 42 1 17 38
M  V30 43 1 19 39
M  V30 44 1 20 40
M  V30 45 1 21 41
M  V30 46 1 23 42
M  V30 47 1 25 43
M  V30 48 1 28 44
M  V30 49 1 29 45
M  V30 END BOND
M  V30 END CTAB
M  END
>  <Dataset>  (623) 
ChEMBL_Kinases

>  <Ligand_Instance>  (623) 
nan

>  <PDB_ID>  (623) 
nan

>  <Standardized_SMILES>  (623) 
NC(=O)c1cccc(-c2ccc3ncnc(Nc4cccc5[nH]ncc45)c3c2)c1

>  <Name>  (623) 
nan

>  <Pocket>  (623) 
nan

>  <ATP_Site>  (623) 
nan

>  <Peripheral>  (623) 
nan

>  <Num_H_Atoms_ProtBoundConf>  (623) 
nan

>  <Num_Resolved_Atoms>  (623) 
nan

>  <Num_Not_Resolved_Atoms>  (623) 
nan

$$$$
CHEMBL3661272
     RDKit          3D

  0  0  0  0  0  0  0  0  0  0999 V3000
M  V30 BEGIN CTAB
M  V30 COUNTS 44 49 0 0 0
M  V30 BEGIN ATOM
M  V30 1 C -0.587574 -2.863581 3.032051 0
M  V30 2 C 0.636600 -2.608882 2.454912 0
M  V30 3 C 0.943657 -2.932917 1.128116 0
M  V30 4 N 2.202085 -2.650029 0.570702 0
M  V30 5 C 2.765747 -1.920907 -0.496997 0
M  V30 6 N 3.628345 -2.571085 -1.343821 0
M  V30 7 C 4.177171 -1.891911 -2.390210 0
M  V30 8 N 3.911286 -0.575311 -2.645096 0
M  V30 9 C 3.064533 0.147036 -1.851454 0
M  V30 10 C 2.759124 1.468898 -2.045601 0
M  V30 11 C 1.897199 2.119118 -1.185670 0
M  V30 12 C 1.313597 1.467794 -0.102135 0
M  V30 13 C 0.366827 1.973789 0.885138 0
M  V30 14 C 0.554907 1.411565 2.156858 0
M  V30 15 C -0.297342 1.747346 3.215839 0
M  V30 16 C -1.314787 2.646125 2.938256 0
M  V30 17 C -1.496638 3.204270 1.660941 0
M  V30 18 C -0.638307 2.860028 0.617713 0
M  V30 19 O -2.624243 4.045653 1.823843 0
M  V30 20 C -3.417187 3.429882 2.866431 0
M  V30 21 O -2.323759 3.173072 3.777649 0
M  V30 22 C 1.702527 0.114207 -0.006234 0
M  V30 23 C 2.561497 -0.610358 -0.829234 0
M  V30 24 C -0.083295 -3.546620 0.392610 0
M  V30 25 C -0.105107 -3.987642 -0.927127 0
M  V30 26 N -1.336194 -4.504979 -1.137948 0
M  V30 27 N -2.062054 -4.413712 -0.059592 0
M  V30 28 C -1.337765 -3.823733 0.937828 0
M  V30 29 C -1.542872 -3.467565 2.250634 0
M  V30 30 H -0.806217 -2.605530 4.063355 0
M  V30 31 H 1.411645 -2.126052 3.070074 0
M  V30 32 H 2.950719 -3.116871 1.128011 0
M  V30 33 H 4.859511 -2.460878 -3.037306 0
M  V30 34 H 3.193576 1.990386 -2.877692 0
M  V30 35 H 1.619214 3.147212 -1.288184 0
M  V30 36 H 1.344758 0.700975 2.447881 0
M  V30 37 H -0.140918 1.309680 4.188131 0
M  V30 38 H -0.776114 3.284635 -0.356558 0
M  V30 39 H -4.188632 4.078639 3.267978 0
M  V30 40 H -3.786149 2.412837 2.536853 0
M  V30 41 H 1.256231 -0.418249 0.823991 0
M  V30 42 H 0.690995 -3.936773 -1.659790 0
M  V30 43 H -3.033340 -4.687762 0.191816 0
M  V30 44 H -2.515370 -3.682618 2.690627 0
M  V30 END ATOM
M  V30 BEGIN BOND
M  V30 1 2 1 2
M  V30 2 1 2 3
M  V30 3 1 3 4
M  V30 4 1 4 5
M  V30 5 2 5 6
M  V30 6 1 6 7
M  V30 7 2 7 8
M  V30 8 1 8 9
M  V30 9 2 9 10
M  V30 10 1 10 11
M  V30 11 2 11 12
M  V30 12 1 12 13
M  V30 13 2 13 14
M  V30 14 1 14 15
M  V30 15 2 15 16
M  V30 16 1 16 17
M  V30 17 2 17 18
M  V30 18 1 17 19
M  V30 19 1 19 20
M  V30 20 1 20 21
M  V30 21 1 12 22
M  V30 22 2 22 23
M  V30 23 2 3 24
M  V30 24 1 24 25
M  V30 25 2 25 26
M  V30 26 1 26 27
M  V30 27 1 27 28
M  V30 28 2 28 29
M  V30 29 1 29 1
M  V30 30 1 23 5
M  V30 31 1 28 24
M  V30 32 1 23 9
M  V30 33 1 18 13
M  V30 34 1 21 16
M  V30 35 1 1 30
M  V30 36 1 2 31
M  V30 37 1 4 32
M  V30 38 1 7 33
M  V30 39 1 10 34
M  V30 40 1 11 35
M  V30 41 1 14 36
M  V30 42 1 15 37
M  V30 43 1 18 38
M  V30 44 1 20 39
M  V30 45 1 20 40
M  V30 46 1 22 41
M  V30 47 1 25 42
M  V30 48 1 27 43
M  V30 49 1 29 44
M  V30 END BOND
M  V30 END CTAB
M  END
>  <Dataset>  (624) 
ChEMBL_Kinases

>  <Ligand_Instance>  (624) 
nan

>  <PDB_ID>  (624) 
nan

>  <Standardized_SMILES>  (624) 
c1cc(Nc2ncnc3ccc(-c4ccc5c(c4)OCO5)cc23)c2cn[nH]c2c1

>  <Name>  (624) 
nan

>  <Pocket>  (624) 
nan

>  <ATP_Site>  (624) 
nan

>  <Peripheral>  (624) 
nan

>  <Num_H_Atoms_ProtBoundConf>  (624) 
nan

>  <Num_Resolved_Atoms>  (624) 
nan

>  <Num_Not_Resolved_Atoms>  (624) 
nan

$$$$
CHEMBL3661271
     RDKit          3D

  0  0  0  0  0  0  0  0  0  0999 V3000
M  V30 BEGIN CTAB
M  V30 COUNTS 49 53 0 0 0
M  V30 BEGIN ATOM
M  V30 1 C 1.305030 -3.666986 2.790983 0
M  V30 2 S 2.198957 -4.395464 1.437924 0
M  V30 3 O 2.830778 -5.684651 1.827082 0
M  V30 4 O 1.177350 -4.642881 0.348800 0
M  V30 5 N 3.358230 -3.290068 0.878489 0
M  V30 6 C 3.338475 -2.003852 0.304312 0
M  V30 7 C 4.211184 -1.709731 -0.746422 0
M  V30 8 C 4.342540 -0.518812 -1.417753 0
M  V30 9 C 3.476028 0.507231 -0.965678 0
M  V30 10 C 2.568998 0.312722 0.072377 0
M  V30 11 C 1.696181 1.399487 0.497051 0
M  V30 12 C 2.048190 2.732264 0.462576 0
M  V30 13 C 1.083646 3.629782 0.878047 0
M  V30 14 C -0.158370 3.215639 1.301631 0
M  V30 15 N -1.052901 4.156335 1.691821 0
M  V30 16 C -2.283714 3.817386 2.112527 0
M  V30 17 N -2.650492 2.501481 2.150464 0
M  V30 18 C -1.787260 1.543173 1.770332 0
M  V30 19 N -2.028848 0.149829 1.761903 0
M  V30 20 C -2.766105 -0.513816 0.745139 0
M  V30 21 C -3.279965 0.268333 -0.285812 0
M  V30 22 C -4.009594 -0.392628 -1.286420 0
M  V30 23 C -4.182125 -1.754017 -1.206474 0
M  V30 24 C -3.691812 -2.562666 -0.207336 0
M  V30 25 N -3.668552 -3.840476 0.167709 0
M  V30 26 N -2.998290 -3.956183 1.274463 0
M  V30 27 C -2.540955 -2.776594 1.697954 0
M  V30 28 C -2.974961 -1.852732 0.759428 0
M  V30 29 C -0.488997 1.851270 1.325777 0
M  V30 30 C 0.467050 0.940593 0.912799 0
M  V30 31 C 2.567916 -0.936177 0.634278 0
M  V30 32 H 0.220260 -3.588152 2.603703 0
M  V30 33 H 1.773133 -2.727013 3.082077 0
M  V30 34 H 1.439676 -4.357184 3.672430 0
M  V30 35 H 4.366729 -3.619775 0.981123 0
M  V30 36 H 4.900496 -2.475425 -1.133370 0
M  V30 37 H 5.026372 -0.318555 -2.222765 0
M  V30 38 H 3.541743 1.449444 -1.456928 0
M  V30 39 H 3.038464 3.009414 0.122153 0
M  V30 40 H 1.303391 4.676903 0.876087 0
M  V30 41 H -3.030864 4.557827 2.435692 0
M  V30 42 H -1.585295 -0.265702 2.601035 0
M  V30 43 H -3.156272 1.332007 -0.372272 0
M  V30 44 H -4.443281 0.166293 -2.129822 0
M  V30 45 H -4.760333 -2.269013 -1.994360 0
M  V30 46 H -4.180509 -4.513021 -0.470841 0
M  V30 47 H -1.962827 -2.570415 2.570694 0
M  V30 48 H 0.142081 -0.067956 0.958601 0
M  V30 49 H 1.852323 -1.054922 1.434397 0
M  V30 END ATOM
M  V30 BEGIN BOND
M  V30 1 1 1 2
M  V30 2 2 2 3
M  V30 3 2 2 4
M  V30 4 1 2 5
M  V30 5 1 5 6
M  V30 6 2 6 7
M  V30 7 1 7 8
M  V30 8 2 8 9
M  V30 9 1 9 10
M  V30 10 1 10 11
M  V30 11 2 11 12
M  V30 12 1 12 13
M  V30 13 2 13 14
M  V30 14 1 14 15
M  V30 15 2 15 16
M  V30 16 1 16 17
M  V30 17 2 17 18
M  V30 18 1 18 19
M  V30 19 1 19 20
M  V30 20 2 20 21
M  V30 21 1 21 22
M  V30 22 2 22 23
M  V30 23 1 23 24
M  V30 24 1 24 25
M  V30 25 1 25 26
M  V30 26 2 26 27
M  V30 27 1 27 28
M  V30 28 1 18 29
M  V30 29 2 29 30
M  V30 30 2 10 31
M  V30 31 1 31 6
M  V30 32 1 30 11
M  V30 33 1 29 14
M  V30 34 1 28 20
M  V30 35 2 28 24
M  V30 36 1 1 32
M  V30 37 1 1 33
M  V30 38 1 1 34
M  V30 39 1 5 35
M  V30 40 1 7 36
M  V30 41 1 8 37
M  V30 42 1 9 38
M  V30 43 1 12 39
M  V30 44 1 13 40
M  V30 45 1 16 41
M  V30 46 1 19 42
M  V30 47 1 21 43
M  V30 48 1 22 44
M  V30 49 1 23 45
M  V30 50 1 25 46
M  V30 51 1 27 47
M  V30 52 1 30 48
M  V30 53 1 31 49
M  V30 END BOND
M  V30 END CTAB
M  END
>  <Dataset>  (625) 
ChEMBL_Kinases

>  <Ligand_Instance>  (625) 
nan

>  <PDB_ID>  (625) 
nan

>  <Standardized_SMILES>  (625) 
CS(=O)(=O)Nc1cccc(-c2ccc3ncnc(Nc4cccc5[nH]ncc45)c3c2)c1

>  <Name>  (625) 
nan

>  <Pocket>  (625) 
nan

>  <ATP_Site>  (625) 
nan

>  <Peripheral>  (625) 
nan

>  <Num_H_Atoms_ProtBoundConf>  (625) 
nan

>  <Num_Resolved_Atoms>  (625) 
nan

>  <Num_Not_Resolved_Atoms>  (625) 
nan

$$$$
CHEMBL3661270
     RDKit          3D

  0  0  0  0  0  0  0  0  0  0999 V3000
M  V30 BEGIN CTAB
M  V30 COUNTS 45 49 0 0 0
M  V30 BEGIN ATOM
M  V30 1 O 3.383962 -5.526535 1.518503 0
M  V30 2 C 2.760315 -4.781627 2.515103 0
M  V30 3 C 3.373256 -3.431669 2.667008 0
M  V30 4 C 4.420521 -3.133892 3.512232 0
M  V30 5 C 4.921112 -1.847179 3.581964 0
M  V30 6 C 4.348797 -0.875061 2.788426 0
M  V30 7 C 3.291626 -1.113892 1.917198 0
M  V30 8 C 2.696902 -0.073044 1.082437 0
M  V30 9 C 3.468556 0.977581 0.596104 0
M  V30 10 C 2.897543 1.971835 -0.202479 0
M  V30 11 C 1.553626 1.907145 -0.509542 0
M  V30 12 N 0.961755 2.857212 -1.284523 0
M  V30 13 C -0.352652 2.805744 -1.592505 0
M  V30 14 N -1.068864 1.771631 -1.102556 0
M  V30 15 C -0.515322 0.818119 -0.335221 0
M  V30 16 N -1.394129 -0.206229 0.105387 0
M  V30 17 C -2.767590 -0.180733 -0.257342 0
M  V30 18 C -3.403600 -1.180415 -0.993796 0
M  V30 19 C -4.738853 -1.110237 -1.316311 0
M  V30 20 C -5.507910 -0.020284 -0.909826 0
M  V30 21 C -4.892382 0.976424 -0.180434 0
M  V30 22 N -5.446664 2.106006 0.308109 0
M  V30 23 N -4.466135 2.761496 0.944831 0
M  V30 24 C -3.329854 2.057638 0.854926 0
M  V30 25 C -3.535114 0.894334 0.141255 0
M  V30 26 C 0.822976 0.847065 -0.006330 0
M  V30 27 C 1.346633 -0.150791 0.782272 0
M  V30 28 C 2.829375 -2.416928 1.886469 0
M  V30 29 H 3.993255 -6.205882 1.895910 0
M  V30 30 H 2.875786 -5.279756 3.521943 0
M  V30 31 H 1.671816 -4.723119 2.336974 0
M  V30 32 H 4.797958 -3.970556 4.093022 0
M  V30 33 H 5.743625 -1.639399 4.253351 0
M  V30 34 H 4.755359 0.133720 2.855950 0
M  V30 35 H 4.526803 1.009899 0.850157 0
M  V30 36 H 3.475696 2.791443 -0.587945 0
M  V30 37 H -0.820646 3.561302 -2.208366 0
M  V30 38 H -1.232634 -1.050424 0.691542 0
M  V30 39 H -2.777486 -2.017864 -1.296571 0
M  V30 40 H -5.202423 -1.897628 -1.886226 0
M  V30 41 H -6.559819 0.015147 -1.174969 0
M  V30 42 H -6.440925 2.402821 0.206295 0
M  V30 43 H -2.388860 2.366745 1.285634 0
M  V30 44 H 0.742566 -0.966262 1.158601 0
M  V30 45 H 2.010874 -2.606903 1.213483 0
M  V30 END ATOM
M  V30 BEGIN BOND
M  V30 1 1 1 2
M  V30 2 1 2 3
M  V30 3 2 3 4
M  V30 4 1 4 5
M  V30 5 2 5 6
M  V30 6 1 6 7
M  V30 7 1 7 8
M  V30 8 2 8 9
M  V30 9 1 9 10
M  V30 10 2 10 11
M  V30 11 1 11 12
M  V30 12 2 12 13
M  V30 13 1 13 14
M  V30 14 2 14 15
M  V30 15 1 15 16
M  V30 16 1 16 17
M  V30 17 2 17 18
M  V30 18 1 18 19
M  V30 19 2 19 20
M  V30 20 1 20 21
M  V30 21 1 21 22
M  V30 22 1 22 23
M  V30 23 2 23 24
M  V30 24 1 24 25
M  V30 25 1 15 26
M  V30 26 2 26 27
M  V30 27 2 7 28
M  V30 28 1 28 3
M  V30 29 1 27 8
M  V30 30 1 26 11
M  V30 31 1 25 17
M  V30 32 2 25 21
M  V30 33 1 1 29
M  V30 34 1 2 30
M  V30 35 1 2 31
M  V30 36 1 4 32
M  V30 37 1 5 33
M  V30 38 1 6 34
M  V30 39 1 9 35
M  V30 40 1 10 36
M  V30 41 1 13 37
M  V30 42 1 16 38
M  V30 43 1 18 39
M  V30 44 1 19 40
M  V30 45 1 20 41
M  V30 46 1 22 42
M  V30 47 1 24 43
M  V30 48 1 27 44
M  V30 49 1 28 45
M  V30 END BOND
M  V30 END CTAB
M  END
>  <Dataset>  (626) 
ChEMBL_Kinases

>  <Ligand_Instance>  (626) 
nan

>  <PDB_ID>  (626) 
nan

>  <Standardized_SMILES>  (626) 
OCc1cccc(-c2ccc3ncnc(Nc4cccc5[nH]ncc45)c3c2)c1

>  <Name>  (626) 
nan

>  <Pocket>  (626) 
nan

>  <ATP_Site>  (626) 
nan

>  <Peripheral>  (626) 
nan

>  <Num_H_Atoms_ProtBoundConf>  (626) 
nan

>  <Num_Resolved_Atoms>  (626) 
nan

>  <Num_Not_Resolved_Atoms>  (626) 
nan

$$$$
CHEMBL3661269
     RDKit          3D

  0  0  0  0  0  0  0  0  0  0999 V3000
M  V30 BEGIN CTAB
M  V30 COUNTS 48 52 0 0 0
M  V30 BEGIN ATOM
M  V30 1 C 1.717045 -4.578272 -3.964024 0
M  V30 2 C 2.541786 -5.151364 -2.859881 0
M  V30 3 O 2.174822 -4.698679 -1.586307 0
M  V30 4 C 2.178467 -3.397250 -1.138404 0
M  V30 5 C 2.553519 -2.295562 -1.877052 0
M  V30 6 C 2.509373 -1.028783 -1.298915 0
M  V30 7 C 2.089644 -0.863624 0.018813 0
M  V30 8 C 2.020206 0.437685 0.687415 0
M  V30 9 C 2.833806 1.514316 0.486503 0
M  V30 10 C 2.640617 2.695231 1.188744 0
M  V30 11 C 1.614577 2.824631 2.119866 0
M  V30 12 N 1.398885 3.959805 2.813354 0
M  V30 13 C 0.372005 4.005473 3.699474 0
M  V30 14 N -0.449429 2.963804 3.922100 0
M  V30 15 C -0.298684 1.778261 3.260439 0
M  V30 16 N -1.162022 0.661001 3.466091 0
M  V30 17 C -2.309670 0.178819 2.780651 0
M  V30 18 C -2.357836 -1.079856 2.219032 0
M  V30 19 C -3.403912 -1.648696 1.528646 0
M  V30 20 C -4.524677 -0.875542 1.383636 0
M  V30 21 C -4.567816 0.397879 1.912899 0
M  V30 22 N -5.502942 1.364650 1.931238 0
M  V30 23 N -5.084246 2.444005 2.574039 0
M  V30 24 C -3.821856 2.171480 2.994002 0
M  V30 25 C -3.477646 0.898555 2.592673 0
M  V30 26 C 0.750822 1.758870 2.367771 0
M  V30 27 C 1.006355 0.627686 1.635537 0
M  V30 28 C 1.715061 -2.002714 0.744758 0
M  V30 29 C 1.751024 -3.286977 0.185511 0
M  V30 30 H 2.302368 -4.186151 -4.821058 0
M  V30 31 H 1.079230 -5.379730 -4.387569 0
M  V30 32 H 1.010235 -3.809186 -3.542553 0
M  V30 33 H 2.404678 -6.251425 -2.849042 0
M  V30 34 H 3.618338 -4.942226 -3.056430 0
M  V30 35 H 2.875232 -2.450823 -2.897421 0
M  V30 36 H 2.799468 -0.154318 -1.863771 0
M  V30 37 H 3.617981 1.390905 -0.239424 0
M  V30 38 H 3.302918 3.532780 1.009224 0
M  V30 39 H 0.127130 4.871426 4.298880 0
M  V30 40 H -0.670292 0.287096 4.313846 0
M  V30 41 H -1.467142 -1.707461 2.328138 0
M  V30 42 H -3.317833 -2.654305 1.132107 0
M  V30 43 H -5.374640 -1.288190 0.843238 0
M  V30 44 H -6.431677 1.219856 1.472077 0
M  V30 45 H -3.204824 2.859367 3.552684 0
M  V30 46 H 0.345468 -0.206659 1.815472 0
M  V30 47 H 1.375413 -1.942356 1.790091 0
M  V30 48 H 1.444695 -4.130645 0.807630 0
M  V30 END ATOM
M  V30 BEGIN BOND
M  V30 1 1 1 2
M  V30 2 1 2 3
M  V30 3 1 3 4
M  V30 4 2 4 5
M  V30 5 1 5 6
M  V30 6 2 6 7
M  V30 7 1 7 8
M  V30 8 2 8 9
M  V30 9 1 9 10
M  V30 10 2 10 11
M  V30 11 1 11 12
M  V30 12 2 12 13
M  V30 13 1 13 14
M  V30 14 2 14 15
M  V30 15 1 15 16
M  V30 16 1 16 17
M  V30 17 2 17 18
M  V30 18 1 18 19
M  V30 19 2 19 20
M  V30 20 1 20 21
M  V30 21 1 21 22
M  V30 22 1 22 23
M  V30 23 2 23 24
M  V30 24 1 24 25
M  V30 25 1 15 26
M  V30 26 2 26 27
M  V30 27 1 7 28
M  V30 28 2 28 29
M  V30 29 1 29 4
M  V30 30 1 27 8
M  V30 31 1 26 11
M  V30 32 1 25 17
M  V30 33 2 25 21
M  V30 34 1 1 30
M  V30 35 1 1 31
M  V30 36 1 1 32
M  V30 37 1 2 33
M  V30 38 1 2 34
M  V30 39 1 5 35
M  V30 40 1 6 36
M  V30 41 1 9 37
M  V30 42 1 10 38
M  V30 43 1 13 39
M  V30 44 1 16 40
M  V30 45 1 18 41
M  V30 46 1 19 42
M  V30 47 1 20 43
M  V30 48 1 22 44
M  V30 49 1 24 45
M  V30 50 1 27 46
M  V30 51 1 28 47
M  V30 52 1 29 48
M  V30 END BOND
M  V30 END CTAB
M  END
>  <Dataset>  (627) 
ChEMBL_Kinases

>  <Ligand_Instance>  (627) 
nan

>  <PDB_ID>  (627) 
nan

>  <Standardized_SMILES>  (627) 
CCOc1ccc(-c2ccc3ncnc(Nc4cccc5[nH]ncc45)c3c2)cc1

>  <Name>  (627) 
nan

>  <Pocket>  (627) 
nan

>  <ATP_Site>  (627) 
nan

>  <Peripheral>  (627) 
nan

>  <Num_H_Atoms_ProtBoundConf>  (627) 
nan

>  <Num_Resolved_Atoms>  (627) 
nan

>  <Num_Not_Resolved_Atoms>  (627) 
nan

$$$$
CHEMBL3661268
     RDKit          3D

  0  0  0  0  0  0  0  0  0  0999 V3000
M  V30 BEGIN CTAB
M  V30 COUNTS 43 47 0 0 0
M  V30 BEGIN ATOM
M  V30 1 O 2.529493 -3.047110 4.515003 0
M  V30 2 N 3.198493 -3.769905 3.729252 0 CHG=1 VAL=4
M  V30 3 O 3.677765 -4.943422 4.259866 0 CHG=-1 VAL=1
M  V30 4 C 3.421452 -3.354502 2.369196 0
M  V30 5 C 4.157690 -4.197453 1.572063 0
M  V30 6 C 4.372174 -3.805348 0.274162 0
M  V30 7 C 3.854502 -2.605128 -0.180526 0
M  V30 8 C 3.110374 -1.764794 0.643843 0
M  V30 9 C 2.579529 -0.513247 0.146626 0
M  V30 10 C 3.349642 0.096971 -0.823437 0
M  V30 11 C 2.933247 1.305563 -1.359109 0
M  V30 12 C 1.766224 1.906294 -0.940052 0
M  V30 13 N 1.304933 3.074196 -1.401963 0
M  V30 14 C 0.157308 3.594765 -0.928010 0
M  V30 15 N -0.573229 2.956878 0.032862 0
M  V30 16 C -0.120716 1.773596 0.511043 0
M  V30 17 N -1.019602 1.288725 1.502115 0
M  V30 18 C -2.325022 0.731625 1.463137 0
M  V30 19 C -3.215167 1.492076 2.198638 0
M  V30 20 C -4.548827 1.113584 2.274144 0
M  V30 21 C -5.011199 -0.011282 1.628981 0
M  V30 22 C -4.127899 -0.776645 0.892400 0
M  V30 23 N -4.186469 -1.892800 0.151638 0
M  V30 24 N -2.984296 -2.185220 -0.345212 0
M  V30 25 C -2.097593 -1.251800 0.065892 0
M  V30 26 C -2.816099 -0.373186 0.839181 0
M  V30 27 C 1.054522 1.235483 0.029808 0
M  V30 28 C 1.391398 0.036839 0.615060 0
M  V30 29 C 2.886491 -2.147573 1.954166 0
M  V30 30 H 4.556819 -5.135395 1.949462 0
M  V30 31 H 4.951445 -4.443701 -0.393380 0
M  V30 32 H 4.051762 -2.339098 -1.216390 0
M  V30 33 H 4.275860 -0.297511 -1.212271 0
M  V30 34 H 3.522789 1.797652 -2.118545 0
M  V30 35 H -0.123676 4.541562 -1.371836 0
M  V30 36 H -0.567196 1.389818 2.430806 0
M  V30 37 H -3.000560 2.383043 2.747761 0
M  V30 38 H -5.296664 1.656981 2.826977 0
M  V30 39 H -6.032587 -0.329431 1.668397 0
M  V30 40 H -5.124994 -2.371047 0.059911 0
M  V30 41 H -1.063845 -1.233765 -0.180066 0
M  V30 42 H 0.799356 -0.450173 1.374782 0
M  V30 43 H 2.307337 -1.515496 2.632418 0
M  V30 END ATOM
M  V30 BEGIN BOND
M  V30 1 2 1 2
M  V30 2 1 2 3
M  V30 3 1 2 4
M  V30 4 2 4 5
M  V30 5 1 5 6
M  V30 6 2 6 7
M  V30 7 1 7 8
M  V30 8 1 8 9
M  V30 9 2 9 10
M  V30 10 1 10 11
M  V30 11 2 11 12
M  V30 12 1 12 13
M  V30 13 2 13 14
M  V30 14 1 14 15
M  V30 15 2 15 16
M  V30 16 1 16 17
M  V30 17 1 17 18
M  V30 18 2 18 19
M  V30 19 1 19 20
M  V30 20 2 20 21
M  V30 21 1 21 22
M  V30 22 1 22 23
M  V30 23 1 23 24
M  V30 24 2 24 25
M  V30 25 1 25 26
M  V30 26 1 16 27
M  V30 27 2 27 28
M  V30 28 2 8 29
M  V30 29 1 29 4
M  V30 30 1 28 9
M  V30 31 1 27 12
M  V30 32 1 26 18
M  V30 33 2 26 22
M  V30 34 1 5 30
M  V30 35 1 6 31
M  V30 36 1 7 32
M  V30 37 1 10 33
M  V30 38 1 11 34
M  V30 39 1 14 35
M  V30 40 1 17 36
M  V30 41 1 19 37
M  V30 42 1 20 38
M  V30 43 1 21 39
M  V30 44 1 23 40
M  V30 45 1 25 41
M  V30 46 1 28 42
M  V30 47 1 29 43
M  V30 END BOND
M  V30 END CTAB
M  END
>  <Dataset>  (628) 
ChEMBL_Kinases

>  <Ligand_Instance>  (628) 
nan

>  <PDB_ID>  (628) 
nan

>  <Standardized_SMILES>  (628) 
O=[N+]([O-])c1cccc(-c2ccc3ncnc(Nc4cccc5[nH]ncc45)c3c2)c1

>  <Name>  (628) 
nan

>  <Pocket>  (628) 
nan

>  <ATP_Site>  (628) 
nan

>  <Peripheral>  (628) 
nan

>  <Num_H_Atoms_ProtBoundConf>  (628) 
nan

>  <Num_Resolved_Atoms>  (628) 
nan

>  <Num_Not_Resolved_Atoms>  (628) 
nan

$$$$
CHEMBL3661267
     RDKit          3D

  0  0  0  0  0  0  0  0  0  0999 V3000
M  V30 BEGIN CTAB
M  V30 COUNTS 41 45 0 0 0
M  V30 BEGIN ATOM
M  V30 1 F 4.645069 -2.388107 -0.391831 0
M  V30 2 C 3.717437 -2.985168 0.397297 0
M  V30 3 C 4.033382 -4.084341 1.195595 0
M  V30 4 C 3.018494 -4.601790 1.948778 0
M  V30 5 C 1.730854 -4.107204 1.960751 0
M  V30 6 C 1.437635 -3.003861 1.152456 0
M  V30 7 C 2.435940 -2.431107 0.359199 0
M  V30 8 C 2.090855 -1.288629 -0.478591 0
M  V30 9 C 2.410061 -1.171154 -1.816790 0
M  V30 10 C 2.068858 -0.068022 -2.571369 0
M  V30 11 C 1.371758 0.966357 -1.948395 0
M  V30 12 N 0.994451 2.093949 -2.613807 0
M  V30 13 C 0.318997 3.071037 -1.961809 0
M  V30 14 N 0.002304 2.962864 -0.651510 0
M  V30 15 C 0.369692 1.850262 0.022577 0
M  V30 16 N -0.030466 1.832828 1.400772 0
M  V30 17 C -1.216120 1.072828 1.560077 0
M  V30 18 C -1.887137 0.428697 0.547390 0
M  V30 19 C -3.048046 -0.323245 0.673157 0
M  V30 20 C -3.577227 -0.430209 1.950975 0
M  V30 21 C -2.946792 0.193409 2.996482 0
M  V30 22 N -3.321212 0.191051 4.280257 0
M  V30 23 N -2.425510 0.920011 4.961424 0
M  V30 24 C -1.498526 1.373513 4.106655 0
M  V30 25 C -1.797574 0.927367 2.820771 0
M  V30 26 C 1.061416 0.825120 -0.601910 0
M  V30 27 C 1.400257 -0.282306 0.171429 0
M  V30 28 H 5.043107 -4.489722 1.203603 0
M  V30 29 H 3.187444 -5.470972 2.604875 0
M  V30 30 H 0.914802 -4.503225 2.548414 0
M  V30 31 H 0.433499 -2.581958 1.134127 0
M  V30 32 H 2.959904 -2.011600 -2.267065 0
M  V30 33 H 2.319454 0.019150 -3.618920 0
M  V30 34 H 0.010276 3.977613 -2.477823 0
M  V30 35 H 0.401716 2.270722 2.242407 0
M  V30 36 H -1.489015 0.498443 -0.463463 0
M  V30 37 H -3.487868 -0.789990 -0.220071 0
M  V30 38 H -4.488276 -1.020288 2.037270 0
M  V30 39 H -4.101692 -0.229820 4.810661 0
M  V30 40 H -0.628998 2.001427 4.336555 0
M  V30 41 H 1.119629 -0.309983 1.214479 0
M  V30 END ATOM
M  V30 BEGIN BOND
M  V30 1 1 1 2
M  V30 2 2 2 3
M  V30 3 1 3 4
M  V30 4 2 4 5
M  V30 5 1 5 6
M  V30 6 2 6 7
M  V30 7 1 7 8
M  V30 8 2 8 9
M  V30 9 1 9 10
M  V30 10 2 10 11
M  V30 11 1 11 12
M  V30 12 2 12 13
M  V30 13 1 13 14
M  V30 14 2 14 15
M  V30 15 1 15 16
M  V30 16 1 16 17
M  V30 17 2 17 18
M  V30 18 1 18 19
M  V30 19 2 19 20
M  V30 20 1 20 21
M  V30 21 1 21 22
M  V30 22 1 22 23
M  V30 23 2 23 24
M  V30 24 1 24 25
M  V30 25 1 15 26
M  V30 26 2 26 27
M  V30 27 1 7 2
M  V30 28 1 27 8
M  V30 29 1 26 11
M  V30 30 1 25 17
M  V30 31 2 25 21
M  V30 32 1 3 28
M  V30 33 1 4 29
M  V30 34 1 5 30
M  V30 35 1 6 31
M  V30 36 1 9 32
M  V30 37 1 10 33
M  V30 38 1 13 34
M  V30 39 1 16 35
M  V30 40 1 18 36
M  V30 41 1 19 37
M  V30 42 1 20 38
M  V30 43 1 22 39
M  V30 44 1 24 40
M  V30 45 1 27 41
M  V30 END BOND
M  V30 END CTAB
M  END
>  <Dataset>  (629) 
ChEMBL_Kinases

>  <Ligand_Instance>  (629) 
nan

>  <PDB_ID>  (629) 
nan

>  <Standardized_SMILES>  (629) 
Fc1ccccc1-c1ccc2ncnc(Nc3cccc4[nH]ncc34)c2c1

>  <Name>  (629) 
nan

>  <Pocket>  (629) 
nan

>  <ATP_Site>  (629) 
nan

>  <Peripheral>  (629) 
nan

>  <Num_H_Atoms_ProtBoundConf>  (629) 
nan

>  <Num_Resolved_Atoms>  (629) 
nan

>  <Num_Not_Resolved_Atoms>  (629) 
nan

$$$$
CHEMBL3661266
     RDKit          3D

  0  0  0  0  0  0  0  0  0  0999 V3000
M  V30 BEGIN CTAB
M  V30 COUNTS 49 53 0 0 0
M  V30 BEGIN ATOM
M  V30 1 C 3.032946 -4.466614 -2.909208 0
M  V30 2 N 2.213552 -4.377418 -1.711390 0
M  V30 3 C 1.459505 -5.471016 -1.184063 0
M  V30 4 C 2.146797 -3.118475 -1.005908 0
M  V30 5 C 2.822598 -1.981627 -1.390632 0
M  V30 6 C 2.736680 -0.784371 -0.712047 0
M  V30 7 C 1.926367 -0.734889 0.411336 0
M  V30 8 C 1.871125 0.571793 1.062875 0
M  V30 9 C 2.908016 1.477963 1.099401 0
M  V30 10 C 2.651122 2.671166 1.738534 0
M  V30 11 C 1.445799 2.982722 2.320316 0
M  V30 12 N 1.307941 4.186764 2.908540 0
M  V30 13 C 0.116956 4.480286 3.465117 0
M  V30 14 N -0.901219 3.613979 3.441459 0
M  V30 15 C -0.812265 2.399223 2.866696 0
M  V30 16 N -1.790521 1.380046 2.750844 0
M  V30 17 C -2.612859 0.814870 1.768745 0
M  V30 18 C -2.614033 1.213348 0.442681 0
M  V30 19 C -3.441753 0.620951 -0.510250 0
M  V30 20 C -4.256961 -0.384397 -0.044642 0
M  V30 21 C -4.270399 -0.794943 1.272632 0
M  V30 22 N -4.984027 -1.748523 1.932894 0
M  V30 23 N -4.616168 -1.745404 3.222493 0
M  V30 24 C -3.672587 -0.805209 3.420104 0
M  V30 25 C -3.443777 -0.193215 2.186249 0
M  V30 26 C 0.406468 2.043739 2.271172 0
M  V30 27 C 0.625042 0.838542 1.640545 0
M  V30 28 C 1.224234 -1.835068 0.850313 0
M  V30 29 C 1.345924 -3.010288 0.134768 0
M  V30 30 H 3.003935 -3.510101 -3.513413 0
M  V30 31 H 4.097428 -4.660420 -2.707913 0
M  V30 32 H 2.674671 -5.238727 -3.625832 0
M  V30 33 H 1.947239 -5.806086 -0.233800 0
M  V30 34 H 1.446214 -6.352550 -1.853863 0
M  V30 35 H 0.437260 -5.185551 -0.906565 0
M  V30 36 H 3.459729 -2.009344 -2.263245 0
M  V30 37 H 3.309312 0.076996 -1.083088 0
M  V30 38 H 3.826931 1.168054 0.621951 0
M  V30 39 H 3.475774 3.384407 1.763752 0
M  V30 40 H -0.170235 5.392550 3.972115 0
M  V30 41 H -1.752104 1.091945 3.734138 0
M  V30 42 H -1.942506 2.017433 0.126617 0
M  V30 43 H -3.418849 0.956995 -1.555734 0
M  V30 44 H -4.921543 -0.881057 -0.743170 0
M  V30 45 H -5.709328 -2.391865 1.515942 0
M  V30 46 H -3.183821 -0.571055 4.366867 0
M  V30 47 H -0.185112 0.149689 1.621677 0
M  V30 48 H 0.602791 -1.752585 1.732239 0
M  V30 49 H 0.770610 -3.830117 0.537351 0
M  V30 END ATOM
M  V30 BEGIN BOND
M  V30 1 1 1 2
M  V30 2 1 2 3
M  V30 3 1 2 4
M  V30 4 2 4 5
M  V30 5 1 5 6
M  V30 6 2 6 7
M  V30 7 1 7 8
M  V30 8 2 8 9
M  V30 9 1 9 10
M  V30 10 2 10 11
M  V30 11 1 11 12
M  V30 12 2 12 13
M  V30 13 1 13 14
M  V30 14 2 14 15
M  V30 15 1 15 16
M  V30 16 1 16 17
M  V30 17 2 17 18
M  V30 18 1 18 19
M  V30 19 2 19 20
M  V30 20 1 20 21
M  V30 21 1 21 22
M  V30 22 1 22 23
M  V30 23 2 23 24
M  V30 24 1 24 25
M  V30 25 1 15 26
M  V30 26 2 26 27
M  V30 27 1 7 28
M  V30 28 2 28 29
M  V30 29 1 29 4
M  V30 30 1 27 8
M  V30 31 1 26 11
M  V30 32 1 25 17
M  V30 33 2 25 21
M  V30 34 1 1 30
M  V30 35 1 1 31
M  V30 36 1 1 32
M  V30 37 1 3 33
M  V30 38 1 3 34
M  V30 39 1 3 35
M  V30 40 1 5 36
M  V30 41 1 6 37
M  V30 42 1 9 38
M  V30 43 1 10 39
M  V30 44 1 13 40
M  V30 45 1 16 41
M  V30 46 1 18 42
M  V30 47 1 19 43
M  V30 48 1 20 44
M  V30 49 1 22 45
M  V30 50 1 24 46
M  V30 51 1 27 47
M  V30 52 1 28 48
M  V30 53 1 29 49
M  V30 END BOND
M  V30 END CTAB
M  END
>  <Dataset>  (630) 
ChEMBL_Kinases

>  <Ligand_Instance>  (630) 
nan

>  <PDB_ID>  (630) 
nan

>  <Standardized_SMILES>  (630) 
CN(C)c1ccc(-c2ccc3ncnc(Nc4cccc5[nH]ncc45)c3c2)cc1

>  <Name>  (630) 
nan

>  <Pocket>  (630) 
nan

>  <ATP_Site>  (630) 
nan

>  <Peripheral>  (630) 
nan

>  <Num_H_Atoms_ProtBoundConf>  (630) 
nan

>  <Num_Resolved_Atoms>  (630) 
nan

>  <Num_Not_Resolved_Atoms>  (630) 
nan

$$$$
CHEMBL3661265
     RDKit          3D

  0  0  0  0  0  0  0  0  0  0999 V3000
M  V30 BEGIN CTAB
M  V30 COUNTS 49 53 0 0 0
M  V30 BEGIN ATOM
M  V30 1 C -1.858013 -4.477426 5.213736 0
M  V30 2 O -1.112742 -4.951916 4.131351 0
M  V30 3 C -0.402290 -4.113193 3.267950 0
M  V30 4 C -0.497751 -2.772530 3.573702 0
M  V30 5 C 0.168960 -1.843630 2.781987 0
M  V30 6 C 0.897218 -2.343112 1.719597 0
M  V30 7 C 1.647714 -1.451076 0.808777 0
M  V30 8 C 2.823970 -1.906503 0.204787 0
M  V30 9 C 3.534683 -1.077110 -0.651473 0
M  V30 10 C 3.095453 0.205285 -0.920707 0
M  V30 11 N 3.762085 1.025190 -1.742701 0
M  V30 12 C 3.345291 2.275229 -2.013108 0
M  V30 13 N 2.211008 2.680555 -1.415626 0
M  V30 14 C 1.517047 1.910400 -0.597073 0
M  V30 15 N 0.338367 2.481751 -0.043991 0
M  V30 16 C -1.052738 2.660368 -0.202825 0
M  V30 17 C -1.870326 2.160635 0.813833 0
M  V30 18 C -3.227680 2.335512 0.652905 0
M  V30 19 C -3.711194 2.974245 -0.465091 0
M  V30 20 C -2.904796 3.466630 -1.466787 0
M  V30 21 N -3.161822 4.114022 -2.626750 0
M  V30 22 N -1.991423 4.366368 -3.229310 0
M  V30 23 C -1.004971 3.878517 -2.448992 0
M  V30 24 C -1.544561 3.299745 -1.320868 0
M  V30 25 C 1.933048 0.623330 -0.309655 0
M  V30 26 C 1.196296 -0.163881 0.545711 0
M  V30 27 C 0.984330 -3.687505 1.424768 0
M  V30 28 C 0.321262 -4.622243 2.210739 0
M  V30 29 O 0.289892 -5.992504 2.074958 0
M  V30 30 C 0.932418 -6.752643 1.098582 0
M  V30 31 H -1.233896 -4.079170 6.037232 0
M  V30 32 H -2.590927 -3.685948 4.899779 0
M  V30 33 H -2.460451 -5.315895 5.615851 0
M  V30 34 H -1.072481 -2.391229 4.410575 0
M  V30 35 H 0.158504 -0.776365 2.935135 0
M  V30 36 H 3.194224 -2.911973 0.398138 0
M  V30 37 H 4.454093 -1.376736 -1.148735 0
M  V30 38 H 3.877216 2.946671 -2.676678 0
M  V30 39 H 0.682752 2.947596 0.830396 0
M  V30 40 H -1.489360 1.660228 1.690403 0
M  V30 41 H -3.914077 1.966493 1.413508 0
M  V30 42 H -4.779546 3.099976 -0.569889 0
M  V30 43 H -4.089273 4.388149 -3.021111 0
M  V30 44 H 0.051186 3.926895 -2.662397 0
M  V30 45 H 0.290975 0.215930 0.997467 0
M  V30 46 H 1.540989 -4.093929 0.608864 0
M  V30 47 H 1.423643 -7.642381 1.548874 0
M  V30 48 H 0.243080 -7.169088 0.326462 0
M  V30 49 H 1.647514 -6.119183 0.543300 0
M  V30 END ATOM
M  V30 BEGIN BOND
M  V30 1 1 1 2
M  V30 2 1 2 3
M  V30 3 2 3 4
M  V30 4 1 4 5
M  V30 5 2 5 6
M  V30 6 1 6 7
M  V30 7 2 7 8
M  V30 8 1 8 9
M  V30 9 2 9 10
M  V30 10 1 10 11
M  V30 11 2 11 12
M  V30 12 1 12 13
M  V30 13 2 13 14
M  V30 14 1 14 15
M  V30 15 1 15 16
M  V30 16 2 16 17
M  V30 17 1 17 18
M  V30 18 2 18 19
M  V30 19 1 19 20
M  V30 20 1 20 21
M  V30 21 1 21 22
M  V30 22 2 22 23
M  V30 23 1 23 24
M  V30 24 1 14 25
M  V30 25 2 25 26
M  V30 26 1 6 27
M  V30 27 2 27 28
M  V30 28 1 28 29
M  V30 29 1 29 30
M  V30 30 1 28 3
M  V30 31 1 26 7
M  V30 32 1 25 10
M  V30 33 1 24 16
M  V30 34 2 24 20
M  V30 35 1 1 31
M  V30 36 1 1 32
M  V30 37 1 1 33
M  V30 38 1 4 34
M  V30 39 1 5 35
M  V30 40 1 8 36
M  V30 41 1 9 37
M  V30 42 1 12 38
M  V30 43 1 15 39
M  V30 44 1 17 40
M  V30 45 1 18 41
M  V30 46 1 19 42
M  V30 47 1 21 43
M  V30 48 1 23 44
M  V30 49 1 26 45
M  V30 50 1 27 46
M  V30 51 1 30 47
M  V30 52 1 30 48
M  V30 53 1 30 49
M  V30 END BOND
M  V30 END CTAB
M  END
>  <Dataset>  (631) 
ChEMBL_Kinases

>  <Ligand_Instance>  (631) 
nan

>  <PDB_ID>  (631) 
nan

>  <Standardized_SMILES>  (631) 
COc1ccc(-c2ccc3ncnc(Nc4cccc5[nH]ncc45)c3c2)cc1OC

>  <Name>  (631) 
nan

>  <Pocket>  (631) 
nan

>  <ATP_Site>  (631) 
nan

>  <Peripheral>  (631) 
nan

>  <Num_H_Atoms_ProtBoundConf>  (631) 
nan

>  <Num_Resolved_Atoms>  (631) 
nan

>  <Num_Not_Resolved_Atoms>  (631) 
nan

$$$$
CHEMBL3661264
     RDKit          3D

  0  0  0  0  0  0  0  0  0  0999 V3000
M  V30 BEGIN CTAB
M  V30 COUNTS 42 46 0 0 0
M  V30 BEGIN ATOM
M  V30 1 C 4.613077 -6.235647 2.908827 0 CHG=-1 VAL=3
M  V30 2 N 4.066043 -5.518656 2.215345 0 CHG=1 VAL=4
M  V30 3 C 3.406997 -4.626906 1.385310 0
M  V30 4 C 2.627728 -5.068374 0.308970 0
M  V30 5 C 1.988298 -4.154328 -0.497572 0
M  V30 6 C 2.088964 -2.800288 -0.280215 0
M  V30 7 C 1.482814 -1.725777 -1.052637 0
M  V30 8 C 1.273450 -1.833774 -2.434598 0
M  V30 9 C 0.694012 -0.787741 -3.124966 0
M  V30 10 C 0.316914 0.371709 -2.455889 0
M  V30 11 N -0.240817 1.375254 -3.139412 0
M  V30 12 C -0.607051 2.501496 -2.489273 0
M  V30 13 N -0.418828 2.628320 -1.164834 0
M  V30 14 C 0.129180 1.674623 -0.420957 0
M  V30 15 N 0.336391 1.776788 1.006135 0
M  V30 16 C -0.487940 1.362274 2.109959 0
M  V30 17 C -0.020290 0.430161 3.040013 0
M  V30 18 C -0.741362 -0.019510 4.111616 0
M  V30 19 C -2.017271 0.467782 4.303444 0
M  V30 20 C -2.531825 1.383614 3.426123 0
M  V30 21 N -3.729969 2.020665 3.371630 0
M  V30 22 N -3.722752 2.824777 2.302690 0
M  V30 23 C -2.533273 2.702362 1.682312 0
M  V30 24 C -1.768435 1.804960 2.365824 0
M  V30 25 C 0.504669 0.513771 -1.108452 0
M  V30 26 C 1.078900 -0.540838 -0.467474 0
M  V30 27 C 2.864876 -2.350317 0.792495 0
M  V30 28 C 3.509720 -3.258214 1.606883 0
M  V30 29 H 2.524085 -6.131019 0.107566 0
M  V30 30 H 1.371482 -4.424255 -1.344100 0
M  V30 31 H 1.603294 -2.786635 -2.874812 0
M  V30 32 H 0.551431 -0.921381 -4.209023 0
M  V30 33 H -1.057653 3.332420 -2.981613 0
M  V30 34 H 1.268864 2.246196 1.201086 0
M  V30 35 H 0.985539 0.003829 2.949030 0
M  V30 36 H -0.421233 -0.724154 4.839360 0
M  V30 37 H -2.658724 0.162118 5.131126 0
M  V30 38 H -4.552607 1.949541 4.005357 0
M  V30 39 H -2.284913 3.244854 0.802460 0
M  V30 40 H 1.234219 -0.446055 0.598000 0
M  V30 41 H 3.015032 -1.299260 1.052377 0
M  V30 42 H 4.123858 -2.916930 2.453601 0
M  V30 END ATOM
M  V30 BEGIN BOND
M  V30 1 3 1 2
M  V30 2 1 2 3
M  V30 3 2 3 4
M  V30 4 1 4 5
M  V30 5 2 5 6
M  V30 6 1 6 7
M  V30 7 2 7 8
M  V30 8 1 8 9
M  V30 9 2 9 10
M  V30 10 1 10 11
M  V30 11 2 11 12
M  V30 12 1 12 13
M  V30 13 2 13 14
M  V30 14 1 14 15
M  V30 15 1 15 16
M  V30 16 2 16 17
M  V30 17 1 17 18
M  V30 18 2 18 19
M  V30 19 1 19 20
M  V30 20 1 20 21
M  V30 21 1 21 22
M  V30 22 2 22 23
M  V30 23 1 23 24
M  V30 24 1 14 25
M  V30 25 2 25 26
M  V30 26 1 6 27
M  V30 27 2 27 28
M  V30 28 1 28 3
M  V30 29 1 26 7
M  V30 30 1 25 10
M  V30 31 1 24 16
M  V30 32 2 24 20
M  V30 33 1 4 29
M  V30 34 1 5 30
M  V30 35 1 8 31
M  V30 36 1 9 32
M  V30 37 1 12 33
M  V30 38 1 15 34
M  V30 39 1 17 35
M  V30 40 1 18 36
M  V30 41 1 19 37
M  V30 42 1 21 38
M  V30 43 1 23 39
M  V30 44 1 26 40
M  V30 45 1 27 41
M  V30 46 1 28 42
M  V30 END BOND
M  V30 END CTAB
M  END
>  <Dataset>  (632) 
ChEMBL_Kinases

>  <Ligand_Instance>  (632) 
nan

>  <PDB_ID>  (632) 
nan

>  <Standardized_SMILES>  (632) 
[C-]#[N+]c1ccc(-c2ccc3ncnc(Nc4cccc5[nH]ncc45)c3c2)cc1

>  <Name>  (632) 
nan

>  <Pocket>  (632) 
nan

>  <ATP_Site>  (632) 
nan

>  <Peripheral>  (632) 
nan

>  <Num_H_Atoms_ProtBoundConf>  (632) 
nan

>  <Num_Resolved_Atoms>  (632) 
nan

>  <Num_Not_Resolved_Atoms>  (632) 
nan

$$$$
CHEMBL3661263
     RDKit          3D

  0  0  0  0  0  0  0  0  0  0999 V3000
M  V30 BEGIN CTAB
M  V30 COUNTS 44 48 0 0 0
M  V30 BEGIN ATOM
M  V30 1 F 1.513517 1.650744 -5.240545 0
M  V30 2 C 1.965922 0.379635 -5.046578 0
M  V30 3 F 1.483022 -0.507060 -5.998583 0
M  V30 4 F 3.342012 0.324893 -5.137528 0
M  V30 5 C 1.613010 -0.168681 -3.685593 0
M  V30 6 C 1.914599 -1.493171 -3.514415 0
M  V30 7 C 1.573232 -1.975367 -2.268218 0
M  V30 8 C 0.976371 -1.176884 -1.283023 0
M  V30 9 C 0.720022 0.167895 -1.586825 0
M  V30 10 C 0.087346 0.992049 -0.564987 0
M  V30 11 C -0.753105 2.061941 -0.847885 0
M  V30 12 C -1.373768 2.854125 0.127074 0
M  V30 13 C -1.109469 2.519759 1.461148 0
M  V30 14 N -1.713246 3.278069 2.431597 0
M  V30 15 C -1.456817 2.942506 3.732880 0
M  V30 16 N -0.649361 1.914392 4.075480 0
M  V30 17 C -0.039499 1.147499 3.167308 0
M  V30 18 N 0.814999 0.043791 3.479743 0
M  V30 19 C 0.226858 -1.242188 3.433175 0
M  V30 20 C -1.087673 -1.397363 3.078432 0
M  V30 21 C -1.751630 -2.625278 3.002743 0
M  V30 22 C -0.995727 -3.742067 3.316167 0
M  V30 23 C 0.309928 -3.546792 3.665230 0
M  V30 24 N 1.240853 -4.483854 4.011625 0
M  V30 25 N 2.396631 -3.926552 4.285939 0
M  V30 26 C 2.317741 -2.576780 4.141607 0
M  V30 27 C 1.016244 -2.361454 3.756523 0
M  V30 28 C -0.279590 1.463442 1.852138 0
M  V30 29 C 0.244713 0.793901 0.783570 0
M  V30 30 C 1.042336 0.721968 -2.834294 0
M  V30 31 H 2.365499 -2.194478 -4.188383 0
M  V30 32 H 1.712841 -3.000613 -1.887130 0
M  V30 33 H 0.696710 -1.527934 -0.300155 0
M  V30 34 H -0.942854 2.302438 -1.904241 0
M  V30 35 H -2.014455 3.671823 -0.120228 0
M  V30 36 H -1.862180 3.451365 4.595139 0
M  V30 37 H 1.833692 0.156735 3.734605 0
M  V30 38 H -1.742833 -0.548119 2.816605 0
M  V30 39 H -2.780735 -2.744426 2.722362 0
M  V30 40 H -1.407270 -4.757595 3.293923 0
M  V30 41 H 1.249021 -5.507675 4.107810 0
M  V30 42 H 2.938818 -1.697357 4.235817 0
M  V30 43 H 0.904343 -0.044491 1.067079 0
M  V30 44 H 0.857818 1.736390 -3.089518 0
M  V30 END ATOM
M  V30 BEGIN BOND
M  V30 1 1 1 2
M  V30 2 1 2 3
M  V30 3 1 2 4
M  V30 4 1 2 5
M  V30 5 2 5 6
M  V30 6 1 6 7
M  V30 7 2 7 8
M  V30 8 1 8 9
M  V30 9 1 9 10
M  V30 10 2 10 11
M  V30 11 1 11 12
M  V30 12 2 12 13
M  V30 13 1 13 14
M  V30 14 2 14 15
M  V30 15 1 15 16
M  V30 16 2 16 17
M  V30 17 1 17 18
M  V30 18 1 18 19
M  V30 19 2 19 20
M  V30 20 1 20 21
M  V30 21 2 21 22
M  V30 22 1 22 23
M  V30 23 1 23 24
M  V30 24 1 24 25
M  V30 25 2 25 26
M  V30 26 1 26 27
M  V30 27 1 17 28
M  V30 28 2 28 29
M  V30 29 2 9 30
M  V30 30 1 30 5
M  V30 31 1 29 10
M  V30 32 1 28 13
M  V30 33 1 27 19
M  V30 34 2 27 23
M  V30 35 1 6 31
M  V30 36 1 7 32
M  V30 37 1 8 33
M  V30 38 1 11 34
M  V30 39 1 12 35
M  V30 40 1 15 36
M  V30 41 1 18 37
M  V30 42 1 20 38
M  V30 43 1 21 39
M  V30 44 1 22 40
M  V30 45 1 24 41
M  V30 46 1 26 42
M  V30 47 1 29 43
M  V30 48 1 30 44
M  V30 END BOND
M  V30 END CTAB
M  END
>  <Dataset>  (633) 
ChEMBL_Kinases

>  <Ligand_Instance>  (633) 
nan

>  <PDB_ID>  (633) 
nan

>  <Standardized_SMILES>  (633) 
FC(F)(F)c1cccc(-c2ccc3ncnc(Nc4cccc5[nH]ncc45)c3c2)c1

>  <Name>  (633) 
nan

>  <Pocket>  (633) 
nan

>  <ATP_Site>  (633) 
nan

>  <Peripheral>  (633) 
nan

>  <Num_H_Atoms_ProtBoundConf>  (633) 
nan

>  <Num_Resolved_Atoms>  (633) 
nan

>  <Num_Not_Resolved_Atoms>  (633) 
nan

$$$$
CHEMBL3661262
     RDKit          3D

  0  0  0  0  0  0  0  0  0  0999 V3000
M  V30 BEGIN CTAB
M  V30 COUNTS 41 45 0 0 0
M  V30 BEGIN ATOM
M  V30 1 C 0.483146 -4.824777 2.464755 0
M  V30 2 C 1.825948 -4.631303 2.256640 0
M  V30 3 C 2.102167 -3.671288 1.332802 0
M  V30 4 C 1.227875 -2.918092 0.625057 0
M  V30 5 C 1.562654 -1.893183 -0.348022 0
M  V30 6 C 2.653067 -1.849561 -1.184123 0
M  V30 7 C 2.826692 -0.780838 -2.040357 0
M  V30 8 C 1.927898 0.288132 -2.101610 0
M  V30 9 N 2.150790 1.326966 -2.961953 0
M  V30 10 C 1.215447 2.324167 -2.938068 0
M  V30 11 N 0.111470 2.341868 -2.134277 0
M  V30 12 C -0.130054 1.328747 -1.278933 0
M  V30 13 N -1.178004 1.113517 -0.346457 0
M  V30 14 C -0.788296 1.382237 1.018299 0
M  V30 15 C 0.479207 1.847273 1.327403 0
M  V30 16 C 0.882933 2.077048 2.629362 0
M  V30 17 C 0.016122 1.846616 3.688327 0
M  V30 18 C -1.212980 1.391769 3.329267 0
M  V30 19 N -2.254375 1.076291 4.151379 0
M  V30 20 N -3.291459 0.660169 3.418963 0
M  V30 21 C -2.983572 0.683461 2.105998 0
M  V30 22 C -1.688828 1.139901 2.064780 0
M  V30 23 C 0.796358 0.296430 -1.271579 0
M  V30 24 C 0.695519 -0.808009 -0.446245 0
M  V30 25 C -0.111779 -3.182818 0.900777 0
M  V30 26 C -0.565006 -4.136130 1.822637 0
M  V30 27 H 0.143513 -5.566835 3.187387 0
M  V30 28 H 2.550482 -5.219101 2.803617 0
M  V30 29 H 3.158921 -3.489825 1.137184 0
M  V30 30 H 3.330226 -2.686857 -1.112277 0
M  V30 31 H 3.707861 -0.801864 -2.674362 0
M  V30 32 H 1.236950 3.216988 -3.546336 0
M  V30 33 H -2.162353 0.798482 -0.512055 0
M  V30 34 H 1.209996 2.049277 0.531976 0
M  V30 35 H 1.900325 2.443560 2.804910 0
M  V30 36 H 0.302978 2.012952 4.713593 0
M  V30 37 H -2.252937 1.142923 5.213018 0
M  V30 38 H -3.612150 0.406538 1.259871 0
M  V30 39 H -0.168824 -0.832473 0.206969 0
M  V30 40 H -0.942168 -2.671463 0.425328 0
M  V30 41 H -1.602925 -4.326947 2.031434 0
M  V30 END ATOM
M  V30 BEGIN BOND
M  V30 1 2 1 2
M  V30 2 1 2 3
M  V30 3 2 3 4
M  V30 4 1 4 5
M  V30 5 2 5 6
M  V30 6 1 6 7
M  V30 7 2 7 8
M  V30 8 1 8 9
M  V30 9 2 9 10
M  V30 10 1 10 11
M  V30 11 2 11 12
M  V30 12 1 12 13
M  V30 13 1 13 14
M  V30 14 2 14 15
M  V30 15 1 15 16
M  V30 16 2 16 17
M  V30 17 1 17 18
M  V30 18 1 18 19
M  V30 19 1 19 20
M  V30 20 2 20 21
M  V30 21 1 21 22
M  V30 22 1 12 23
M  V30 23 2 23 24
M  V30 24 1 4 25
M  V30 25 2 25 26
M  V30 26 1 26 1
M  V30 27 1 24 5
M  V30 28 1 23 8
M  V30 29 1 22 14
M  V30 30 2 22 18
M  V30 31 1 1 27
M  V30 32 1 2 28
M  V30 33 1 3 29
M  V30 34 1 6 30
M  V30 35 1 7 31
M  V30 36 1 10 32
M  V30 37 1 13 33
M  V30 38 1 15 34
M  V30 39 1 16 35
M  V30 40 1 17 36
M  V30 41 1 19 37
M  V30 42 1 21 38
M  V30 43 1 24 39
M  V30 44 1 25 40
M  V30 45 1 26 41
M  V30 END BOND
M  V30 END CTAB
M  END
>  <Dataset>  (634) 
ChEMBL_Kinases

>  <Ligand_Instance>  (634) 
nan

>  <PDB_ID>  (634) 
nan

>  <Standardized_SMILES>  (634) 
c1ccc(-c2ccc3ncnc(Nc4cccc5[nH]ncc45)c3c2)cc1

>  <Name>  (634) 
nan

>  <Pocket>  (634) 
nan

>  <ATP_Site>  (634) 
nan

>  <Peripheral>  (634) 
nan

>  <Num_H_Atoms_ProtBoundConf>  (634) 
nan

>  <Num_Resolved_Atoms>  (634) 
nan

>  <Num_Not_Resolved_Atoms>  (634) 
nan

$$$$
CHEMBL3661261
     RDKit          3D

  0  0  0  0  0  0  0  0  0  0999 V3000
M  V30 BEGIN CTAB
M  V30 COUNTS 41 45 0 0 0
M  V30 BEGIN ATOM
M  V30 1 F 0.981444 -6.263252 2.688937 0
M  V30 2 C 0.950689 -5.193124 1.832093 0
M  V30 3 C 0.438220 -5.244620 0.542745 0
M  V30 4 C 0.443325 -4.123756 -0.261265 0
M  V30 5 C 0.961277 -2.928780 0.208491 0
M  V30 6 C 0.976149 -1.736907 -0.631830 0
M  V30 7 C 1.127509 -2.032408 -1.969740 0
M  V30 8 C 1.163812 -0.986179 -2.896990 0
M  V30 9 C 1.042282 0.292156 -2.401247 0
M  V30 10 N 1.086053 1.327357 -3.231533 0
M  V30 11 C 0.988013 2.580404 -2.797668 0
M  V30 12 N 0.838561 2.873344 -1.502099 0
M  V30 13 C 0.783496 1.892828 -0.596504 0
M  V30 14 N 0.623940 2.259381 0.753970 0
M  V30 15 C 0.319181 1.834523 2.065060 0
M  V30 16 C 1.134778 1.840614 3.180240 0
M  V30 17 C 0.591681 1.403007 4.371430 0
M  V30 18 C -0.713981 0.973438 4.461415 0
M  V30 19 C -1.542781 0.961073 3.355698 0
M  V30 20 N -2.818032 0.591169 3.225286 0
M  V30 21 N -3.161057 0.772368 1.941565 0
M  V30 22 C -2.089595 1.254727 1.288047 0
M  V30 23 C -1.016247 1.399782 2.135870 0
M  V30 24 C 0.889538 0.608190 -1.072003 0
M  V30 25 C 0.858614 -0.438677 -0.179641 0
M  V30 26 C 1.462461 -2.894770 1.481725 0
M  V30 27 C 1.470636 -4.001271 2.309410 0
M  V30 28 F 1.979559 -3.925659 3.568368 0
M  V30 29 H 0.036851 -6.202262 0.204454 0
M  V30 30 H 0.028948 -4.217148 -1.264449 0
M  V30 31 H 1.224161 -3.009125 -2.391294 0
M  V30 32 H 1.282053 -1.178280 -3.955067 0
M  V30 33 H 1.026561 3.421882 -3.490466 0
M  V30 34 H 0.779384 3.284993 1.007116 0
M  V30 35 H 2.134146 2.196568 2.996276 0
M  V30 36 H 1.267435 1.426756 5.217123 0
M  V30 37 H -1.103101 0.636769 5.411863 0
M  V30 38 H -3.478117 0.223751 3.942071 0
M  V30 39 H -2.050857 1.506246 0.233986 0
M  V30 40 H 0.760312 -0.283733 0.876925 0
M  V30 41 H 1.875533 -1.997425 1.896716 0
M  V30 END ATOM
M  V30 BEGIN BOND
M  V30 1 1 1 2
M  V30 2 2 2 3
M  V30 3 1 3 4
M  V30 4 2 4 5
M  V30 5 1 5 6
M  V30 6 2 6 7
M  V30 7 1 7 8
M  V30 8 2 8 9
M  V30 9 1 9 10
M  V30 10 2 10 11
M  V30 11 1 11 12
M  V30 12 2 12 13
M  V30 13 1 13 14
M  V30 14 1 14 15
M  V30 15 2 15 16
M  V30 16 1 16 17
M  V30 17 2 17 18
M  V30 18 1 18 19
M  V30 19 1 19 20
M  V30 20 1 20 21
M  V30 21 2 21 22
M  V30 22 1 22 23
M  V30 23 1 13 24
M  V30 24 2 24 25
M  V30 25 1 5 26
M  V30 26 2 26 27
M  V30 27 1 27 28
M  V30 28 1 27 2
M  V30 29 1 25 6
M  V30 30 1 24 9
M  V30 31 1 23 15
M  V30 32 2 23 19
M  V30 33 1 3 29
M  V30 34 1 4 30
M  V30 35 1 7 31
M  V30 36 1 8 32
M  V30 37 1 11 33
M  V30 38 1 14 34
M  V30 39 1 16 35
M  V30 40 1 17 36
M  V30 41 1 18 37
M  V30 42 1 20 38
M  V30 43 1 22 39
M  V30 44 1 25 40
M  V30 45 1 26 41
M  V30 END BOND
M  V30 END CTAB
M  END
>  <Dataset>  (635) 
ChEMBL_Kinases

>  <Ligand_Instance>  (635) 
nan

>  <PDB_ID>  (635) 
nan

>  <Standardized_SMILES>  (635) 
Fc1ccc(-c2ccc3ncnc(Nc4cccc5[nH]ncc45)c3c2)cc1F

>  <Name>  (635) 
nan

>  <Pocket>  (635) 
nan

>  <ATP_Site>  (635) 
nan

>  <Peripheral>  (635) 
nan

>  <Num_H_Atoms_ProtBoundConf>  (635) 
nan

>  <Num_Resolved_Atoms>  (635) 
nan

>  <Num_Not_Resolved_Atoms>  (635) 
nan

$$$$
CHEMBL3661260
     RDKit          3D

  0  0  0  0  0  0  0  0  0  0999 V3000
M  V30 BEGIN CTAB
M  V30 COUNTS 45 49 0 0 0
M  V30 BEGIN ATOM
M  V30 1 C -1.463242 -3.633292 3.921354 0
M  V30 2 O -1.324839 -4.596304 2.921777 0
M  V30 3 C -0.547631 -4.499652 1.804449 0
M  V30 4 C 0.199977 -3.340157 1.600482 0
M  V30 5 C 0.991863 -3.231739 0.470881 0
M  V30 6 C 1.823532 -2.082281 0.127855 0
M  V30 7 C 2.997540 -2.292715 -0.587153 0
M  V30 8 C 3.837400 -1.252091 -0.949601 0
M  V30 9 C 3.515776 0.054057 -0.597426 0
M  V30 10 N 4.270818 1.130787 -0.898048 0
M  V30 11 C 3.918351 2.377010 -0.528042 0
M  V30 12 N 2.767848 2.540186 0.166930 0
M  V30 13 C 1.978292 1.487340 0.490749 0
M  V30 14 N 0.833705 1.893978 1.221054 0
M  V30 15 C -0.451577 2.484606 1.097862 0
M  V30 16 C -0.493672 3.652473 1.871985 0
M  V30 17 C -1.657408 4.394792 1.892583 0
M  V30 18 C -2.730121 3.955852 1.150197 0
M  V30 19 C -2.718081 2.817784 0.383777 0
M  V30 20 N -3.541696 2.119994 -0.432703 0
M  V30 21 N -2.920193 1.050944 -0.900874 0
M  V30 22 C -1.663552 0.994648 -0.416741 0
M  V30 23 C -1.553391 2.090533 0.373879 0
M  V30 24 C 2.345198 0.216489 0.109573 0
M  V30 25 C 1.494512 -0.791207 0.482739 0
M  V30 26 C 0.994792 -4.301053 -0.406006 0
M  V30 27 C 0.276057 -5.458848 -0.245321 0
M  V30 28 C -0.509787 -5.537950 0.898864 0
M  V30 29 F -1.264866 -6.650465 1.150030 0
M  V30 30 H -1.778557 -2.638051 3.562442 0
M  V30 31 H -2.244546 -3.955836 4.646811 0
M  V30 32 H -0.532438 -3.493740 4.494352 0
M  V30 33 H 0.213324 -2.495783 2.268709 0
M  V30 34 H 3.341442 -3.275325 -0.911447 0
M  V30 35 H 4.755452 -1.399565 -1.505375 0
M  V30 36 H 4.578868 3.188809 -0.808103 0
M  V30 37 H 1.168028 1.609282 2.172303 0
M  V30 38 H 0.288219 4.076758 2.484574 0
M  V30 39 H -1.793838 5.310741 2.456581 0
M  V30 40 H -3.648677 4.519652 1.151353 0
M  V30 41 H -4.518830 2.468655 -0.601952 0
M  V30 42 H -0.922711 0.240902 -0.623286 0
M  V30 43 H 0.602882 -0.590114 1.031016 0
M  V30 44 H 1.600937 -4.268874 -1.312677 0
M  V30 45 H 0.313672 -6.264237 -0.960258 0
M  V30 END ATOM
M  V30 BEGIN BOND
M  V30 1 1 1 2
M  V30 2 1 2 3
M  V30 3 2 3 4
M  V30 4 1 4 5
M  V30 5 1 5 6
M  V30 6 2 6 7
M  V30 7 1 7 8
M  V30 8 2 8 9
M  V30 9 1 9 10
M  V30 10 2 10 11
M  V30 11 1 11 12
M  V30 12 2 12 13
M  V30 13 1 13 14
M  V30 14 1 14 15
M  V30 15 2 15 16
M  V30 16 1 16 17
M  V30 17 2 17 18
M  V30 18 1 18 19
M  V30 19 1 19 20
M  V30 20 1 20 21
M  V30 21 2 21 22
M  V30 22 1 22 23
M  V30 23 1 13 24
M  V30 24 2 24 25
M  V30 25 2 5 26
M  V30 26 1 26 27
M  V30 27 2 27 28
M  V30 28 1 28 29
M  V30 29 1 28 3
M  V30 30 1 25 6
M  V30 31 1 24 9
M  V30 32 1 23 15
M  V30 33 2 23 19
M  V30 34 1 1 30
M  V30 35 1 1 31
M  V30 36 1 1 32
M  V30 37 1 4 33
M  V30 38 1 7 34
M  V30 39 1 8 35
M  V30 40 1 11 36
M  V30 41 1 14 37
M  V30 42 1 16 38
M  V30 43 1 17 39
M  V30 44 1 18 40
M  V30 45 1 20 41
M  V30 46 1 22 42
M  V30 47 1 25 43
M  V30 48 1 26 44
M  V30 49 1 27 45
M  V30 END BOND
M  V30 END CTAB
M  END
>  <Dataset>  (636) 
ChEMBL_Kinases

>  <Ligand_Instance>  (636) 
nan

>  <PDB_ID>  (636) 
nan

>  <Standardized_SMILES>  (636) 
COc1cc(-c2ccc3ncnc(Nc4cccc5[nH]ncc45)c3c2)ccc1F

>  <Name>  (636) 
nan

>  <Pocket>  (636) 
nan

>  <ATP_Site>  (636) 
nan

>  <Peripheral>  (636) 
nan

>  <Num_H_Atoms_ProtBoundConf>  (636) 
nan

>  <Num_Resolved_Atoms>  (636) 
nan

>  <Num_Not_Resolved_Atoms>  (636) 
nan

$$$$
CHEMBL3661259
     RDKit          3D

  0  0  0  0  0  0  0  0  0  0999 V3000
M  V30 BEGIN CTAB
M  V30 COUNTS 45 49 0 0 0
M  V30 BEGIN ATOM
M  V30 1 C -2.347514 -1.547688 3.747414 0
M  V30 2 O -2.381418 -2.893468 3.308244 0
M  V30 3 C -1.348698 -3.330680 2.492999 0
M  V30 4 C -0.277352 -2.578928 2.059721 0
M  V30 5 C 0.715922 -3.084993 1.246545 0
M  V30 6 C 1.786365 -2.144021 0.879571 0
M  V30 7 C 3.082654 -2.571231 0.651860 0
M  V30 8 C 4.098042 -1.679347 0.305110 0
M  V30 9 C 3.788471 -0.340363 0.189836 0
M  V30 10 N 4.759915 0.537887 -0.144335 0
M  V30 11 C 4.522600 1.871106 -0.273881 0
M  V30 12 N 3.260036 2.303132 -0.054316 0
M  V30 13 C 2.268558 1.452820 0.280387 0
M  V30 14 N 0.975875 1.979693 0.495755 0
M  V30 15 C -0.084247 2.207139 -0.389183 0
M  V30 16 C 0.037951 1.908127 -1.722362 0
M  V30 17 C -1.067869 2.167648 -2.533402 0
M  V30 18 C -2.232221 2.708406 -1.979245 0
M  V30 19 C -2.331433 3.004104 -0.618420 0
M  V30 20 N -3.296793 3.512427 0.158935 0
M  V30 21 N -2.849108 3.581645 1.405185 0
M  V30 22 N -1.602611 3.115997 1.406816 0
M  V30 23 C -1.231573 2.739594 0.154363 0
M  V30 24 C 2.494763 0.098930 0.415268 0
M  V30 25 C 1.503840 -0.797698 0.757190 0
M  V30 26 C 0.646890 -4.410763 0.837552 0
M  V30 27 C -0.413677 -5.166490 1.262420 0
M  V30 28 C -1.398724 -4.656564 2.071689 0
M  V30 29 O -2.384140 -5.569789 2.394530 0
M  V30 30 H -3.323523 -1.295548 4.233765 0
M  V30 31 H -2.142694 -0.910931 2.862026 0
M  V30 32 H -1.484860 -1.468914 4.450812 0
M  V30 33 H -0.261003 -1.566840 2.394773 0
M  V30 34 H 3.345698 -3.610293 0.736938 0
M  V30 35 H 5.108217 -2.039507 0.131683 0
M  V30 36 H 5.326278 2.542264 -0.542209 0
M  V30 37 H 0.965063 2.180878 1.516675 0
M  V30 38 H 0.931052 1.489942 -2.164169 0
M  V30 39 H -1.075374 1.966440 -3.610436 0
M  V30 40 H -3.067946 2.894618 -2.645955 0
M  V30 41 H -0.951324 3.030505 2.239156 0
M  V30 42 H 0.520509 -0.384124 0.917353 0
M  V30 43 H 1.450100 -4.755505 0.201865 0
M  V30 44 H -0.385548 -6.198728 0.891217 0
M  V30 45 H -2.820316 -5.663892 3.300406 0
M  V30 END ATOM
M  V30 BEGIN BOND
M  V30 1 1 1 2
M  V30 2 1 2 3
M  V30 3 2 3 4
M  V30 4 1 4 5
M  V30 5 1 5 6
M  V30 6 2 6 7
M  V30 7 1 7 8
M  V30 8 2 8 9
M  V30 9 1 9 10
M  V30 10 2 10 11
M  V30 11 1 11 12
M  V30 12 2 12 13
M  V30 13 1 13 14
M  V30 14 1 14 15
M  V30 15 2 15 16
M  V30 16 1 16 17
M  V30 17 2 17 18
M  V30 18 1 18 19
M  V30 19 1 19 20
M  V30 20 2 20 21
M  V30 21 1 21 22
M  V30 22 1 22 23
M  V30 23 1 13 24
M  V30 24 2 24 25
M  V30 25 2 5 26
M  V30 26 1 26 27
M  V30 27 2 27 28
M  V30 28 1 28 29
M  V30 29 1 28 3
M  V30 30 1 25 6
M  V30 31 1 24 9
M  V30 32 1 23 15
M  V30 33 2 23 19
M  V30 34 1 1 30
M  V30 35 1 1 31
M  V30 36 1 1 32
M  V30 37 1 4 33
M  V30 38 1 7 34
M  V30 39 1 8 35
M  V30 40 1 11 36
M  V30 41 1 14 37
M  V30 42 1 16 38
M  V30 43 1 17 39
M  V30 44 1 18 40
M  V30 45 1 22 41
M  V30 46 1 25 42
M  V30 47 1 26 43
M  V30 48 1 27 44
M  V30 49 1 29 45
M  V30 END BOND
M  V30 END CTAB
M  END
>  <Dataset>  (637) 
ChEMBL_Kinases

>  <Ligand_Instance>  (637) 
nan

>  <PDB_ID>  (637) 
nan

>  <Standardized_SMILES>  (637) 
COc1cc(-c2ccc3ncnc(Nc4cccc5nn[nH]c45)c3c2)ccc1O

>  <Name>  (637) 
nan

>  <Pocket>  (637) 
nan

>  <ATP_Site>  (637) 
nan

>  <Peripheral>  (637) 
nan

>  <Num_H_Atoms_ProtBoundConf>  (637) 
nan

>  <Num_Resolved_Atoms>  (637) 
nan

>  <Num_Not_Resolved_Atoms>  (637) 
nan

$$$$
CHEMBL3661241
     RDKit          3D

  0  0  0  0  0  0  0  0  0  0999 V3000
M  V30 BEGIN CTAB
M  V30 COUNTS 40 43 0 0 0
M  V30 BEGIN ATOM
M  V30 1 O 1.646442 -6.067440 2.976045 0
M  V30 2 C 1.760429 -4.806843 2.391324 0
M  V30 3 C 2.999058 -4.236472 2.186341 0
M  V30 4 C 3.217438 -2.989963 1.613343 0
M  V30 5 C 2.076253 -2.275868 1.221148 0
M  V30 6 C 2.239598 -0.979428 0.623273 0
M  V30 7 C 3.354174 -0.702252 -0.148048 0
M  V30 8 C 3.518759 0.547954 -0.721647 0
M  V30 9 C 2.519589 1.493101 -0.485887 0
M  V30 10 N 2.711513 2.715893 -1.060926 0
M  V30 11 C 1.777225 3.698807 -0.871328 0
M  V30 12 N 0.681744 3.469653 -0.129820 0
M  V30 13 C 0.457179 2.277474 0.452412 0
M  V30 14 N -0.635577 1.874837 1.268311 0
M  V30 15 C -1.839329 1.419811 0.662176 0
M  V30 16 C -2.051908 1.455917 -0.716027 0
M  V30 17 C -3.233077 1.008375 -1.277269 0
M  V30 18 C -4.218267 0.515653 -0.447634 0
M  V30 19 C -4.084718 0.443924 0.939961 0
M  V30 20 O -5.068479 -0.048592 1.781750 0
M  V30 21 C -2.882138 0.906814 1.431908 0
M  V30 22 C 1.390609 1.250080 0.280640 0
M  V30 23 C 1.275584 -0.012318 0.830958 0
M  V30 24 C 0.833155 -2.830898 1.419136 0
M  V30 25 C 0.636968 -4.076273 1.992913 0
M  V30 26 H 0.943413 -6.197088 3.687808 0
M  V30 27 H 3.894324 -4.771573 2.479591 0
M  V30 28 H 4.218567 -2.601018 1.479793 0
M  V30 29 H 4.123709 -1.478352 -0.312598 0
M  V30 30 H 4.380189 0.800885 -1.332137 0
M  V30 31 H 1.905421 4.678665 -1.315890 0
M  V30 32 H -0.590636 1.900357 2.295436 0
M  V30 33 H -1.264682 1.849974 -1.369402 0
M  V30 34 H -3.394039 1.046442 -2.361731 0
M  V30 35 H -5.139842 0.165964 -0.895507 0
M  V30 36 H -5.204727 -1.057728 1.894966 0
M  V30 37 H -2.765703 0.857557 2.508811 0
M  V30 38 H 0.410194 -0.210974 1.424829 0
M  V30 39 H -0.073412 -2.340452 1.145460 0
M  V30 40 H -0.321518 -4.543052 2.163344 0
M  V30 END ATOM
M  V30 BEGIN BOND
M  V30 1 1 1 2
M  V30 2 2 2 3
M  V30 3 1 3 4
M  V30 4 2 4 5
M  V30 5 1 5 6
M  V30 6 2 6 7
M  V30 7 1 7 8
M  V30 8 2 8 9
M  V30 9 1 9 10
M  V30 10 2 10 11
M  V30 11 1 11 12
M  V30 12 2 12 13
M  V30 13 1 13 14
M  V30 14 1 14 15
M  V30 15 2 15 16
M  V30 16 1 16 17
M  V30 17 2 17 18
M  V30 18 1 18 19
M  V30 19 1 19 20
M  V30 20 2 19 21
M  V30 21 1 13 22
M  V30 22 2 22 23
M  V30 23 1 5 24
M  V30 24 2 24 25
M  V30 25 1 25 2
M  V30 26 1 23 6
M  V30 27 1 22 9
M  V30 28 1 21 15
M  V30 29 1 1 26
M  V30 30 1 3 27
M  V30 31 1 4 28
M  V30 32 1 7 29
M  V30 33 1 8 30
M  V30 34 1 11 31
M  V30 35 1 14 32
M  V30 36 1 16 33
M  V30 37 1 17 34
M  V30 38 1 18 35
M  V30 39 1 20 36
M  V30 40 1 21 37
M  V30 41 1 23 38
M  V30 42 1 24 39
M  V30 43 1 25 40
M  V30 END BOND
M  V30 END CTAB
M  END
>  <Dataset>  (638) 
ChEMBL_Kinases

>  <Ligand_Instance>  (638) 
nan

>  <PDB_ID>  (638) 
nan

>  <Standardized_SMILES>  (638) 
Oc1ccc(-c2ccc3ncnc(Nc4cccc(O)c4)c3c2)cc1

>  <Name>  (638) 
nan

>  <Pocket>  (638) 
nan

>  <ATP_Site>  (638) 
nan

>  <Peripheral>  (638) 
nan

>  <Num_H_Atoms_ProtBoundConf>  (638) 
nan

>  <Num_Resolved_Atoms>  (638) 
nan

>  <Num_Not_Resolved_Atoms>  (638) 
nan

$$$$
CHEMBL3661242
     RDKit          3D

  0  0  0  0  0  0  0  0  0  0999 V3000
M  V30 BEGIN CTAB
M  V30 COUNTS 40 43 0 0 0
M  V30 BEGIN ATOM
M  V30 1 O -0.727891 -4.263672 -0.014364 0
M  V30 2 C 0.504093 -3.712841 0.310199 0
M  V30 3 C 1.223921 -4.302914 1.320531 0
M  V30 4 C 2.460691 -3.737796 1.634858 0
M  V30 5 C 2.912185 -2.646628 0.955507 0
M  V30 6 C 2.205502 -2.048886 -0.050332 0
M  V30 7 N 2.711785 -0.879329 -0.716884 0
M  V30 8 C 2.014542 -0.186636 -1.764495 0
M  V30 9 N 2.274393 -0.156979 -3.080781 0
M  V30 10 C 1.466237 0.554553 -3.887546 0
M  V30 11 N 0.405278 1.240097 -3.431750 0
M  V30 12 C 0.122587 1.227325 -2.122619 0
M  V30 13 C -0.990327 1.930520 -1.657233 0
M  V30 14 C -1.328250 1.934824 -0.314809 0
M  V30 15 C -0.539978 1.225716 0.566762 0
M  V30 16 C -0.746118 1.082292 2.022073 0
M  V30 17 C 0.304928 0.931182 2.923310 0
M  V30 18 C -0.013006 0.784368 4.281626 0
M  V30 19 C -1.344688 0.803323 4.602473 0
M  V30 20 C -2.397844 0.952115 3.726360 0
M  V30 21 O -3.697661 0.945465 4.257276 0
M  V30 22 C -2.075774 1.095158 2.397555 0
M  V30 23 C 0.553471 0.537010 0.105115 0
M  V30 24 C 0.919847 0.508662 -1.220877 0
M  V30 25 C 0.979878 -2.614018 -0.359931 0
M  V30 26 H -1.604073 -3.869478 0.358887 0
M  V30 27 H 0.931230 -5.163979 1.897182 0
M  V30 28 H 3.120494 -4.135896 2.424085 0
M  V30 29 H 3.885099 -2.202914 1.202905 0
M  V30 30 H 3.638057 -0.517421 -0.424392 0
M  V30 31 H 1.763165 0.510865 -4.940750 0
M  V30 32 H -1.639941 2.503681 -2.313806 0
M  V30 33 H -2.164930 2.448295 0.137223 0
M  V30 34 H 1.322293 0.929901 2.567459 0
M  V30 35 H 0.834142 0.671599 4.919909 0
M  V30 36 H -1.550625 0.686192 5.674635 0
M  V30 37 H -4.207671 0.076783 4.383942 0
M  V30 38 H -2.884364 1.212469 1.695467 0
M  V30 39 H 1.183665 -0.007455 0.779471 0
M  V30 40 H 0.379138 -2.193997 -1.138412 0
M  V30 END ATOM
M  V30 BEGIN BOND
M  V30 1 1 1 2
M  V30 2 2 2 3
M  V30 3 1 3 4
M  V30 4 2 4 5
M  V30 5 1 5 6
M  V30 6 1 6 7
M  V30 7 1 7 8
M  V30 8 2 8 9
M  V30 9 1 9 10
M  V30 10 2 10 11
M  V30 11 1 11 12
M  V30 12 2 12 13
M  V30 13 1 13 14
M  V30 14 2 14 15
M  V30 15 1 15 16
M  V30 16 2 16 17
M  V30 17 1 17 18
M  V30 18 2 18 19
M  V30 19 1 19 20
M  V30 20 1 20 21
M  V30 21 2 20 22
M  V30 22 1 15 23
M  V30 23 2 23 24
M  V30 24 2 6 25
M  V30 25 1 25 2
M  V30 26 1 24 8
M  V30 27 1 24 12
M  V30 28 1 22 16
M  V30 29 1 1 26
M  V30 30 1 3 27
M  V30 31 1 4 28
M  V30 32 1 5 29
M  V30 33 1 7 30
M  V30 34 1 10 31
M  V30 35 1 13 32
M  V30 36 1 14 33
M  V30 37 1 17 34
M  V30 38 1 18 35
M  V30 39 1 19 36
M  V30 40 1 21 37
M  V30 41 1 22 38
M  V30 42 1 23 39
M  V30 43 1 25 40
M  V30 END BOND
M  V30 END CTAB
M  END
>  <Dataset>  (639) 
ChEMBL_Kinases

>  <Ligand_Instance>  (639) 
nan

>  <PDB_ID>  (639) 
nan

>  <Standardized_SMILES>  (639) 
Oc1cccc(Nc2ncnc3ccc(-c4cccc(O)c4)cc23)c1

>  <Name>  (639) 
nan

>  <Pocket>  (639) 
nan

>  <ATP_Site>  (639) 
nan

>  <Peripheral>  (639) 
nan

>  <Num_H_Atoms_ProtBoundConf>  (639) 
nan

>  <Num_Resolved_Atoms>  (639) 
nan

>  <Num_Not_Resolved_Atoms>  (639) 
nan

$$$$
CHEMBL3661243
     RDKit          3D

  0  0  0  0  0  0  0  0  0  0999 V3000
M  V30 BEGIN CTAB
M  V30 COUNTS 43 46 0 0 0
M  V30 BEGIN ATOM
M  V30 1 C 1.074202 -5.891961 3.181764 0
M  V30 2 O 0.105019 -5.742783 2.159271 0
M  V30 3 C 0.118251 -4.604479 1.324484 0
M  V30 4 C 1.104026 -3.672432 1.556420 0
M  V30 5 C 1.159249 -2.529716 0.754100 0
M  V30 6 C 0.217418 -2.379001 -0.246869 0
M  V30 7 C 0.362017 -1.156456 -1.035042 0
M  V30 8 C 0.022634 -1.033657 -2.369424 0
M  V30 9 C 0.209038 0.189021 -3.027219 0
M  V30 10 C 0.729274 1.285717 -2.369023 0
M  V30 11 N 0.904775 2.453790 -3.009612 0
M  V30 12 C 1.419059 3.526840 -2.342696 0
M  V30 13 N 1.765419 3.459800 -1.041199 0
M  V30 14 C 1.611564 2.312514 -0.349872 0
M  V30 15 N 1.894236 2.001019 1.007420 0
M  V30 16 C 0.822000 1.954650 1.950051 0
M  V30 17 C 1.067383 1.412692 3.203236 0
M  V30 18 C 0.148747 1.278496 4.249448 0
M  V30 19 C -1.123415 1.759975 3.927860 0
M  V30 20 C -1.419160 2.308796 2.695515 0
M  V30 21 O -2.712129 2.776189 2.426833 0
M  V30 22 C -0.460369 2.403541 1.725754 0
M  V30 23 C 1.081561 1.213216 -1.043158 0
M  V30 24 C 0.879435 -0.004297 -0.443075 0
M  V30 25 C -0.759339 -3.335468 -0.451383 0
M  V30 26 C -0.837776 -4.483874 0.334038 0
M  V30 27 H 2.096538 -6.016690 2.769339 0
M  V30 28 H 0.810975 -6.804075 3.754482 0
M  V30 29 H 1.104782 -5.071185 3.899036 0
M  V30 30 H 1.812841 -3.851352 2.361556 0
M  V30 31 H 1.984466 -1.876218 1.038311 0
M  V30 32 H -0.386816 -1.900880 -2.870273 0
M  V30 33 H -0.064215 0.249551 -4.061838 0
M  V30 34 H 1.587219 4.500770 -2.814340 0
M  V30 35 H 2.857236 1.813742 1.296016 0
M  V30 36 H 2.067098 1.049120 3.404623 0
M  V30 37 H 0.442555 0.844182 5.175216 0
M  V30 38 H -1.851973 1.666783 4.721837 0
M  V30 39 H -3.262240 3.159168 3.209569 0
M  V30 40 H -0.657752 2.834439 0.741606 0
M  V30 41 H 1.134614 -0.112949 0.604001 0
M  V30 42 H -1.467509 -3.156392 -1.254662 0
M  V30 43 H -1.615973 -5.209528 0.146688 0
M  V30 END ATOM
M  V30 BEGIN BOND
M  V30 1 1 1 2
M  V30 2 1 2 3
M  V30 3 2 3 4
M  V30 4 1 4 5
M  V30 5 2 5 6
M  V30 6 1 6 7
M  V30 7 2 7 8
M  V30 8 1 8 9
M  V30 9 2 9 10
M  V30 10 1 10 11
M  V30 11 2 11 12
M  V30 12 1 12 13
M  V30 13 2 13 14
M  V30 14 1 14 15
M  V30 15 1 15 16
M  V30 16 2 16 17
M  V30 17 1 17 18
M  V30 18 2 18 19
M  V30 19 1 19 20
M  V30 20 1 20 21
M  V30 21 2 20 22
M  V30 22 1 14 23
M  V30 23 2 23 24
M  V30 24 1 6 25
M  V30 25 2 25 26
M  V30 26 1 26 3
M  V30 27 1 24 7
M  V30 28 1 23 10
M  V30 29 1 22 16
M  V30 30 1 1 27
M  V30 31 1 1 28
M  V30 32 1 1 29
M  V30 33 1 4 30
M  V30 34 1 5 31
M  V30 35 1 8 32
M  V30 36 1 9 33
M  V30 37 1 12 34
M  V30 38 1 15 35
M  V30 39 1 17 36
M  V30 40 1 18 37
M  V30 41 1 19 38
M  V30 42 1 21 39
M  V30 43 1 22 40
M  V30 44 1 24 41
M  V30 45 1 25 42
M  V30 46 1 26 43
M  V30 END BOND
M  V30 END CTAB
M  END
>  <Dataset>  (640) 
ChEMBL_Kinases

>  <Ligand_Instance>  (640) 
nan

>  <PDB_ID>  (640) 
nan

>  <Standardized_SMILES>  (640) 
COc1ccc(-c2ccc3ncnc(Nc4cccc(O)c4)c3c2)cc1

>  <Name>  (640) 
nan

>  <Pocket>  (640) 
nan

>  <ATP_Site>  (640) 
nan

>  <Peripheral>  (640) 
nan

>  <Num_H_Atoms_ProtBoundConf>  (640) 
nan

>  <Num_Resolved_Atoms>  (640) 
nan

>  <Num_Not_Resolved_Atoms>  (640) 
nan

$$$$
CHEMBL3661244
     RDKit          3D

  0  0  0  0  0  0  0  0  0  0999 V3000
M  V30 BEGIN CTAB
M  V30 COUNTS 45 49 0 0 0
M  V30 BEGIN ATOM
M  V30 1 C -1.629522 -2.020063 3.955132 0
M  V30 2 O -1.983473 -3.003558 3.014072 0
M  V30 3 C -1.219086 -3.139277 1.867296 0
M  V30 4 C -0.110552 -2.445974 1.471346 0
M  V30 5 C 0.510779 -2.744167 0.264114 0
M  V30 6 C 1.695380 -1.962840 -0.100720 0
M  V30 7 C 2.749063 -2.414279 -0.862635 0
M  V30 8 C 3.835727 -1.608817 -1.154120 0
M  V30 9 C 3.816561 -0.331195 -0.647079 0
M  V30 10 N 4.870012 0.507885 -0.914858 0
M  V30 11 C 4.860756 1.777799 -0.425308 0
M  V30 12 N 3.855839 2.285665 0.329900 0
M  V30 13 C 2.774992 1.517345 0.642379 0
M  V30 14 N 1.672576 1.926893 1.430057 0
M  V30 15 C 0.294545 2.124781 1.237433 0
M  V30 16 C -0.447152 2.396968 2.364607 0
M  V30 17 C -1.787498 2.587872 2.331476 0
M  V30 18 C -2.455130 2.508376 1.106544 0
M  V30 19 N -3.726878 2.627793 0.678389 0
M  V30 20 N -3.751936 2.440873 -0.626356 0
M  V30 21 N -2.537385 2.197155 -1.103921 0
M  V30 22 C -1.737474 2.241420 -0.021722 0
M  V30 23 C -0.378492 2.053255 0.047206 0
M  V30 24 C 2.827143 0.239183 0.124921 0
M  V30 25 C 1.772971 -0.649888 0.366325 0
M  V30 26 C -0.032439 -3.749647 -0.496213 0
M  V30 27 C -1.149208 -4.480954 -0.142340 0
M  V30 28 C -1.744077 -4.157254 1.067022 0
M  V30 29 O -2.866672 -4.955975 1.331479 0
M  V30 30 H -1.188430 -1.121042 3.498634 0
M  V30 31 H -2.506402 -1.717750 4.585136 0
M  V30 32 H -0.849142 -2.505080 4.613141 0
M  V30 33 H 0.195076 -1.698815 2.167507 0
M  V30 34 H 2.678430 -3.425056 -1.216139 0
M  V30 35 H 4.661477 -1.955814 -1.748458 0
M  V30 36 H 5.742485 2.326902 -0.710176 0
M  V30 37 H 2.150318 2.095333 2.355919 0
M  V30 38 H 0.016529 2.474098 3.350336 0
M  V30 39 H -2.386118 2.800649 3.200519 0
M  V30 40 H -2.218405 2.005139 -2.068081 0
M  V30 41 H 0.216561 1.836894 -0.836564 0
M  V30 42 H 0.961316 -0.290332 0.961093 0
M  V30 43 H 0.493157 -3.934302 -1.424171 0
M  V30 44 H -1.440244 -5.235392 -0.859090 0
M  V30 45 H -3.677146 -4.797810 0.716117 0
M  V30 END ATOM
M  V30 BEGIN BOND
M  V30 1 1 1 2
M  V30 2 1 2 3
M  V30 3 2 3 4
M  V30 4 1 4 5
M  V30 5 1 5 6
M  V30 6 2 6 7
M  V30 7 1 7 8
M  V30 8 2 8 9
M  V30 9 1 9 10
M  V30 10 2 10 11
M  V30 11 1 11 12
M  V30 12 2 12 13
M  V30 13 1 13 14
M  V30 14 1 14 15
M  V30 15 2 15 16
M  V30 16 1 16 17
M  V30 17 2 17 18
M  V30 18 1 18 19
M  V30 19 2 19 20
M  V30 20 1 20 21
M  V30 21 1 21 22
M  V30 22 2 22 23
M  V30 23 1 13 24
M  V30 24 2 24 25
M  V30 25 2 5 26
M  V30 26 1 26 27
M  V30 27 2 27 28
M  V30 28 1 28 29
M  V30 29 1 28 3
M  V30 30 1 25 6
M  V30 31 1 24 9
M  V30 32 1 23 15
M  V30 33 1 22 18
M  V30 34 1 1 30
M  V30 35 1 1 31
M  V30 36 1 1 32
M  V30 37 1 4 33
M  V30 38 1 7 34
M  V30 39 1 8 35
M  V30 40 1 11 36
M  V30 41 1 14 37
M  V30 42 1 16 38
M  V30 43 1 17 39
M  V30 44 1 21 40
M  V30 45 1 23 41
M  V30 46 1 25 42
M  V30 47 1 26 43
M  V30 48 1 27 44
M  V30 49 1 29 45
M  V30 END BOND
M  V30 END CTAB
M  END
>  <Dataset>  (641) 
ChEMBL_Kinases

>  <Ligand_Instance>  (641) 
nan

>  <PDB_ID>  (641) 
nan

>  <Standardized_SMILES>  (641) 
COc1cc(-c2ccc3ncnc(Nc4ccc5nn[nH]c5c4)c3c2)ccc1O

>  <Name>  (641) 
nan

>  <Pocket>  (641) 
nan

>  <ATP_Site>  (641) 
nan

>  <Peripheral>  (641) 
nan

>  <Num_H_Atoms_ProtBoundConf>  (641) 
nan

>  <Num_Resolved_Atoms>  (641) 
nan

>  <Num_Not_Resolved_Atoms>  (641) 
nan

$$$$
CHEMBL3661245
     RDKit          3D

  0  0  0  0  0  0  0  0  0  0999 V3000
M  V30 BEGIN CTAB
M  V30 COUNTS 43 46 0 0 0
M  V30 BEGIN ATOM
M  V30 1 C -1.851141 -6.756470 0.489178 0
M  V30 2 O -1.816865 -5.511017 -0.177997 0
M  V30 3 C -0.807223 -4.603225 0.104633 0
M  V30 4 C 0.111182 -4.998388 1.041721 0
M  V30 5 C 1.148036 -4.131418 1.368462 0
M  V30 6 C 1.174466 -2.899855 0.703120 0
M  V30 7 C 0.251483 -2.497698 -0.241659 0
M  V30 8 C 0.432621 -1.177412 -0.834118 0
M  V30 9 C 0.026484 -0.948997 -2.139085 0
M  V30 10 C 0.185631 0.304079 -2.742885 0
M  V30 11 C 0.765729 1.282370 -1.962538 0
M  V30 12 N 0.912568 2.481243 -2.570176 0
M  V30 13 C 1.475771 3.495890 -1.880600 0
M  V30 14 N 1.902185 3.378094 -0.612073 0
M  V30 15 C 1.764503 2.177291 0.022647 0
M  V30 16 N 2.159867 1.850010 1.349515 0
M  V30 17 C 1.409880 2.124065 2.525887 0
M  V30 18 C 1.846244 1.633238 3.734490 0
M  V30 19 C 1.178889 1.867304 4.932673 0
M  V30 20 C 0.034967 2.641704 4.783579 0
M  V30 21 C -0.458506 3.160930 3.627261 0
M  V30 22 O -1.636838 3.930274 3.640496 0
M  V30 23 C 0.250461 2.891303 2.480098 0
M  V30 24 C 1.190517 1.125663 -0.665104 0
M  V30 25 C 1.005709 -0.145411 -0.116989 0
M  V30 26 C -0.754936 -3.387957 -0.531520 0
M  V30 27 H -1.004148 -7.404863 0.211620 0
M  V30 28 H -2.785377 -7.301881 0.259657 0
M  V30 29 H -1.780856 -6.588885 1.582999 0
M  V30 30 H 0.147606 -5.930161 1.588945 0
M  V30 31 H 1.935639 -4.348166 2.102703 0
M  V30 32 H 1.993309 -2.231670 0.969500 0
M  V30 33 H -0.435417 -1.723581 -2.766486 0
M  V30 34 H -0.129213 0.501613 -3.771816 0
M  V30 35 H 1.614818 4.474494 -2.325936 0
M  V30 36 H 3.077397 1.372316 1.410767 0
M  V30 37 H 2.745225 1.038946 3.761188 0
M  V30 38 H 1.526028 1.480883 5.879058 0
M  V30 39 H -0.513204 2.847568 5.699171 0
M  V30 40 H -2.054183 4.224611 2.774318 0
M  V30 41 H -0.123220 3.294676 1.541422 0
M  V30 42 H 1.334705 -0.287425 0.907449 0
M  V30 43 H -1.475827 -3.083468 -1.264785 0
M  V30 END ATOM
M  V30 BEGIN BOND
M  V30 1 1 1 2
M  V30 2 1 2 3
M  V30 3 2 3 4
M  V30 4 1 4 5
M  V30 5 2 5 6
M  V30 6 1 6 7
M  V30 7 1 7 8
M  V30 8 2 8 9
M  V30 9 1 9 10
M  V30 10 2 10 11
M  V30 11 1 11 12
M  V30 12 2 12 13
M  V30 13 1 13 14
M  V30 14 2 14 15
M  V30 15 1 15 16
M  V30 16 1 16 17
M  V30 17 2 17 18
M  V30 18 1 18 19
M  V30 19 2 19 20
M  V30 20 1 20 21
M  V30 21 1 21 22
M  V30 22 2 21 23
M  V30 23 1 15 24
M  V30 24 2 24 25
M  V30 25 2 7 26
M  V30 26 1 26 3
M  V30 27 1 25 8
M  V30 28 1 24 11
M  V30 29 1 23 17
M  V30 30 1 1 27
M  V30 31 1 1 28
M  V30 32 1 1 29
M  V30 33 1 4 30
M  V30 34 1 5 31
M  V30 35 1 6 32
M  V30 36 1 9 33
M  V30 37 1 10 34
M  V30 38 1 13 35
M  V30 39 1 16 36
M  V30 40 1 18 37
M  V30 41 1 19 38
M  V30 42 1 20 39
M  V30 43 1 22 40
M  V30 44 1 23 41
M  V30 45 1 25 42
M  V30 46 1 26 43
M  V30 END BOND
M  V30 END CTAB
M  END
>  <Dataset>  (642) 
ChEMBL_Kinases

>  <Ligand_Instance>  (642) 
nan

>  <PDB_ID>  (642) 
nan

>  <Standardized_SMILES>  (642) 
COc1cccc(-c2ccc3ncnc(Nc4cccc(O)c4)c3c2)c1

>  <Name>  (642) 
nan

>  <Pocket>  (642) 
nan

>  <ATP_Site>  (642) 
nan

>  <Peripheral>  (642) 
nan

>  <Num_H_Atoms_ProtBoundConf>  (642) 
nan

>  <Num_Resolved_Atoms>  (642) 
nan

>  <Num_Not_Resolved_Atoms>  (642) 
nan

$$$$
CHEMBL3661246
     RDKit          3D

  0  0  0  0  0  0  0  0  0  0999 V3000
M  V30 BEGIN CTAB
M  V30 COUNTS 45 48 0 0 0
M  V30 BEGIN ATOM
M  V30 1 C -0.040886 -5.252260 2.501925 0
M  V30 2 O -0.543027 -4.246472 1.649154 0
M  V30 3 C 0.219163 -3.122833 1.419927 0
M  V30 4 C 1.464607 -2.965334 2.010099 0
M  V30 5 C 2.226651 -1.838265 1.779084 0
M  V30 6 N 3.447802 -1.668357 2.351312 0
M  V30 7 C 4.164226 -0.538032 2.096345 0
M  V30 8 N 3.693227 0.437079 1.278976 0
M  V30 9 C 2.472909 0.306714 0.684110 0
M  V30 10 N 2.093324 1.385212 -0.139122 0
M  V30 11 C 2.079382 2.751472 0.306548 0
M  V30 12 C 1.745222 3.811024 -0.544148 0
M  V30 13 C 1.745016 5.118282 -0.052531 0
M  V30 14 C 2.073919 5.368303 1.271130 0
M  V30 15 C 2.406140 4.354031 2.131242 0
M  V30 16 O 2.731434 4.630306 3.448889 0
M  V30 17 C 2.395373 3.058282 1.602926 0
M  V30 18 C 1.758117 -0.840211 0.949747 0
M  V30 19 C 0.528172 -0.940931 0.335431 0
M  V30 20 C -0.210145 -2.082544 0.588005 0
M  V30 21 C -1.526277 -2.184242 -0.068464 0
M  V30 22 C -1.816528 -1.903916 -1.390047 0
M  V30 23 C -3.116892 -2.054295 -1.838710 0
M  V30 24 C -4.105603 -2.479503 -0.971195 0
M  V30 25 N -5.460717 -2.638835 -1.431749 0
M  V30 26 C -3.829016 -2.763872 0.355267 0
M  V30 27 C -2.525483 -2.606988 0.782433 0
M  V30 28 H 0.814140 -5.783856 2.052739 0
M  V30 29 H -0.853028 -5.970813 2.778523 0
M  V30 30 H 0.314165 -4.841419 3.483835 0
M  V30 31 H 1.831172 -3.734959 2.652449 0
M  V30 32 H 5.154227 -0.376415 2.547451 0
M  V30 33 H 1.806407 1.217861 -1.116154 0
M  V30 34 H 1.491477 3.602072 -1.571761 0
M  V30 35 H 1.489076 5.938482 -0.701296 0
M  V30 36 H 2.064837 6.382883 1.620500 0
M  V30 37 H 3.052372 3.916232 4.086439 0
M  V30 38 H 2.668762 2.300610 2.341132 0
M  V30 39 H 0.153099 -0.165032 -0.315709 0
M  V30 40 H -0.976415 -1.578482 -1.988266 0
M  V30 41 H -3.325069 -1.829739 -2.875333 0
M  V30 42 H -5.644216 -3.658272 -1.575961 0
M  V30 43 H -6.226050 -1.942653 -1.626510 0
M  V30 44 H -4.655478 -3.095195 0.988655 0
M  V30 45 H -2.400754 -2.848125 1.832825 0
M  V30 END ATOM
M  V30 BEGIN BOND
M  V30 1 1 1 2
M  V30 2 1 2 3
M  V30 3 2 3 4
M  V30 4 1 4 5
M  V30 5 2 5 6
M  V30 6 1 6 7
M  V30 7 2 7 8
M  V30 8 1 8 9
M  V30 9 1 9 10
M  V30 10 1 10 11
M  V30 11 2 11 12
M  V30 12 1 12 13
M  V30 13 2 13 14
M  V30 14 1 14 15
M  V30 15 1 15 16
M  V30 16 2 15 17
M  V30 17 2 9 18
M  V30 18 1 18 19
M  V30 19 2 19 20
M  V30 20 1 20 21
M  V30 21 2 21 22
M  V30 22 1 22 23
M  V30 23 2 23 24
M  V30 24 1 24 25
M  V30 25 1 24 26
M  V30 26 2 26 27
M  V30 27 1 20 3
M  V30 28 1 27 21
M  V30 29 1 18 5
M  V30 30 1 17 11
M  V30 31 1 1 28
M  V30 32 1 1 29
M  V30 33 1 1 30
M  V30 34 1 4 31
M  V30 35 1 7 32
M  V30 36 1 10 33
M  V30 37 1 12 34
M  V30 38 1 13 35
M  V30 39 1 14 36
M  V30 40 1 16 37
M  V30 41 1 17 38
M  V30 42 1 19 39
M  V30 43 1 22 40
M  V30 44 1 23 41
M  V30 45 1 25 42
M  V30 46 1 25 43
M  V30 47 1 26 44
M  V30 48 1 27 45
M  V30 END BOND
M  V30 END CTAB
M  END
>  <Dataset>  (643) 
ChEMBL_Kinases

>  <Ligand_Instance>  (643) 
nan

>  <PDB_ID>  (643) 
nan

>  <Standardized_SMILES>  (643) 
COc1cc2ncnc(Nc3cccc(O)c3)c2cc1-c1ccc(N)cc1

>  <Name>  (643) 
nan

>  <Pocket>  (643) 
nan

>  <ATP_Site>  (643) 
nan

>  <Peripheral>  (643) 
nan

>  <Num_H_Atoms_ProtBoundConf>  (643) 
nan

>  <Num_Resolved_Atoms>  (643) 
nan

>  <Num_Not_Resolved_Atoms>  (643) 
nan

$$$$
CHEMBL3661247
     RDKit          3D

  0  0  0  0  0  0  0  0  0  0999 V3000
M  V30 BEGIN CTAB
M  V30 COUNTS 43 47 0 0 0
M  V30 BEGIN ATOM
M  V30 1 N -0.319511 -5.997785 1.973741 0
M  V30 2 C -0.060760 -4.828408 1.187359 0
M  V30 3 C -0.547517 -4.734942 -0.099021 0
M  V30 4 C -0.291058 -3.600751 -0.848847 0
M  V30 5 C 0.455102 -2.601361 -0.257033 0
M  V30 6 C 0.806076 -1.360016 -0.906817 0
M  V30 7 C 0.978778 -1.469906 -2.269868 0
M  V30 8 C 1.320866 -0.327101 -2.995942 0
M  V30 9 C 1.465104 0.847332 -2.295814 0
M  V30 10 N 1.805744 1.953586 -2.957672 0
M  V30 11 C 1.966889 3.107659 -2.313212 0
M  V30 12 N 1.801089 3.229811 -0.992456 0
M  V30 13 C 1.456069 2.152069 -0.261955 0
M  V30 14 N 1.298199 2.337616 1.121523 0
M  V30 15 C 0.826380 1.799531 2.324158 0
M  V30 16 C 1.566069 1.442757 3.455774 0
M  V30 17 C 0.903786 0.952885 4.561585 0
M  V30 18 C -0.468470 0.814698 4.560262 0
M  V30 19 C -1.245634 1.147055 3.484914 0
M  V30 20 N -2.555396 1.098112 3.266052 0
M  V30 21 N -2.754466 1.554385 2.019313 0
M  V30 22 C -1.595643 1.883376 1.465367 0
M  V30 23 C -0.565770 1.639522 2.375847 0
M  V30 24 C 1.296343 0.974917 -0.939895 0
M  V30 25 C 0.962263 -0.158018 -0.252761 0
M  V30 26 C 0.953435 -2.682452 1.041666 0
M  V30 27 C 0.696424 -3.825285 1.801351 0
M  V30 28 H 0.596863 -6.436957 2.222361 0
M  V30 29 H -1.147385 -6.536479 2.368816 0
M  V30 30 H -1.132544 -5.515115 -0.562698 0
M  V30 31 H -0.633390 -3.451935 -1.856153 0
M  V30 32 H 0.875199 -2.373316 -2.868158 0
M  V30 33 H 1.466161 -0.359931 -4.047510 0
M  V30 34 H 2.243632 3.965546 -2.908356 0
M  V30 35 H 1.656821 3.247754 1.543067 0
M  V30 36 H 2.634210 1.590763 3.343814 0
M  V30 37 H 1.533723 0.687846 5.424368 0
M  V30 38 H -0.943794 0.430505 5.439897 0
M  V30 39 H -3.287819 0.765498 3.944659 0
M  V30 40 H -1.457886 2.283775 0.454395 0
M  V30 41 H 0.829493 -0.147519 0.804406 0
M  V30 42 H 1.531833 -1.940581 1.539374 0
M  V30 43 H 1.055456 -3.938522 2.798887 0
M  V30 END ATOM
M  V30 BEGIN BOND
M  V30 1 1 1 2
M  V30 2 2 2 3
M  V30 3 1 3 4
M  V30 4 2 4 5
M  V30 5 1 5 6
M  V30 6 2 6 7
M  V30 7 1 7 8
M  V30 8 2 8 9
M  V30 9 1 9 10
M  V30 10 2 10 11
M  V30 11 1 11 12
M  V30 12 2 12 13
M  V30 13 1 13 14
M  V30 14 1 14 15
M  V30 15 2 15 16
M  V30 16 1 16 17
M  V30 17 2 17 18
M  V30 18 1 18 19
M  V30 19 1 19 20
M  V30 20 1 20 21
M  V30 21 2 21 22
M  V30 22 1 22 23
M  V30 23 1 13 24
M  V30 24 2 24 25
M  V30 25 1 5 26
M  V30 26 2 26 27
M  V30 27 1 27 2
M  V30 28 1 25 6
M  V30 29 1 24 9
M  V30 30 1 23 15
M  V30 31 2 23 19
M  V30 32 1 1 28
M  V30 33 1 1 29
M  V30 34 1 3 30
M  V30 35 1 4 31
M  V30 36 1 7 32
M  V30 37 1 8 33
M  V30 38 1 11 34
M  V30 39 1 14 35
M  V30 40 1 16 36
M  V30 41 1 17 37
M  V30 42 1 18 38
M  V30 43 1 20 39
M  V30 44 1 22 40
M  V30 45 1 25 41
M  V30 46 1 26 42
M  V30 47 1 27 43
M  V30 END BOND
M  V30 END CTAB
M  END
>  <Dataset>  (644) 
ChEMBL_Kinases

>  <Ligand_Instance>  (644) 
nan

>  <PDB_ID>  (644) 
nan

>  <Standardized_SMILES>  (644) 
Nc1ccc(-c2ccc3ncnc(Nc4cccc5[nH]ncc45)c3c2)cc1

>  <Name>  (644) 
nan

>  <Pocket>  (644) 
nan

>  <ATP_Site>  (644) 
nan

>  <Peripheral>  (644) 
nan

>  <Num_H_Atoms_ProtBoundConf>  (644) 
nan

>  <Num_Resolved_Atoms>  (644) 
nan

>  <Num_Not_Resolved_Atoms>  (644) 
nan

$$$$
CHEMBL3661248
     RDKit          3D

  0  0  0  0  0  0  0  0  0  0999 V3000
M  V30 BEGIN CTAB
M  V30 COUNTS 48 52 0 0 0
M  V30 BEGIN ATOM
M  V30 1 C 0.917218 -6.119544 4.783642 0
M  V30 2 C 1.077226 -4.916875 3.881445 0
M  V30 3 O 0.232936 -3.972117 3.943599 0
M  V30 4 N 2.178374 -4.863936 2.971391 0
M  V30 5 C 2.060942 -3.619497 2.265123 0
M  V30 6 C 2.725649 -2.586662 2.903859 0
M  V30 7 C 2.676788 -1.337851 2.318238 0
M  V30 8 C 2.005220 -1.042335 1.129381 0
M  V30 9 C 2.025375 0.320617 0.628492 0
M  V30 10 C 3.107575 1.156400 0.838887 0
M  V30 11 C 3.196725 2.465224 0.406599 0
M  V30 12 C 2.110893 2.956261 -0.286101 0
M  V30 13 N 2.082842 4.210443 -0.739145 0
M  V30 14 C 1.031111 4.755831 -1.422385 0
M  V30 15 N -0.033609 3.970509 -1.644894 0
M  V30 16 C -0.122453 2.696384 -1.240439 0
M  V30 17 N -1.203234 1.803113 -1.431274 0
M  V30 18 C -2.335499 1.283985 -0.764367 0
M  V30 19 C -2.710574 1.609134 0.500228 0
M  V30 20 C -3.816418 1.103304 1.194123 0
M  V30 21 C -4.522325 0.186607 0.409717 0
M  V30 22 C -4.167568 -0.162378 -0.872045 0
M  V30 23 N -4.766044 -1.024419 -1.716364 0
M  V30 24 N -4.074595 -1.042757 -2.844856 0
M  V30 25 C -3.021834 -0.193112 -2.742940 0
M  V30 26 C -3.075304 0.371272 -1.488384 0
M  V30 27 C 0.976941 2.217964 -0.557935 0
M  V30 28 C 0.983617 0.925537 -0.086578 0
M  V30 29 C 1.372822 -2.122168 0.560124 0
M  V30 30 C 1.368679 -3.399699 1.072525 0
M  V30 31 H 0.661080 -7.001832 4.164215 0
M  V30 32 H 0.048902 -5.944168 5.459559 0
M  V30 33 H 1.803672 -6.278268 5.424199 0
M  V30 34 H 2.886803 -5.639333 2.907934 0
M  V30 35 H 3.282398 -2.678625 3.830125 0
M  V30 36 H 3.199378 -0.499672 2.808861 0
M  V30 37 H 3.997222 0.819395 1.382753 0
M  V30 38 H 4.065590 3.077538 0.598143 0
M  V30 39 H 1.049670 5.779539 -1.771180 0
M  V30 40 H -0.931683 1.547511 -2.392675 0
M  V30 41 H -2.110121 2.336478 1.058599 0
M  V30 42 H -4.078421 1.384187 2.193505 0
M  V30 43 H -5.404966 -0.269891 0.856167 0
M  V30 44 H -5.626278 -1.602758 -1.560944 0
M  V30 45 H -2.220325 0.075133 -3.449971 0
M  V30 46 H 0.116495 0.269789 -0.260646 0
M  V30 47 H 0.835748 -1.929715 -0.371183 0
M  V30 48 H 0.887386 -4.241754 0.647598 0
M  V30 END ATOM
M  V30 BEGIN BOND
M  V30 1 1 1 2
M  V30 2 2 2 3
M  V30 3 1 2 4
M  V30 4 1 4 5
M  V30 5 2 5 6
M  V30 6 1 6 7
M  V30 7 2 7 8
M  V30 8 1 8 9
M  V30 9 2 9 10
M  V30 10 1 10 11
M  V30 11 2 11 12
M  V30 12 1 12 13
M  V30 13 2 13 14
M  V30 14 1 14 15
M  V30 15 2 15 16
M  V30 16 1 16 17
M  V30 17 1 17 18
M  V30 18 2 18 19
M  V30 19 1 19 20
M  V30 20 2 20 21
M  V30 21 1 21 22
M  V30 22 1 22 23
M  V30 23 1 23 24
M  V30 24 2 24 25
M  V30 25 1 25 26
M  V30 26 1 16 27
M  V30 27 2 27 28
M  V30 28 1 8 29
M  V30 29 2 29 30
M  V30 30 1 30 5
M  V30 31 1 28 9
M  V30 32 1 27 12
M  V30 33 1 26 18
M  V30 34 2 26 22
M  V30 35 1 1 31
M  V30 36 1 1 32
M  V30 37 1 1 33
M  V30 38 1 4 34
M  V30 39 1 6 35
M  V30 40 1 7 36
M  V30 41 1 10 37
M  V30 42 1 11 38
M  V30 43 1 14 39
M  V30 44 1 17 40
M  V30 45 1 19 41
M  V30 46 1 20 42
M  V30 47 1 21 43
M  V30 48 1 23 44
M  V30 49 1 25 45
M  V30 50 1 28 46
M  V30 51 1 29 47
M  V30 52 1 30 48
M  V30 END BOND
M  V30 END CTAB
M  END
>  <Dataset>  (645) 
ChEMBL_Kinases

>  <Ligand_Instance>  (645) 
nan

>  <PDB_ID>  (645) 
nan

>  <Standardized_SMILES>  (645) 
CC(=O)Nc1ccc(-c2ccc3ncnc(Nc4cccc5[nH]ncc45)c3c2)cc1

>  <Name>  (645) 
nan

>  <Pocket>  (645) 
nan

>  <ATP_Site>  (645) 
nan

>  <Peripheral>  (645) 
nan

>  <Num_H_Atoms_ProtBoundConf>  (645) 
nan

>  <Num_Resolved_Atoms>  (645) 
nan

>  <Num_Not_Resolved_Atoms>  (645) 
nan

$$$$
CHEMBL3661258
     RDKit          3D

  0  0  0  0  0  0  0  0  0  0999 V3000
M  V30 BEGIN CTAB
M  V30 COUNTS 41 45 0 0 0
M  V30 BEGIN ATOM
M  V30 1 F 5.863663 -4.683495 0.462751 0
M  V30 2 C 4.692760 -4.106412 0.844725 0
M  V30 3 C 4.127823 -4.426146 2.076638 0
M  V30 4 C 2.938118 -3.860353 2.499958 0
M  V30 5 C 2.306313 -2.953270 1.661828 0
M  V30 6 C 2.820057 -2.596485 0.424039 0
M  V30 7 C 2.136645 -1.622557 -0.436178 0
M  V30 8 C 2.157492 -1.633724 -1.813168 0
M  V30 9 C 1.508874 -0.676840 -2.563342 0
M  V30 10 C 0.822375 0.315390 -1.897983 0
M  V30 11 N 0.229351 1.214427 -2.723010 0
M  V30 12 C -0.437965 2.202239 -2.103067 0
M  V30 13 N -0.517056 2.300137 -0.781393 0
M  V30 14 C 0.028466 1.468419 0.107642 0
M  V30 15 N 0.123966 1.312833 1.517933 0
M  V30 16 C -1.140994 0.876474 1.990766 0
M  V30 17 C -1.364077 -0.367356 2.535067 0
M  V30 18 C -2.547684 -0.872693 3.033454 0
M  V30 19 C -3.622341 0.022407 2.954569 0
M  V30 20 C -3.471681 1.284087 2.423531 0
M  V30 21 N -4.408789 2.272483 2.294622 0
M  V30 22 N -3.778073 3.299549 1.747990 0
M  V30 23 C -2.488978 2.988827 1.532285 0
M  V30 24 C -2.246070 1.701042 1.949283 0
M  V30 25 C 0.733270 0.424785 -0.503891 0
M  V30 26 C 1.422955 -0.590583 0.128895 0
M  V30 27 C 4.007740 -3.185966 0.045004 0
M  V30 28 H 4.590563 -5.129435 2.758095 0
M  V30 29 H 2.483129 -4.106565 3.470806 0
M  V30 30 H 1.377094 -2.523463 2.020681 0
M  V30 31 H 2.709087 -2.428155 -2.298696 0
M  V30 32 H 1.556835 -0.735192 -3.633218 0
M  V30 33 H -0.986886 3.034126 -2.570210 0
M  V30 34 H 1.023689 1.508621 2.048985 0
M  V30 35 H -0.532098 -1.066060 2.598669 0
M  V30 36 H -2.632420 -1.865645 3.444114 0
M  V30 37 H -4.600599 -0.282249 3.321891 0
M  V30 38 H -5.415717 2.239331 2.566694 0
M  V30 39 H -1.788705 3.683423 1.110620 0
M  V30 40 H 1.401395 -0.579675 1.221119 0
M  V30 41 H 4.471311 -2.952329 -0.913417 0
M  V30 END ATOM
M  V30 BEGIN BOND
M  V30 1 1 1 2
M  V30 2 2 2 3
M  V30 3 1 3 4
M  V30 4 2 4 5
M  V30 5 1 5 6
M  V30 6 1 6 7
M  V30 7 2 7 8
M  V30 8 1 8 9
M  V30 9 2 9 10
M  V30 10 1 10 11
M  V30 11 2 11 12
M  V30 12 1 12 13
M  V30 13 2 13 14
M  V30 14 1 14 15
M  V30 15 1 15 16
M  V30 16 2 16 17
M  V30 17 1 17 18
M  V30 18 2 18 19
M  V30 19 1 19 20
M  V30 20 1 20 21
M  V30 21 1 21 22
M  V30 22 2 22 23
M  V30 23 1 23 24
M  V30 24 1 14 25
M  V30 25 2 25 26
M  V30 26 2 6 27
M  V30 27 1 27 2
M  V30 28 1 26 7
M  V30 29 1 25 10
M  V30 30 1 24 16
M  V30 31 2 24 20
M  V30 32 1 3 28
M  V30 33 1 4 29
M  V30 34 1 5 30
M  V30 35 1 8 31
M  V30 36 1 9 32
M  V30 37 1 12 33
M  V30 38 1 15 34
M  V30 39 1 17 35
M  V30 40 1 18 36
M  V30 41 1 19 37
M  V30 42 1 21 38
M  V30 43 1 23 39
M  V30 44 1 26 40
M  V30 45 1 27 41
M  V30 END BOND
M  V30 END CTAB
M  END
>  <Dataset>  (646) 
ChEMBL_Kinases

>  <Ligand_Instance>  (646) 
nan

>  <PDB_ID>  (646) 
nan

>  <Standardized_SMILES>  (646) 
Fc1cccc(-c2ccc3ncnc(Nc4cccc5[nH]ncc45)c3c2)c1

>  <Name>  (646) 
nan

>  <Pocket>  (646) 
nan

>  <ATP_Site>  (646) 
nan

>  <Peripheral>  (646) 
nan

>  <Num_H_Atoms_ProtBoundConf>  (646) 
nan

>  <Num_Resolved_Atoms>  (646) 
nan

>  <Num_Not_Resolved_Atoms>  (646) 
nan

$$$$
CHEMBL3661250
     RDKit          3D

  0  0  0  0  0  0  0  0  0  0999 V3000
M  V30 BEGIN CTAB
M  V30 COUNTS 49 53 0 0 0
M  V30 BEGIN ATOM
M  V30 1 C 2.512759 -6.206779 3.144279 0
M  V30 2 S 2.817511 -6.316512 1.421655 0
M  V30 3 O 4.307382 -6.118039 1.186643 0
M  V30 4 O 2.502894 -7.735004 0.982542 0
M  V30 5 N 1.872358 -5.271387 0.462546 0
M  V30 6 C 1.737554 -3.873333 0.379549 0
M  V30 7 C 2.965876 -3.194120 0.391644 0
M  V30 8 C 2.931942 -1.818987 0.315672 0
M  V30 9 C 1.799507 -1.045532 0.228019 0
M  V30 10 C 1.748453 0.409771 0.147747 0
M  V30 11 C 2.711913 1.194927 -0.452778 0
M  V30 12 C 2.600596 2.575606 -0.502621 0
M  V30 13 C 1.477631 3.173885 0.074302 0
M  V30 14 N 1.311610 4.529408 0.051212 0
M  V30 15 C 0.230721 5.109055 0.601267 0
M  V30 16 N -0.720898 4.355671 1.192323 0
M  V30 17 C -0.632041 3.037338 1.255051 0
M  V30 18 N -1.562807 2.132969 1.835756 0
M  V30 19 C -2.468135 1.590650 0.873798 0
M  V30 20 C -2.420661 1.919677 -0.464696 0
M  V30 21 C -3.327945 1.356734 -1.368917 0
M  V30 22 C -4.290409 0.465912 -0.967842 0
M  V30 23 C -4.360560 0.122471 0.351317 0
M  V30 24 N -5.198015 -0.714216 0.983050 0
M  V30 25 N -4.842929 -0.689255 2.241064 0
M  V30 26 C -3.801773 0.134488 2.456182 0
M  V30 27 C -3.453850 0.692539 1.219669 0
M  V30 28 C 0.483380 2.403689 0.690911 0
M  V30 29 C 0.651115 1.030863 0.709087 0
M  V30 30 C 0.620030 -1.758669 0.219873 0
M  V30 31 C 0.549916 -3.132971 0.292081 0
M  V30 32 H 1.739657 -5.468209 3.372583 0
M  V30 33 H 2.182122 -7.192283 3.577928 0
M  V30 34 H 3.456376 -5.956376 3.709240 0
M  V30 35 H 1.204631 -5.622757 -0.263044 0
M  V30 36 H 3.921306 -3.696703 0.456763 0
M  V30 37 H 3.890960 -1.275371 0.324659 0
M  V30 38 H 3.544324 0.666496 -0.873029 0
M  V30 39 H 3.359123 3.169649 -0.972913 0
M  V30 40 H 0.092133 6.181190 0.588071 0
M  V30 41 H -1.673750 1.823205 2.820209 0
M  V30 42 H -1.679500 2.617728 -0.827875 0
M  V30 43 H -3.211218 1.678849 -2.415926 0
M  V30 44 H -4.920540 0.110095 -1.766165 0
M  V30 45 H -5.964734 -1.262144 0.551378 0
M  V30 46 H -3.272247 0.378409 3.379408 0
M  V30 47 H -0.121498 0.426517 1.188336 0
M  V30 48 H -0.358963 -1.318700 0.156786 0
M  V30 49 H -0.348405 -3.727895 0.288804 0
M  V30 END ATOM
M  V30 BEGIN BOND
M  V30 1 1 1 2
M  V30 2 2 2 3
M  V30 3 2 2 4
M  V30 4 1 2 5
M  V30 5 1 5 6
M  V30 6 2 6 7
M  V30 7 1 7 8
M  V30 8 2 8 9
M  V30 9 1 9 10
M  V30 10 2 10 11
M  V30 11 1 11 12
M  V30 12 2 12 13
M  V30 13 1 13 14
M  V30 14 2 14 15
M  V30 15 1 15 16
M  V30 16 2 16 17
M  V30 17 1 17 18
M  V30 18 1 18 19
M  V30 19 2 19 20
M  V30 20 1 20 21
M  V30 21 2 21 22
M  V30 22 1 22 23
M  V30 23 1 23 24
M  V30 24 1 24 25
M  V30 25 2 25 26
M  V30 26 1 26 27
M  V30 27 1 17 28
M  V30 28 2 28 29
M  V30 29 1 9 30
M  V30 30 2 30 31
M  V30 31 1 31 6
M  V30 32 1 29 10
M  V30 33 1 28 13
M  V30 34 1 27 19
M  V30 35 2 27 23
M  V30 36 1 1 32
M  V30 37 1 1 33
M  V30 38 1 1 34
M  V30 39 1 5 35
M  V30 40 1 7 36
M  V30 41 1 8 37
M  V30 42 1 11 38
M  V30 43 1 12 39
M  V30 44 1 15 40
M  V30 45 1 18 41
M  V30 46 1 20 42
M  V30 47 1 21 43
M  V30 48 1 22 44
M  V30 49 1 24 45
M  V30 50 1 26 46
M  V30 51 1 29 47
M  V30 52 1 30 48
M  V30 53 1 31 49
M  V30 END BOND
M  V30 END CTAB
M  END
>  <Dataset>  (647) 
ChEMBL_Kinases

>  <Ligand_Instance>  (647) 
nan

>  <PDB_ID>  (647) 
nan

>  <Standardized_SMILES>  (647) 
CS(=O)(=O)Nc1ccc(-c2ccc3ncnc(Nc4cccc5[nH]ncc45)c3c2)cc1

>  <Name>  (647) 
nan

>  <Pocket>  (647) 
nan

>  <ATP_Site>  (647) 
nan

>  <Peripheral>  (647) 
nan

>  <Num_H_Atoms_ProtBoundConf>  (647) 
nan

>  <Num_Resolved_Atoms>  (647) 
nan

>  <Num_Not_Resolved_Atoms>  (647) 
nan

$$$$
CHEMBL3661251
     RDKit          3D

  0  0  0  0  0  0  0  0  0  0999 V3000
M  V30 BEGIN CTAB
M  V30 COUNTS 45 49 0 0 0
M  V30 BEGIN ATOM
M  V30 1 C 2.308739 -4.165214 4.531253 0
M  V30 2 O 2.132312 -3.349476 3.405252 0
M  V30 3 C 2.800651 -2.158764 3.172258 0
M  V30 4 C 3.741520 -1.562254 3.981102 0
M  V30 5 C 4.379263 -0.374652 3.705346 0
M  V30 6 C 4.064270 0.295639 2.520104 0
M  V30 7 C 3.124170 -0.308269 1.720500 0
M  V30 8 C 2.770938 0.388210 0.465431 0
M  V30 9 C 3.652293 0.923636 -0.457464 0
M  V30 10 C 3.114342 1.544033 -1.576454 0
M  V30 11 C 1.743160 1.624767 -1.763276 0
M  V30 12 N 1.247002 2.227003 -2.856052 0
M  V30 13 C -0.074669 2.325791 -3.078918 0
M  V30 14 N -0.898900 1.795461 -2.159866 0
M  V30 15 C -0.508559 1.182182 -1.050849 0
M  V30 16 N -1.365726 0.617912 -0.074854 0
M  V30 17 C -2.442949 -0.257959 0.087139 0
M  V30 18 C -2.240849 -1.387370 0.892103 0
M  V30 19 C -3.228217 -2.319125 1.128966 0
M  V30 20 C -4.433224 -2.067678 0.520420 0
M  V30 21 C -4.683930 -0.977679 -0.277109 0
M  V30 22 N -5.770095 -0.534048 -0.964405 0
M  V30 23 N -5.464424 0.602697 -1.585264 0
M  V30 24 C -4.180043 0.926104 -1.319669 0
M  V30 25 C -3.673923 -0.057084 -0.498573 0
M  V30 26 C 0.852206 1.098389 -0.855202 0
M  V30 27 C 1.395396 0.482568 0.254942 0
M  V30 28 C 2.476054 -1.496483 1.980605 0
M  V30 29 F 1.566934 -2.024293 1.145048 0
M  V30 30 H 3.347126 -4.106958 4.969811 0
M  V30 31 H 1.591987 -3.960180 5.342043 0
M  V30 32 H 2.149922 -5.230982 4.253927 0
M  V30 33 H 3.933693 -2.149296 4.893078 0
M  V30 34 H 5.110660 0.002420 4.426082 0
M  V30 35 H 4.555557 1.225471 2.290635 0
M  V30 36 H 4.695578 0.805257 -0.213072 0
M  V30 37 H 3.833229 1.946199 -2.267617 0
M  V30 38 H -0.490175 2.813648 -3.964933 0
M  V30 39 H -1.119793 0.989890 0.874060 0
M  V30 40 H -1.265123 -1.561325 1.364271 0
M  V30 41 H -3.031452 -3.173223 1.754734 0
M  V30 42 H -5.232506 -2.778120 0.684776 0
M  V30 43 H -6.685860 -1.048899 -0.969187 0
M  V30 44 H -3.638773 1.788696 -1.675241 0
M  V30 45 H 0.671023 0.070354 0.964262 0
M  V30 END ATOM
M  V30 BEGIN BOND
M  V30 1 1 1 2
M  V30 2 1 2 3
M  V30 3 2 3 4
M  V30 4 1 4 5
M  V30 5 2 5 6
M  V30 6 1 6 7
M  V30 7 1 7 8
M  V30 8 2 8 9
M  V30 9 1 9 10
M  V30 10 2 10 11
M  V30 11 1 11 12
M  V30 12 2 12 13
M  V30 13 1 13 14
M  V30 14 2 14 15
M  V30 15 1 15 16
M  V30 16 1 16 17
M  V30 17 2 17 18
M  V30 18 1 18 19
M  V30 19 2 19 20
M  V30 20 1 20 21
M  V30 21 1 21 22
M  V30 22 1 22 23
M  V30 23 2 23 24
M  V30 24 1 24 25
M  V30 25 1 15 26
M  V30 26 2 26 27
M  V30 27 2 7 28
M  V30 28 1 28 29
M  V30 29 1 28 3
M  V30 30 1 27 8
M  V30 31 1 26 11
M  V30 32 1 25 17
M  V30 33 2 25 21
M  V30 34 1 1 30
M  V30 35 1 1 31
M  V30 36 1 1 32
M  V30 37 1 4 33
M  V30 38 1 5 34
M  V30 39 1 6 35
M  V30 40 1 9 36
M  V30 41 1 10 37
M  V30 42 1 13 38
M  V30 43 1 16 39
M  V30 44 1 18 40
M  V30 45 1 19 41
M  V30 46 1 20 42
M  V30 47 1 22 43
M  V30 48 1 24 44
M  V30 49 1 27 45
M  V30 END BOND
M  V30 END CTAB
M  END
>  <Dataset>  (648) 
ChEMBL_Kinases

>  <Ligand_Instance>  (648) 
nan

>  <PDB_ID>  (648) 
nan

>  <Standardized_SMILES>  (648) 
COc1cccc(-c2ccc3ncnc(Nc4cccc5[nH]ncc45)c3c2)c1F

>  <Name>  (648) 
nan

>  <Pocket>  (648) 
nan

>  <ATP_Site>  (648) 
nan

>  <Peripheral>  (648) 
nan

>  <Num_H_Atoms_ProtBoundConf>  (648) 
nan

>  <Num_Resolved_Atoms>  (648) 
nan

>  <Num_Not_Resolved_Atoms>  (648) 
nan

$$$$
CHEMBL3661252
     RDKit          3D

  0  0  0  0  0  0  0  0  0  0999 V3000
M  V30 BEGIN CTAB
M  V30 COUNTS 45 49 0 0 0
M  V30 BEGIN ATOM
M  V30 1 C -3.030602 -5.496623 0.921076 0
M  V30 2 O -2.386566 -5.334497 -0.352548 0
M  V30 3 C -1.526511 -4.256411 -0.521598 0
M  V30 4 C -1.239517 -3.308922 0.468040 0
M  V30 5 C -0.361903 -2.263755 0.198241 0
M  V30 6 C 0.230876 -2.152974 -1.042719 0
M  V30 7 C 1.134787 -1.017659 -1.207555 0
M  V30 8 C 2.234898 -1.059418 -2.040909 0
M  V30 9 C 3.078714 0.020837 -2.181730 0
M  V30 10 C 2.785681 1.164712 -1.451977 0
M  V30 11 N 3.623145 2.199731 -1.604565 0
M  V30 12 C 3.354616 3.322169 -0.898847 0
M  V30 13 N 2.318303 3.457322 -0.070696 0
M  V30 14 C 1.456743 2.445126 0.109741 0
M  V30 15 N 0.297151 2.357626 0.933083 0
M  V30 16 C 0.472138 1.824340 2.238829 0
M  V30 17 C 1.718514 1.422109 2.642929 0
M  V30 18 C 1.907008 0.899820 3.904025 0
M  V30 19 C 0.804503 0.793670 4.747897 0
M  V30 20 C -0.466119 1.198079 4.351032 0
M  V30 21 N -1.700586 1.237980 4.883848 0
M  V30 22 N -2.568552 1.738580 4.029373 0
M  V30 23 C -1.970600 2.066161 2.869232 0
M  V30 24 C -0.644006 1.723255 3.076882 0
M  V30 25 C 1.702038 1.285886 -0.595281 0
M  V30 26 C 0.919929 0.158415 -0.521564 0
M  V30 27 C -0.039085 -3.075961 -2.030807 0
M  V30 28 C -0.911418 -4.106803 -1.748255 0
M  V30 29 F -1.109583 -4.966870 -2.798174 0
M  V30 30 H -2.246122 -5.645135 1.715055 0
M  V30 31 H -3.557987 -4.541548 1.150331 0
M  V30 32 H -3.755405 -6.309304 0.907508 0
M  V30 33 H -1.760327 -3.493459 1.403279 0
M  V30 34 H -0.250714 -1.625266 1.063976 0
M  V30 35 H 2.409632 -1.982584 -2.584219 0
M  V30 36 H 3.938420 -0.020000 -2.837008 0
M  V30 37 H 4.032894 4.144223 -1.029641 0
M  V30 38 H -0.647145 2.671228 0.597873 0
M  V30 39 H 2.588089 1.494314 2.006258 0
M  V30 40 H 2.881117 0.569738 4.259931 0
M  V30 41 H 0.863706 0.394611 5.755129 0
M  V30 42 H -1.914515 0.902643 5.867384 0
M  V30 43 H -2.362480 2.498305 1.948285 0
M  V30 44 H 0.044523 0.172851 0.132958 0
M  V30 45 H 0.481150 -2.879545 -2.943957 0
M  V30 END ATOM
M  V30 BEGIN BOND
M  V30 1 1 1 2
M  V30 2 1 2 3
M  V30 3 2 3 4
M  V30 4 1 4 5
M  V30 5 2 5 6
M  V30 6 1 6 7
M  V30 7 2 7 8
M  V30 8 1 8 9
M  V30 9 2 9 10
M  V30 10 1 10 11
M  V30 11 2 11 12
M  V30 12 1 12 13
M  V30 13 2 13 14
M  V30 14 1 14 15
M  V30 15 1 15 16
M  V30 16 2 16 17
M  V30 17 1 17 18
M  V30 18 2 18 19
M  V30 19 1 19 20
M  V30 20 1 20 21
M  V30 21 1 21 22
M  V30 22 2 22 23
M  V30 23 1 23 24
M  V30 24 1 14 25
M  V30 25 2 25 26
M  V30 26 1 6 27
M  V30 27 2 27 28
M  V30 28 1 28 29
M  V30 29 1 28 3
M  V30 30 1 26 7
M  V30 31 1 25 10
M  V30 32 1 24 16
M  V30 33 2 24 20
M  V30 34 1 1 30
M  V30 35 1 1 31
M  V30 36 1 1 32
M  V30 37 1 4 33
M  V30 38 1 5 34
M  V30 39 1 8 35
M  V30 40 1 9 36
M  V30 41 1 12 37
M  V30 42 1 15 38
M  V30 43 1 17 39
M  V30 44 1 18 40
M  V30 45 1 19 41
M  V30 46 1 21 42
M  V30 47 1 23 43
M  V30 48 1 26 44
M  V30 49 1 27 45
M  V30 END BOND
M  V30 END CTAB
M  END
>  <Dataset>  (649) 
ChEMBL_Kinases

>  <Ligand_Instance>  (649) 
nan

>  <PDB_ID>  (649) 
nan

>  <Standardized_SMILES>  (649) 
COc1ccc(-c2ccc3ncnc(Nc4cccc5[nH]ncc45)c3c2)cc1F

>  <Name>  (649) 
nan

>  <Pocket>  (649) 
nan

>  <ATP_Site>  (649) 
nan

>  <Peripheral>  (649) 
nan

>  <Num_H_Atoms_ProtBoundConf>  (649) 
nan

>  <Num_Resolved_Atoms>  (649) 
nan

>  <Num_Not_Resolved_Atoms>  (649) 
nan

$$$$
CHEMBL3661253
     RDKit          3D

  0  0  0  0  0  0  0  0  0  0999 V3000
M  V30 BEGIN CTAB
M  V30 COUNTS 45 49 0 0 0
M  V30 BEGIN ATOM
M  V30 1 C -2.723433 -5.902007 -0.059379 0
M  V30 2 O -1.361968 -5.688526 -0.241033 0
M  V30 3 C -0.716255 -4.485544 -0.397878 0
M  V30 4 C -1.384837 -3.284697 -0.391929 0
M  V30 5 C -0.800984 -2.024185 -0.546274 0
M  V30 6 C 0.581352 -2.026709 -0.718272 0
M  V30 7 C 1.351842 -0.776437 -0.904943 0
M  V30 8 C 2.500323 -0.688834 -1.649136 0
M  V30 9 C 3.168490 0.513652 -1.790980 0
M  V30 10 C 2.657909 1.640425 -1.164915 0
M  V30 11 N 3.372648 2.777297 -1.353873 0
M  V30 12 C 2.879225 3.875105 -0.747123 0
M  V30 13 N 1.750158 3.930452 0.020580 0
M  V30 14 C 1.024743 2.791482 0.218281 0
M  V30 15 N -0.155872 2.509210 0.954735 0
M  V30 16 C 0.074700 1.866482 2.219400 0
M  V30 17 C 1.363692 1.606688 2.629857 0
M  V30 18 C 1.520429 0.950376 3.859638 0
M  V30 19 C 0.449180 0.568018 4.647997 0
M  V30 20 C -0.811283 0.865299 4.165660 0
M  V30 21 N -2.044519 0.641817 4.655901 0
M  V30 22 N -3.002743 1.093948 3.859269 0
M  V30 23 C -2.413286 1.650498 2.777238 0
M  V30 24 C -1.032889 1.508968 2.964631 0
M  V30 25 C 1.498217 1.639964 -0.390455 0
M  V30 26 C 0.898397 0.379892 -0.309054 0
M  V30 27 C 1.302858 -3.196997 -0.731901 0
M  V30 28 C 0.664835 -4.428367 -0.572992 0
M  V30 29 Cl 1.544967 -5.935382 -0.584761 0
M  V30 30 H -3.206046 -5.090700 0.546334 0
M  V30 31 H -3.259891 -6.011784 -1.024677 0
M  V30 32 H -2.879546 -6.875155 0.488664 0
M  V30 33 H -2.460815 -3.244362 -0.257888 0
M  V30 34 H -1.337116 -1.089436 -0.537882 0
M  V30 35 H 2.830280 -1.608784 -2.102230 0
M  V30 36 H 4.068566 0.542308 -2.380815 0
M  V30 37 H 3.362721 4.843078 -0.827490 0
M  V30 38 H -1.122168 2.737834 0.630628 0
M  V30 39 H 2.247862 1.891009 2.041743 0
M  V30 40 H 2.516602 0.711169 4.250076 0
M  V30 41 H 0.551387 0.057742 5.596887 0
M  V30 42 H -2.204621 0.161885 5.566916 0
M  V30 43 H -2.801129 2.133430 1.893814 0
M  V30 44 H -0.012741 0.307351 0.281448 0
M  V30 45 H 2.379592 -3.210479 -0.863672 0
M  V30 END ATOM
M  V30 BEGIN BOND
M  V30 1 1 1 2
M  V30 2 1 2 3
M  V30 3 2 3 4
M  V30 4 1 4 5
M  V30 5 2 5 6
M  V30 6 1 6 7
M  V30 7 2 7 8
M  V30 8 1 8 9
M  V30 9 2 9 10
M  V30 10 1 10 11
M  V30 11 2 11 12
M  V30 12 1 12 13
M  V30 13 2 13 14
M  V30 14 1 14 15
M  V30 15 1 15 16
M  V30 16 2 16 17
M  V30 17 1 17 18
M  V30 18 2 18 19
M  V30 19 1 19 20
M  V30 20 1 20 21
M  V30 21 1 21 22
M  V30 22 2 22 23
M  V30 23 1 23 24
M  V30 24 1 14 25
M  V30 25 2 25 26
M  V30 26 1 6 27
M  V30 27 2 27 28
M  V30 28 1 28 29
M  V30 29 1 28 3
M  V30 30 1 26 7
M  V30 31 1 25 10
M  V30 32 1 24 16
M  V30 33 2 24 20
M  V30 34 1 1 30
M  V30 35 1 1 31
M  V30 36 1 1 32
M  V30 37 1 4 33
M  V30 38 1 5 34
M  V30 39 1 8 35
M  V30 40 1 9 36
M  V30 41 1 12 37
M  V30 42 1 15 38
M  V30 43 1 17 39
M  V30 44 1 18 40
M  V30 45 1 19 41
M  V30 46 1 21 42
M  V30 47 1 23 43
M  V30 48 1 26 44
M  V30 49 1 27 45
M  V30 END BOND
M  V30 END CTAB
M  END
>  <Dataset>  (650) 
ChEMBL_Kinases

>  <Ligand_Instance>  (650) 
nan

>  <PDB_ID>  (650) 
nan

>  <Standardized_SMILES>  (650) 
COc1ccc(-c2ccc3ncnc(Nc4cccc5[nH]ncc45)c3c2)cc1Cl

>  <Name>  (650) 
nan

>  <Pocket>  (650) 
nan

>  <ATP_Site>  (650) 
nan

>  <Peripheral>  (650) 
nan

>  <Num_H_Atoms_ProtBoundConf>  (650) 
nan

>  <Num_Resolved_Atoms>  (650) 
nan

>  <Num_Not_Resolved_Atoms>  (650) 
nan

$$$$
CHEMBL3661254
     RDKit          3D

  0  0  0  0  0  0  0  0  0  0999 V3000
M  V30 BEGIN CTAB
M  V30 COUNTS 48 52 0 0 0
M  V30 BEGIN ATOM
M  V30 1 C -4.149919 -4.988278 -0.643411 0
M  V30 2 O -3.835956 -4.156586 -1.744347 0
M  V30 3 C -2.801429 -3.243336 -1.588486 0
M  V30 4 C -2.490149 -2.427288 -2.662366 0
M  V30 5 C -1.459635 -1.490180 -2.563795 0
M  V30 6 C -0.719477 -1.350506 -1.388358 0
M  V30 7 C 0.324648 -0.341306 -1.402318 0
M  V30 8 C 1.217266 -0.225118 -2.470227 0
M  V30 9 C 2.206573 0.752323 -2.456604 0
M  V30 10 C 2.316202 1.629276 -1.370800 0
M  V30 11 N 3.269966 2.553864 -1.380735 0
M  V30 12 C 3.357506 3.392666 -0.316458 0
M  V30 13 N 2.526231 3.326746 0.737582 0
M  V30 14 C 1.552096 2.405724 0.780697 0
M  V30 15 N 0.583499 2.180925 1.801471 0
M  V30 16 C 1.003743 1.241567 2.785592 0
M  V30 17 C 2.246746 0.627251 2.723214 0
M  V30 18 C 2.651876 -0.295926 3.691484 0
M  V30 19 C 1.808075 -0.598201 4.717560 0
M  V30 20 C 0.545497 -0.015207 4.837081 0
M  V30 21 N -0.474104 -0.117728 5.717061 0
M  V30 22 N -1.472459 0.691956 5.334444 0
M  V30 23 C -1.065988 1.310963 4.193197 0
M  V30 24 C 0.199617 0.885990 3.855789 0
M  V30 25 C 1.446969 1.542288 -0.294071 0
M  V30 26 C 0.488066 0.553229 -0.366113 0
M  V30 27 C -1.036930 -2.167111 -0.325826 0
M  V30 28 C -0.261705 -2.024910 0.906007 0
M  V30 29 C -2.060840 -3.093218 -0.434096 0
M  V30 30 H -4.565948 -4.344114 0.178079 0
M  V30 31 H -3.206378 -5.422029 -0.250327 0
M  V30 32 H -4.875507 -5.785998 -0.927495 0
M  V30 33 H -3.029935 -2.487256 -3.606238 0
M  V30 34 H -1.242555 -0.860646 -3.437751 0
M  V30 35 H 1.125823 -0.911395 -3.311735 0
M  V30 36 H 2.869938 0.807077 -3.294598 0
M  V30 37 H 4.135350 4.159634 -0.306360 0
M  V30 38 H -0.360222 2.601492 1.915734 0
M  V30 39 H 2.934297 0.845678 1.925233 0
M  V30 40 H 3.625649 -0.760104 3.619115 0
M  V30 41 H 2.121839 -1.315287 5.470362 0
M  V30 42 H -0.370509 -0.775963 6.541764 0
M  V30 43 H -1.648793 2.039335 3.620286 0
M  V30 44 H -0.201614 0.456263 0.445686 0
M  V30 45 H 0.783304 -1.702486 0.777911 0
M  V30 46 H -0.801190 -1.478670 1.727847 0
M  V30 47 H -0.174785 -3.072430 1.324538 0
M  V30 48 H -2.290725 -3.720186 0.409506 0
M  V30 END ATOM
M  V30 BEGIN BOND
M  V30 1 1 1 2
M  V30 2 1 2 3
M  V30 3 2 3 4
M  V30 4 1 4 5
M  V30 5 2 5 6
M  V30 6 1 6 7
M  V30 7 2 7 8
M  V30 8 1 8 9
M  V30 9 2 9 10
M  V30 10 1 10 11
M  V30 11 2 11 12
M  V30 12 1 12 13
M  V30 13 2 13 14
M  V30 14 1 14 15
M  V30 15 1 15 16
M  V30 16 2 16 17
M  V30 17 1 17 18
M  V30 18 2 18 19
M  V30 19 1 19 20
M  V30 20 1 20 21
M  V30 21 1 21 22
M  V30 22 2 22 23
M  V30 23 1 23 24
M  V30 24 1 14 25
M  V30 25 2 25 26
M  V30 26 1 6 27
M  V30 27 1 27 28
M  V30 28 2 27 29
M  V30 29 1 29 3
M  V30 30 1 26 7
M  V30 31 1 25 10
M  V30 32 1 24 16
M  V30 33 2 24 20
M  V30 34 1 1 30
M  V30 35 1 1 31
M  V30 36 1 1 32
M  V30 37 1 4 33
M  V30 38 1 5 34
M  V30 39 1 8 35
M  V30 40 1 9 36
M  V30 41 1 12 37
M  V30 42 1 15 38
M  V30 43 1 17 39
M  V30 44 1 18 40
M  V30 45 1 19 41
M  V30 46 1 21 42
M  V30 47 1 23 43
M  V30 48 1 26 44
M  V30 49 1 28 45
M  V30 50 1 28 46
M  V30 51 1 28 47
M  V30 52 1 29 48
M  V30 END BOND
M  V30 END CTAB
M  END
>  <Dataset>  (651) 
ChEMBL_Kinases

>  <Ligand_Instance>  (651) 
nan

>  <PDB_ID>  (651) 
nan

>  <Standardized_SMILES>  (651) 
COc1ccc(-c2ccc3ncnc(Nc4cccc5[nH]ncc45)c3c2)c(C)c1

>  <Name>  (651) 
nan

>  <Pocket>  (651) 
nan

>  <ATP_Site>  (651) 
nan

>  <Peripheral>  (651) 
nan

>  <Num_H_Atoms_ProtBoundConf>  (651) 
nan

>  <Num_Resolved_Atoms>  (651) 
nan

>  <Num_Not_Resolved_Atoms>  (651) 
nan

$$$$
CHEMBL3661255
     RDKit          3D

  0  0  0  0  0  0  0  0  0  0999 V3000
M  V30 BEGIN CTAB
M  V30 COUNTS 48 52 0 0 0
M  V30 BEGIN ATOM
M  V30 1 C -4.500808 -3.895014 1.715152 0
M  V30 2 O -4.112802 -3.883349 0.332066 0
M  V30 3 C -2.967395 -3.173523 -0.006159 0
M  V30 4 C -2.202263 -2.491769 0.918528 0
M  V30 5 C -1.068474 -1.811893 0.457217 0
M  V30 6 C -0.679819 -1.789767 -0.869948 0
M  V30 7 C 0.524139 -1.041539 -1.218337 0
M  V30 8 C 1.354994 -1.395563 -2.254980 0
M  V30 9 C 2.481078 -0.675773 -2.563638 0
M  V30 10 C 2.799924 0.450375 -1.808045 0
M  V30 11 N 3.896470 1.197524 -2.066525 0
M  V30 12 C 4.209222 2.288210 -1.338354 0
M  V30 13 N 3.425685 2.675873 -0.311605 0
M  V30 14 C 2.306012 1.974036 0.008135 0
M  V30 15 N 1.387814 2.259277 1.055076 0
M  V30 16 C 1.589290 1.703303 2.347102 0
M  V30 17 C 2.658337 0.882538 2.636177 0
M  V30 18 C 2.853806 0.346401 3.880816 0
M  V30 19 C 1.938108 0.649950 4.866523 0
M  V30 20 C 0.852237 1.456534 4.656724 0
M  V30 21 N -0.187813 1.932924 5.369891 0
M  V30 22 N -0.967292 2.700297 4.637799 0
M  V30 23 C -0.427469 2.736411 3.392640 0
M  V30 24 C 0.719527 1.959646 3.382213 0
M  V30 25 C 2.000379 0.861427 -0.746138 0
M  V30 26 C 0.889266 0.082001 -0.504872 0
M  V30 27 C -1.455338 -2.476871 -1.785314 0
M  V30 28 C -2.572918 -3.146721 -1.329130 0
M  V30 29 C -3.374246 -3.870468 -2.354843 0
M  V30 30 H -3.679244 -4.296392 2.341334 0
M  V30 31 H -4.691221 -2.859892 2.072639 0
M  V30 32 H -5.431403 -4.455403 1.860852 0
M  V30 33 H -2.494373 -2.502192 1.951615 0
M  V30 34 H -0.532060 -1.308073 1.249224 0
M  V30 35 H 1.097185 -2.277369 -2.839712 0
M  V30 36 H 3.145657 -0.936714 -3.372236 0
M  V30 37 H 5.089898 2.864852 -1.567294 0
M  V30 38 H 0.558200 2.872964 0.902524 0
M  V30 39 H 3.359814 0.666123 1.831515 0
M  V30 40 H 3.717991 -0.296415 4.050768 0
M  V30 41 H 2.084353 0.230243 5.855602 0
M  V30 42 H -0.312863 1.694640 6.368186 0
M  V30 43 H -0.902161 3.312184 2.611313 0
M  V30 44 H 0.219816 0.355624 0.319783 0
M  V30 45 H -1.158071 -2.464992 -2.828092 0
M  V30 46 H -3.006017 -4.930219 -2.327226 0
M  V30 47 H -3.241239 -3.426664 -3.357945 0
M  V30 48 H -4.449892 -3.913996 -2.126298 0
M  V30 END ATOM
M  V30 BEGIN BOND
M  V30 1 1 1 2
M  V30 2 1 2 3
M  V30 3 2 3 4
M  V30 4 1 4 5
M  V30 5 2 5 6
M  V30 6 1 6 7
M  V30 7 2 7 8
M  V30 8 1 8 9
M  V30 9 2 9 10
M  V30 10 1 10 11
M  V30 11 2 11 12
M  V30 12 1 12 13
M  V30 13 2 13 14
M  V30 14 1 14 15
M  V30 15 1 15 16
M  V30 16 2 16 17
M  V30 17 1 17 18
M  V30 18 2 18 19
M  V30 19 1 19 20
M  V30 20 1 20 21
M  V30 21 1 21 22
M  V30 22 2 22 23
M  V30 23 1 23 24
M  V30 24 1 14 25
M  V30 25 2 25 26
M  V30 26 1 6 27
M  V30 27 2 27 28
M  V30 28 1 28 29
M  V30 29 1 28 3
M  V30 30 1 26 7
M  V30 31 1 25 10
M  V30 32 1 24 16
M  V30 33 2 24 20
M  V30 34 1 1 30
M  V30 35 1 1 31
M  V30 36 1 1 32
M  V30 37 1 4 33
M  V30 38 1 5 34
M  V30 39 1 8 35
M  V30 40 1 9 36
M  V30 41 1 12 37
M  V30 42 1 15 38
M  V30 43 1 17 39
M  V30 44 1 18 40
M  V30 45 1 19 41
M  V30 46 1 21 42
M  V30 47 1 23 43
M  V30 48 1 26 44
M  V30 49 1 27 45
M  V30 50 1 29 46
M  V30 51 1 29 47
M  V30 52 1 29 48
M  V30 END BOND
M  V30 END CTAB
M  END
>  <Dataset>  (652) 
ChEMBL_Kinases

>  <Ligand_Instance>  (652) 
nan

>  <PDB_ID>  (652) 
nan

>  <Standardized_SMILES>  (652) 
COc1ccc(-c2ccc3ncnc(Nc4cccc5[nH]ncc45)c3c2)cc1C

>  <Name>  (652) 
nan

>  <Pocket>  (652) 
nan

>  <ATP_Site>  (652) 
nan

>  <Peripheral>  (652) 
nan

>  <Num_H_Atoms_ProtBoundConf>  (652) 
nan

>  <Num_Resolved_Atoms>  (652) 
nan

>  <Num_Not_Resolved_Atoms>  (652) 
nan

$$$$
CHEMBL3661256
     RDKit          3D

  0  0  0  0  0  0  0  0  0  0999 V3000
M  V30 BEGIN CTAB
M  V30 COUNTS 41 45 0 0 0
M  V30 BEGIN ATOM
M  V30 1 F 0.825247 -6.283452 2.613278 0
M  V30 2 C 0.856635 -5.188868 1.823860 0
M  V30 3 C 0.350945 -5.250556 0.519955 0
M  V30 4 C 0.393049 -4.106020 -0.278801 0
M  V30 5 C 0.921110 -2.922626 0.193747 0
M  V30 6 C 0.956245 -1.730589 -0.667571 0
M  V30 7 C 1.114821 -2.021732 -2.020649 0
M  V30 8 C 1.160980 -0.965493 -2.919951 0
M  V30 9 C 1.046686 0.313136 -2.421138 0
M  V30 10 N 1.102695 1.349715 -3.253414 0
M  V30 11 C 1.008891 2.600210 -2.802582 0
M  V30 12 N 0.855421 2.889416 -1.518548 0
M  V30 13 C 0.787704 1.911382 -0.607721 0
M  V30 14 N 0.626091 2.259258 0.746533 0
M  V30 15 C 0.325223 1.827437 2.053168 0
M  V30 16 C 1.167075 1.838044 3.157269 0
M  V30 17 C 0.693786 1.404468 4.377432 0
M  V30 18 C -0.610056 0.970266 4.467937 0
M  V30 19 C -1.482313 0.941840 3.401058 0
M  V30 20 N -2.769634 0.564283 3.270547 0
M  V30 21 N -3.138269 0.742442 1.998819 0
M  V30 22 C -2.080285 1.232480 1.331816 0
M  V30 23 C -1.006453 1.380682 2.159938 0
M  V30 24 C 0.888428 0.629173 -1.091808 0
M  V30 25 C 0.845972 -0.433134 -0.216973 0
M  V30 26 C 1.398615 -2.913608 1.465101 0
M  V30 27 C 1.385201 -4.007533 2.299135 0
M  V30 28 Cl 2.014107 -3.972348 3.949223 0
M  V30 29 H -0.076976 -6.160455 0.104320 0
M  V30 30 H -0.013939 -4.206880 -1.289555 0
M  V30 31 H 1.205382 -3.014987 -2.428980 0
M  V30 32 H 1.284108 -1.156784 -3.983461 0
M  V30 33 H 1.056156 3.448807 -3.491732 0
M  V30 34 H 0.774764 3.282853 0.997558 0
M  V30 35 H 2.183919 2.208459 2.955018 0
M  V30 36 H 1.388261 1.430246 5.215582 0
M  V30 37 H -0.973727 0.632521 5.426730 0
M  V30 38 H -3.416816 0.189375 4.004161 0
M  V30 39 H -2.070130 1.480865 0.278486 0
M  V30 40 H 0.743175 -0.286476 0.841449 0
M  V30 41 H 1.830741 -2.001870 1.895847 0
M  V30 END ATOM
M  V30 BEGIN BOND
M  V30 1 1 1 2
M  V30 2 2 2 3
M  V30 3 1 3 4
M  V30 4 2 4 5
M  V30 5 1 5 6
M  V30 6 2 6 7
M  V30 7 1 7 8
M  V30 8 2 8 9
M  V30 9 1 9 10
M  V30 10 2 10 11
M  V30 11 1 11 12
M  V30 12 2 12 13
M  V30 13 1 13 14
M  V30 14 1 14 15
M  V30 15 2 15 16
M  V30 16 1 16 17
M  V30 17 2 17 18
M  V30 18 1 18 19
M  V30 19 1 19 20
M  V30 20 1 20 21
M  V30 21 2 21 22
M  V30 22 1 22 23
M  V30 23 1 13 24
M  V30 24 2 24 25
M  V30 25 1 5 26
M  V30 26 2 26 27
M  V30 27 1 27 28
M  V30 28 1 27 2
M  V30 29 1 25 6
M  V30 30 1 24 9
M  V30 31 1 23 15
M  V30 32 2 23 19
M  V30 33 1 3 29
M  V30 34 1 4 30
M  V30 35 1 7 31
M  V30 36 1 8 32
M  V30 37 1 11 33
M  V30 38 1 14 34
M  V30 39 1 16 35
M  V30 40 1 17 36
M  V30 41 1 18 37
M  V30 42 1 20 38
M  V30 43 1 22 39
M  V30 44 1 25 40
M  V30 45 1 26 41
M  V30 END BOND
M  V30 END CTAB
M  END
>  <Dataset>  (653) 
ChEMBL_Kinases

>  <Ligand_Instance>  (653) 
nan

>  <PDB_ID>  (653) 
nan

>  <Standardized_SMILES>  (653) 
Fc1ccc(-c2ccc3ncnc(Nc4cccc5[nH]ncc45)c3c2)cc1Cl

>  <Name>  (653) 
nan

>  <Pocket>  (653) 
nan

>  <ATP_Site>  (653) 
nan

>  <Peripheral>  (653) 
nan

>  <Num_H_Atoms_ProtBoundConf>  (653) 
nan

>  <Num_Resolved_Atoms>  (653) 
nan

>  <Num_Not_Resolved_Atoms>  (653) 
nan

$$$$
CHEMBL3661257
     RDKit          3D

  0  0  0  0  0  0  0  0  0  0999 V3000
M  V30 BEGIN CTAB
M  V30 COUNTS 41 45 0 0 0
M  V30 BEGIN ATOM
M  V30 1 Cl 2.621198 -5.753362 3.426363 0
M  V30 2 C 2.260215 -4.569647 2.191789 0
M  V30 3 C 1.228290 -3.645113 2.380009 0
M  V30 4 C 0.869720 -2.679861 1.473420 0
M  V30 5 C 1.572015 -2.600578 0.275199 0
M  V30 6 C 1.232857 -1.596616 -0.718301 0
M  V30 7 C 1.400326 -1.828451 -2.067444 0
M  V30 8 C 1.088600 -0.897617 -3.028692 0
M  V30 9 C 0.592047 0.298261 -2.577484 0
M  V30 10 N 0.284402 1.247565 -3.470079 0
M  V30 11 C -0.188590 2.425582 -3.049148 0
M  V30 12 N -0.380178 2.723628 -1.758961 0
M  V30 13 C -0.092633 1.810585 -0.784090 0
M  V30 14 N -0.299740 2.158936 0.542756 0
M  V30 15 C -0.372704 1.727479 1.867944 0
M  V30 16 C 0.491726 2.114124 2.901886 0
M  V30 17 C 0.343043 1.666843 4.195876 0
M  V30 18 C -0.705218 0.811303 4.439211 0
M  V30 19 C -1.617912 0.361254 3.511395 0
M  V30 20 N -2.684510 -0.444402 3.506281 0
M  V30 21 N -3.153100 -0.474179 2.249268 0
M  V30 22 C -2.406139 0.294175 1.462929 0
M  V30 23 C -1.404534 0.850356 2.243469 0
M  V30 24 C 0.392334 0.614123 -1.254456 0
M  V30 25 C 0.729491 -0.369452 -0.358229 0
M  V30 26 C 2.593411 -3.504744 0.072019 0
M  V30 27 C 2.945992 -4.469206 0.987073 0
M  V30 28 H 0.695692 -3.731016 3.325732 0
M  V30 29 H 0.060615 -2.011056 1.706118 0
M  V30 30 H 1.794063 -2.778087 -2.398236 0
M  V30 31 H 1.222054 -1.083825 -4.099880 0
M  V30 32 H -0.440188 3.201061 -3.769136 0
M  V30 33 H -0.503170 3.185680 0.736367 0
M  V30 34 H 1.261091 2.787037 2.553710 0
M  V30 35 H 1.042758 2.002705 4.939392 0
M  V30 36 H -0.798907 0.475483 5.464260 0
M  V30 37 H -3.065454 -0.947998 4.339816 0
M  V30 38 H -2.604959 0.419093 0.395797 0
M  V30 39 H 0.622160 -0.202706 0.697434 0
M  V30 40 H 3.183110 -3.494034 -0.848464 0
M  V30 41 H 3.743561 -5.189373 0.852171 0
M  V30 END ATOM
M  V30 BEGIN BOND
M  V30 1 1 1 2
M  V30 2 2 2 3
M  V30 3 1 3 4
M  V30 4 2 4 5
M  V30 5 1 5 6
M  V30 6 2 6 7
M  V30 7 1 7 8
M  V30 8 2 8 9
M  V30 9 1 9 10
M  V30 10 2 10 11
M  V30 11 1 11 12
M  V30 12 2 12 13
M  V30 13 1 13 14
M  V30 14 1 14 15
M  V30 15 2 15 16
M  V30 16 1 16 17
M  V30 17 2 17 18
M  V30 18 1 18 19
M  V30 19 1 19 20
M  V30 20 1 20 21
M  V30 21 2 21 22
M  V30 22 1 22 23
M  V30 23 1 13 24
M  V30 24 2 24 25
M  V30 25 1 5 26
M  V30 26 2 26 27
M  V30 27 1 27 2
M  V30 28 1 25 6
M  V30 29 1 24 9
M  V30 30 1 23 15
M  V30 31 2 23 19
M  V30 32 1 3 28
M  V30 33 1 4 29
M  V30 34 1 7 30
M  V30 35 1 8 31
M  V30 36 1 11 32
M  V30 37 1 14 33
M  V30 38 1 16 34
M  V30 39 1 17 35
M  V30 40 1 18 36
M  V30 41 1 20 37
M  V30 42 1 22 38
M  V30 43 1 25 39
M  V30 44 1 26 40
M  V30 45 1 27 41
M  V30 END BOND
M  V30 END CTAB
M  END
>  <Dataset>  (654) 
ChEMBL_Kinases

>  <Ligand_Instance>  (654) 
nan

>  <PDB_ID>  (654) 
nan

>  <Standardized_SMILES>  (654) 
Clc1ccc(-c2ccc3ncnc(Nc4cccc5[nH]ncc45)c3c2)cc1

>  <Name>  (654) 
nan

>  <Pocket>  (654) 
nan

>  <ATP_Site>  (654) 
nan

>  <Peripheral>  (654) 
nan

>  <Num_H_Atoms_ProtBoundConf>  (654) 
nan

>  <Num_Resolved_Atoms>  (654) 
nan

>  <Num_Not_Resolved_Atoms>  (654) 
nan

$$$$
CHEMBL3661249
     RDKit          3D

  0  0  0  0  0  0  0  0  0  0999 V3000
M  V30 BEGIN CTAB
M  V30 COUNTS 47 50 0 0 0
M  V30 BEGIN ATOM
M  V30 1 C 2.407800 -2.249686 2.969582 0
M  V30 2 S 3.788696 -2.805867 2.004148 0
M  V30 3 O 4.737490 -3.602529 2.897246 0
M  V30 4 O 3.296045 -3.645387 0.860809 0
M  V30 5 N 4.721659 -1.521143 1.357176 0
M  V30 6 C 4.386016 -0.474434 0.447860 0
M  V30 7 C 5.192366 0.011052 -0.558260 0
M  V30 8 C 4.720201 1.072022 -1.337414 0
M  V30 9 C 3.486173 1.648797 -1.143544 0
M  V30 10 C 2.639010 1.189997 -0.139629 0
M  V30 11 C 1.301059 1.739310 0.154659 0
M  V30 12 C 1.001990 3.079429 0.025563 0
M  V30 13 C -0.317554 3.464251 0.267482 0
M  V30 14 C -1.234098 2.502078 0.614934 0
M  V30 15 N -2.529819 2.848995 0.835659 0
M  V30 16 C -3.451241 1.932608 1.154876 0
M  V30 17 N -3.113929 0.645024 1.264715 0
M  V30 18 C -1.836214 0.210409 1.062117 0
M  V30 19 N -1.583674 -1.199044 1.156508 0
M  V30 20 C -2.719960 -2.049729 1.229015 0
M  V30 21 C -2.891895 -3.158116 2.025305 0
M  V30 22 C -4.079187 -3.867974 1.925798 0
M  V30 23 C -5.083160 -3.495232 1.058861 0
M  V30 24 C -4.948148 -2.391121 0.245557 0
M  V30 25 O -5.948073 -1.975646 -0.652344 0
M  V30 26 C -3.754705 -1.694468 0.357397 0
M  V30 27 C -0.889937 1.157275 0.735316 0
M  V30 28 C 0.409741 0.735105 0.504902 0
M  V30 29 C 3.171948 0.127332 0.604061 0
M  V30 30 H 1.484471 -2.129223 2.388147 0
M  V30 31 H 2.593302 -1.308367 3.516734 0
M  V30 32 H 2.183856 -3.033887 3.751747 0
M  V30 33 H 5.742069 -1.369214 1.603313 0
M  V30 34 H 6.147686 -0.441939 -0.708450 0
M  V30 35 H 5.346430 1.473900 -2.140264 0
M  V30 36 H 3.117354 2.478116 -1.743816 0
M  V30 37 H 1.767599 3.793938 -0.250296 0
M  V30 38 H -0.621763 4.485963 0.182497 0
M  V30 39 H -4.513772 2.110976 1.350847 0
M  V30 40 H -0.690158 -1.701408 1.173889 0
M  V30 41 H -2.073752 -3.400059 2.682181 0
M  V30 42 H -4.214329 -4.749316 2.559890 0
M  V30 43 H -6.025678 -4.058048 0.984422 0
M  V30 44 H -5.968788 -0.973798 -0.799497 0
M  V30 45 H -3.723543 -0.839564 -0.344342 0
M  V30 46 H 0.650691 -0.295658 0.599257 0
M  V30 47 H 2.509810 -0.219989 1.386985 0
M  V30 END ATOM
M  V30 BEGIN BOND
M  V30 1 1 1 2
M  V30 2 2 2 3
M  V30 3 2 2 4
M  V30 4 1 2 5
M  V30 5 1 5 6
M  V30 6 2 6 7
M  V30 7 1 7 8
M  V30 8 2 8 9
M  V30 9 1 9 10
M  V30 10 1 10 11
M  V30 11 2 11 12
M  V30 12 1 12 13
M  V30 13 2 13 14
M  V30 14 1 14 15
M  V30 15 2 15 16
M  V30 16 1 16 17
M  V30 17 2 17 18
M  V30 18 1 18 19
M  V30 19 1 19 20
M  V30 20 2 20 21
M  V30 21 1 21 22
M  V30 22 2 22 23
M  V30 23 1 23 24
M  V30 24 1 24 25
M  V30 25 2 24 26
M  V30 26 1 18 27
M  V30 27 2 27 28
M  V30 28 2 10 29
M  V30 29 1 29 6
M  V30 30 1 28 11
M  V30 31 1 27 14
M  V30 32 1 26 20
M  V30 33 1 1 30
M  V30 34 1 1 31
M  V30 35 1 1 32
M  V30 36 1 5 33
M  V30 37 1 7 34
M  V30 38 1 8 35
M  V30 39 1 9 36
M  V30 40 1 12 37
M  V30 41 1 13 38
M  V30 42 1 16 39
M  V30 43 1 19 40
M  V30 44 1 21 41
M  V30 45 1 22 42
M  V30 46 1 23 43
M  V30 47 1 25 44
M  V30 48 1 26 45
M  V30 49 1 28 46
M  V30 50 1 29 47
M  V30 END BOND
M  V30 END CTAB
M  END
>  <Dataset>  (655) 
ChEMBL_Kinases

>  <Ligand_Instance>  (655) 
nan

>  <PDB_ID>  (655) 
nan

>  <Standardized_SMILES>  (655) 
CS(=O)(=O)Nc1cccc(-c2ccc3ncnc(Nc4cccc(O)c4)c3c2)c1

>  <Name>  (655) 
nan

>  <Pocket>  (655) 
nan

>  <ATP_Site>  (655) 
nan

>  <Peripheral>  (655) 
nan

>  <Num_H_Atoms_ProtBoundConf>  (655) 
nan

>  <Num_Resolved_Atoms>  (655) 
nan

>  <Num_Not_Resolved_Atoms>  (655) 
nan

$$$$
CHEMBL3660078
     RDKit          3D

  0  0  0  0  0  0  0  0  0  0999 V3000
M  V30 BEGIN CTAB
M  V30 COUNTS 55 60 0 0 0
M  V30 BEGIN ATOM
M  V30 1 F 1.313736 -2.312970 -1.040814 0
M  V30 2 C 2.511677 -1.747682 -1.415077 0
M  V30 3 C 3.642257 -2.703127 -1.134587 0
M  V30 4 N 3.664969 -3.116898 0.236929 0
M  V30 5 C 3.012904 -2.172683 1.114643 0
M  V30 6 C 3.280613 -0.743356 0.718268 0
M  V30 7 C 2.775510 -0.434486 -0.699347 0
M  V30 8 O 1.618855 0.305378 -0.563206 0
M  V30 9 C 1.347901 1.583088 -1.006965 0
M  V30 10 C 2.323325 2.301961 -1.692290 0
M  V30 11 C 2.122992 3.583299 -2.164416 0
M  V30 12 C 0.896107 4.205585 -1.957188 0
M  V30 13 C -0.065768 3.472913 -1.271241 0
M  V30 14 C -1.270549 4.121967 -1.084637 0
M  V30 15 C -2.229522 3.401558 -0.405742 0
M  V30 16 C -2.062304 2.105027 0.085599 0
M  V30 17 C -3.195289 1.504956 0.776936 0
M  V30 18 N -4.390494 2.066943 0.997989 0
M  V30 19 N -5.178705 1.235473 1.651823 0
M  V30 20 C -4.499731 0.099843 1.871458 0
M  V30 21 C -4.967875 -1.015098 2.521425 0
M  V30 22 C -4.078718 -2.068704 2.624579 0
M  V30 23 C -2.807018 -1.901112 2.066100 0
M  V30 24 C -1.953765 -3.072296 2.231608 0
M  V30 25 C -2.518816 -4.331683 2.244497 0
M  V30 26 C -1.782938 -5.509163 2.402328 0
M  V30 27 C -0.416931 -5.411354 2.553662 0
M  V30 28 C 0.167383 -4.163893 2.543603 0
M  V30 29 C -0.591232 -3.005833 2.384367 0
M  V30 30 C -2.438737 -0.742011 1.435890 0
M  V30 31 N -3.300150 0.285372 1.332863 0
M  V30 32 N -0.866978 1.530587 -0.129220 0
M  V30 33 C 0.126169 2.172535 -0.787725 0
M  V30 34 H 2.504448 -1.600712 -2.516559 0
M  V30 35 H 4.610883 -2.241554 -1.416238 0
M  V30 36 H 3.564416 -3.617205 -1.758912 0
M  V30 37 H 3.106091 -4.016120 0.342769 0
M  V30 38 H 3.473054 -2.303644 2.112349 0
M  V30 39 H 1.931262 -2.320154 1.162819 0
M  V30 40 H 4.373403 -0.503956 0.788031 0
M  V30 41 H 2.786038 -0.091469 1.466668 0
M  V30 42 H 3.590235 0.064269 -1.265089 0
M  V30 43 H 3.296703 1.943613 -1.912766 0
M  V30 44 H 2.861702 4.163358 -2.698331 0
M  V30 45 H 0.703749 5.196558 -2.307715 0
M  V30 46 H -1.488041 5.124828 -1.430311 0
M  V30 47 H -3.182883 3.901698 -0.251744 0
M  V30 48 H -5.956460 -1.096290 2.935070 0
M  V30 49 H -4.419295 -2.968763 3.135379 0
M  V30 50 H -3.575497 -4.523044 2.133632 0
M  V30 51 H -2.233463 -6.490796 2.411460 0
M  V30 52 H 0.168757 -6.330445 2.678418 0
M  V30 53 H 1.242670 -4.082890 2.662456 0
M  V30 54 H -0.152566 -2.013590 2.372908 0
M  V30 55 H -1.449003 -0.658764 1.020843 0
M  V30 END ATOM
M  V30 BEGIN BOND
M  V30 1 1 1 2
M  V30 2 1 2 3
M  V30 3 1 3 4
M  V30 4 1 4 5
M  V30 5 1 5 6
M  V30 6 1 6 7
M  V30 7 1 7 8
M  V30 8 1 8 9
M  V30 9 2 9 10
M  V30 10 1 10 11
M  V30 11 2 11 12
M  V30 12 1 12 13
M  V30 13 2 13 14
M  V30 14 1 14 15
M  V30 15 2 15 16
M  V30 16 1 16 17
M  V30 17 2 17 18
M  V30 18 1 18 19
M  V30 19 2 19 20
M  V30 20 1 20 21
M  V30 21 2 21 22
M  V30 22 1 22 23
M  V30 23 1 23 24
M  V30 24 2 24 25
M  V30 25 1 25 26
M  V30 26 2 26 27
M  V30 27 1 27 28
M  V30 28 2 28 29
M  V30 29 2 23 30
M  V30 30 1 30 31
M  V30 31 1 16 32
M  V30 32 2 32 33
M  V30 33 1 7 2
M  V30 34 1 33 9
M  V30 35 1 33 13
M  V30 36 1 31 17
M  V30 37 1 31 20
M  V30 38 1 29 24
M  V30 39 1 2 34
M  V30 40 1 3 35
M  V30 41 1 3 36
M  V30 42 1 4 37
M  V30 43 1 5 38
M  V30 44 1 5 39
M  V30 45 1 6 40
M  V30 46 1 6 41
M  V30 47 1 7 42
M  V30 48 1 10 43
M  V30 49 1 11 44
M  V30 50 1 12 45
M  V30 51 1 14 46
M  V30 52 1 15 47
M  V30 53 1 21 48
M  V30 54 1 22 49
M  V30 55 1 25 50
M  V30 56 1 26 51
M  V30 57 1 27 52
M  V30 58 1 28 53
M  V30 59 1 29 54
M  V30 60 1 30 55
M  V30 END BOND
M  V30 END CTAB
M  END
>  <Dataset>  (656) 
ChEMBL_Kinases

>  <Ligand_Instance>  (656) 
nan

>  <PDB_ID>  (656) 
nan

>  <Standardized_SMILES>  (656) 
FC1CNCCC1Oc1cccc2ccc(-c3nnc4ccc(-c5ccccc5)cn34)nc12

>  <Name>  (656) 
nan

>  <Pocket>  (656) 
nan

>  <ATP_Site>  (656) 
nan

>  <Peripheral>  (656) 
nan

>  <Num_H_Atoms_ProtBoundConf>  (656) 
nan

>  <Num_Resolved_Atoms>  (656) 
nan

>  <Num_Not_Resolved_Atoms>  (656) 
nan

$$$$
CHEMBL3660077
     RDKit          3D

  0  0  0  0  0  0  0  0  0  0999 V3000
M  V30 BEGIN CTAB
M  V30 COUNTS 58 63 0 0 0
M  V30 BEGIN ATOM
M  V30 1 F -0.360503 -3.418906 0.414911 0
M  V30 2 C 0.498805 -3.404075 -0.661361 0
M  V30 3 C 1.857509 -2.972847 -0.146657 0
M  V30 4 O 1.799575 -1.684485 0.440078 0
M  V30 5 C 2.959294 -1.086532 0.972866 0
M  V30 6 C 4.149522 -1.792022 0.902640 0
M  V30 7 C 5.344901 -1.307593 1.388188 0
M  V30 8 C 5.336863 -0.058392 1.968655 0
M  V30 9 C 4.152554 0.649631 2.041599 0
M  V30 10 C 4.189578 1.896388 2.630279 0
M  V30 11 C 2.979122 2.556831 2.675371 0
M  V30 12 C 1.771534 2.092913 2.197648 0
M  V30 13 C 0.588962 2.930305 2.343370 0
M  V30 14 N 0.555013 4.177385 2.894592 0
M  V30 15 N -0.687399 4.628068 2.863203 0
M  V30 16 C -1.465575 3.700357 2.302800 0
M  V30 17 C -2.825656 3.787452 2.090947 0
M  V30 18 C -3.428358 2.682357 1.489253 0
M  V30 19 C -2.602697 1.613465 1.166787 0
M  V30 20 C -3.319222 0.504515 0.548783 0
M  V30 21 C -4.429019 0.634432 -0.258398 0
M  V30 22 C -4.972268 -0.537847 -0.744068 0
M  V30 23 C -4.459290 -1.781744 -0.457694 0
M  V30 24 C -3.346707 -1.884421 0.353464 0
M  V30 25 C -2.782564 -0.730522 0.853053 0
M  V30 26 C -1.245613 1.584584 1.403356 0
M  V30 27 N -0.680723 2.656122 1.983067 0
M  V30 28 N 1.791145 0.868336 1.631361 0
M  V30 29 C 2.958230 0.160546 1.554388 0
M  V30 30 C 0.558611 -4.810383 -1.197814 0
M  V30 31 C -0.806784 -5.148248 -1.757102 0
M  V30 32 N -0.960324 -4.315903 -2.954059 0
M  V30 33 C -1.068772 -2.945379 -2.564213 0
M  V30 34 C 0.015536 -2.431553 -1.682062 0
M  V30 35 H 2.150560 -3.716790 0.646763 0
M  V30 36 H 2.647587 -3.013250 -0.913394 0
M  V30 37 H 4.156286 -2.773968 0.446258 0
M  V30 38 H 6.241531 -1.919572 1.298018 0
M  V30 39 H 6.267250 0.339899 2.356234 0
M  V30 40 H 5.084748 2.350170 3.035530 0
M  V30 41 H 3.001280 3.549020 3.141876 0
M  V30 42 H -3.402090 4.658200 2.371572 0
M  V30 43 H -4.489724 2.707435 1.304880 0
M  V30 44 H -4.792929 1.633942 -0.453020 0
M  V30 45 H -5.858322 -0.442039 -1.388947 0
M  V30 46 H -4.938993 -2.661631 -0.875326 0
M  V30 47 H -3.006734 -2.899270 0.529313 0
M  V30 48 H -1.912636 -0.898126 1.480919 0
M  V30 49 H -0.658671 0.736436 1.134508 0
M  V30 50 H 1.360357 -4.888873 -1.976025 0
M  V30 51 H 0.783197 -5.519982 -0.381770 0
M  V30 52 H -0.944891 -6.214451 -1.993489 0
M  V30 53 H -1.558142 -4.743259 -1.041370 0
M  V30 54 H -1.797279 -4.548984 -3.509617 0
M  V30 55 H -2.066275 -2.706124 -2.104125 0
M  V30 56 H -1.040146 -2.346445 -3.523545 0
M  V30 57 H 0.854876 -1.979447 -2.272776 0
M  V30 58 H -0.401512 -1.553573 -1.112435 0
M  V30 END ATOM
M  V30 BEGIN BOND
M  V30 1 1 1 2
M  V30 2 1 2 3
M  V30 3 1 3 4
M  V30 4 1 4 5
M  V30 5 2 5 6
M  V30 6 1 6 7
M  V30 7 2 7 8
M  V30 8 1 8 9
M  V30 9 2 9 10
M  V30 10 1 10 11
M  V30 11 2 11 12
M  V30 12 1 12 13
M  V30 13 2 13 14
M  V30 14 1 14 15
M  V30 15 2 15 16
M  V30 16 1 16 17
M  V30 17 2 17 18
M  V30 18 1 18 19
M  V30 19 1 19 20
M  V30 20 2 20 21
M  V30 21 1 21 22
M  V30 22 2 22 23
M  V30 23 1 23 24
M  V30 24 2 24 25
M  V30 25 2 19 26
M  V30 26 1 26 27
M  V30 27 1 12 28
M  V30 28 2 28 29
M  V30 29 1 2 30
M  V30 30 1 30 31
M  V30 31 1 31 32
M  V30 32 1 32 33
M  V30 33 1 33 34
M  V30 34 1 34 2
M  V30 35 1 29 5
M  V30 36 1 29 9
M  V30 37 1 27 13
M  V30 38 1 27 16
M  V30 39 1 25 20
M  V30 40 1 3 35
M  V30 41 1 3 36
M  V30 42 1 6 37
M  V30 43 1 7 38
M  V30 44 1 8 39
M  V30 45 1 10 40
M  V30 46 1 11 41
M  V30 47 1 17 42
M  V30 48 1 18 43
M  V30 49 1 21 44
M  V30 50 1 22 45
M  V30 51 1 23 46
M  V30 52 1 24 47
M  V30 53 1 25 48
M  V30 54 1 26 49
M  V30 55 1 30 50
M  V30 56 1 30 51
M  V30 57 1 31 52
M  V30 58 1 31 53
M  V30 59 1 32 54
M  V30 60 1 33 55
M  V30 61 1 33 56
M  V30 62 1 34 57
M  V30 63 1 34 58
M  V30 END BOND
M  V30 END CTAB
M  END
>  <Dataset>  (657) 
ChEMBL_Kinases

>  <Ligand_Instance>  (657) 
nan

>  <PDB_ID>  (657) 
nan

>  <Standardized_SMILES>  (657) 
FC1(COc2cccc3ccc(-c4nnc5ccc(-c6ccccc6)cn45)nc23)CCNCC1

>  <Name>  (657) 
nan

>  <Pocket>  (657) 
nan

>  <ATP_Site>  (657) 
nan

>  <Peripheral>  (657) 
nan

>  <Num_H_Atoms_ProtBoundConf>  (657) 
nan

>  <Num_Resolved_Atoms>  (657) 
nan

>  <Num_Not_Resolved_Atoms>  (657) 
nan

$$$$
CHEMBL3660076
     RDKit          3D

  0  0  0  0  0  0  0  0  0  0999 V3000
M  V30 BEGIN CTAB
M  V30 COUNTS 52 57 0 0 0
M  V30 BEGIN ATOM
M  V30 1 F 2.016205 -2.049856 -2.166237 0
M  V30 2 C 2.110544 -2.462945 -0.869805 0
M  V30 3 C 3.524756 -2.766426 -0.428345 0
M  V30 4 N 3.855501 -2.189061 0.840486 0
M  V30 5 C 2.879924 -2.437783 1.880958 0
M  V30 6 C 1.471681 -2.100870 1.434666 0
M  V30 7 C 1.611151 -1.369001 0.088783 0
M  V30 8 O 2.562081 -0.368400 0.159004 0
M  V30 9 C 2.424504 0.970193 0.162739 0
M  V30 10 C 3.681947 1.554904 0.108956 0
M  V30 11 C 3.907007 2.937503 0.094692 0
M  V30 12 C 2.798346 3.777312 0.137428 0
M  V30 13 C 1.556522 3.184184 0.192104 0
M  V30 14 C 0.430987 3.951047 0.250777 0
M  V30 15 C -0.775866 3.319091 0.319548 0
M  V30 16 C -0.988256 1.950071 0.337195 0
M  V30 17 C -2.375484 1.546842 0.463220 0
M  V30 18 N -3.445042 2.357670 0.441738 0
M  V30 19 N -4.569308 1.702131 0.599288 0
M  V30 20 C -4.287329 0.397607 0.735956 0
M  V30 21 C -5.070850 -0.718308 0.932877 0
M  V30 22 C -4.512875 -1.971814 1.054156 0
M  V30 23 C -3.141131 -2.030607 0.966694 0
M  V30 24 C -2.515436 -3.375674 1.095202 0
M  V30 25 C -3.174793 -4.377639 1.974796 0
M  V30 26 C -3.226537 -4.527491 0.476472 0
M  V30 27 C -2.425705 -0.872677 0.768828 0
M  V30 28 N -2.950641 0.352733 0.647637 0
M  V30 29 N 0.145606 1.233409 0.275886 0
M  V30 30 C 1.353437 1.822556 0.206070 0
M  V30 31 H 1.479344 -3.377134 -0.699179 0
M  V30 32 H 4.236749 -2.331944 -1.169025 0
M  V30 33 H 3.661709 -3.878188 -0.412408 0
M  V30 34 H 4.745125 -2.637874 1.170363 0
M  V30 35 H 2.939687 -3.487243 2.246764 0
M  V30 36 H 3.181294 -1.776246 2.733458 0
M  V30 37 H 0.958646 -3.062647 1.200231 0
M  V30 38 H 0.910179 -1.490234 2.167033 0
M  V30 39 H 0.631516 -0.987840 -0.241886 0
M  V30 40 H 4.646073 1.057256 0.071197 0
M  V30 41 H 4.844117 3.439799 0.054005 0
M  V30 42 H 2.878516 4.855281 0.129196 0
M  V30 43 H 0.557402 5.013970 0.239891 0
M  V30 44 H -1.604993 4.031365 0.361842 0
M  V30 45 H -6.136559 -0.589037 0.990415 0
M  V30 46 H -5.134906 -2.824325 1.205952 0
M  V30 47 H -1.405413 -3.432045 1.022281 0
M  V30 48 H -4.121661 -4.078470 2.500622 0
M  V30 49 H -2.521789 -5.107413 2.508317 0
M  V30 50 H -2.642280 -5.315549 -0.037481 0
M  V30 51 H -4.236864 -4.354987 0.033152 0
M  V30 52 H -1.372502 -1.001743 0.727178 0
M  V30 END ATOM
M  V30 BEGIN BOND
M  V30 1 1 1 2
M  V30 2 1 2 3
M  V30 3 1 3 4
M  V30 4 1 4 5
M  V30 5 1 5 6
M  V30 6 1 6 7
M  V30 7 1 7 8
M  V30 8 1 8 9
M  V30 9 2 9 10
M  V30 10 1 10 11
M  V30 11 2 11 12
M  V30 12 1 12 13
M  V30 13 2 13 14
M  V30 14 1 14 15
M  V30 15 2 15 16
M  V30 16 1 16 17
M  V30 17 2 17 18
M  V30 18 1 18 19
M  V30 19 2 19 20
M  V30 20 1 20 21
M  V30 21 2 21 22
M  V30 22 1 22 23
M  V30 23 1 23 24
M  V30 24 1 24 25
M  V30 25 1 25 26
M  V30 26 2 23 27
M  V30 27 1 27 28
M  V30 28 1 16 29
M  V30 29 2 29 30
M  V30 30 1 7 2
M  V30 31 1 30 9
M  V30 32 1 30 13
M  V30 33 1 28 17
M  V30 34 1 28 20
M  V30 35 1 26 24
M  V30 36 1 2 31
M  V30 37 1 3 32
M  V30 38 1 3 33
M  V30 39 1 4 34
M  V30 40 1 5 35
M  V30 41 1 5 36
M  V30 42 1 6 37
M  V30 43 1 6 38
M  V30 44 1 7 39
M  V30 45 1 10 40
M  V30 46 1 11 41
M  V30 47 1 12 42
M  V30 48 1 14 43
M  V30 49 1 15 44
M  V30 50 1 21 45
M  V30 51 1 22 46
M  V30 52 1 24 47
M  V30 53 1 25 48
M  V30 54 1 25 49
M  V30 55 1 26 50
M  V30 56 1 26 51
M  V30 57 1 27 52
M  V30 END BOND
M  V30 END CTAB
M  END
>  <Dataset>  (658) 
ChEMBL_Kinases

>  <Ligand_Instance>  (658) 
nan

>  <PDB_ID>  (658) 
nan

>  <Standardized_SMILES>  (658) 
FC1CNCCC1Oc1cccc2ccc(-c3nnc4ccc(C5CC5)cn34)nc12

>  <Name>  (658) 
nan

>  <Pocket>  (658) 
nan

>  <ATP_Site>  (658) 
nan

>  <Peripheral>  (658) 
nan

>  <Num_H_Atoms_ProtBoundConf>  (658) 
nan

>  <Num_Resolved_Atoms>  (658) 
nan

>  <Num_Not_Resolved_Atoms>  (658) 
nan

$$$$
CHEMBL3660075
     RDKit          3D

  0  0  0  0  0  0  0  0  0  0999 V3000
M  V30 BEGIN CTAB
M  V30 COUNTS 55 60 0 0 0
M  V30 BEGIN ATOM
M  V30 1 F -0.406587 -3.277726 0.946723 0
M  V30 2 C -0.615391 -3.363050 -0.423605 0
M  V30 3 C 0.687228 -3.128229 -1.141300 0
M  V30 4 O 1.111753 -1.832728 -0.768434 0
M  V30 5 C 2.280831 -1.251431 -1.228117 0
M  V30 6 C 3.089821 -1.979494 -2.108851 0
M  V30 7 C 4.274692 -1.526868 -2.642703 0
M  V30 8 C 4.691915 -0.245292 -2.272089 0
M  V30 9 C 3.915272 0.498307 -1.404350 0
M  V30 10 C 4.354351 1.760046 -1.057620 0
M  V30 11 C 3.535553 2.467059 -0.181087 0
M  V30 12 C 2.349062 1.983074 0.338195 0
M  V30 13 C 1.594170 2.839411 1.248130 0
M  V30 14 N 1.922362 4.093355 1.662006 0
M  V30 15 N 0.978467 4.525153 2.481746 0
M  V30 16 C 0.032436 3.562670 2.608831 0
M  V30 17 C -1.114068 3.621205 3.372610 0
M  V30 18 C -1.929376 2.516423 3.345120 0
M  V30 19 C -1.562835 1.439821 2.574366 0
M  V30 20 C -2.462655 0.266970 2.567161 0
M  V30 21 C -3.073679 -0.135402 3.907131 0
M  V30 22 C -3.937606 0.444450 2.849288 0
M  V30 23 C -0.394518 1.431110 1.821407 0
M  V30 24 N 0.414348 2.515677 1.842964 0
M  V30 25 N 1.957554 0.739033 -0.030204 0
M  V30 26 C 2.730810 0.009054 -0.888994 0
M  V30 27 C -1.155194 -4.760209 -0.657112 0
M  V30 28 C -2.132980 -5.033929 0.487169 0
M  V30 29 N -2.953408 -3.874350 0.699018 0
M  V30 30 C -3.021748 -3.006016 -0.447101 0
M  V30 31 C -1.682698 -2.385534 -0.789787 0
M  V30 32 H 1.387590 -3.916142 -0.830679 0
M  V30 33 H 0.493318 -3.224119 -2.226836 0
M  V30 34 H 2.742070 -2.986013 -2.387053 0
M  V30 35 H 4.812937 -2.186484 -3.315894 0
M  V30 36 H 5.622205 0.110465 -2.691048 0
M  V30 37 H 5.274983 2.177959 -1.439446 0
M  V30 38 H 3.896847 3.455978 0.079672 0
M  V30 39 H -1.352938 4.497020 3.961613 0
M  V30 40 H -2.830819 2.569589 3.949195 0
M  V30 41 H -2.156924 -0.603160 1.938049 0
M  V30 42 H -2.801746 0.533201 4.763182 0
M  V30 43 H -3.149516 -1.191108 4.182364 0
M  V30 44 H -4.601851 -0.288273 2.343594 0
M  V30 45 H -4.254295 1.487182 2.967431 0
M  V30 46 H -0.115560 0.573917 1.215982 0
M  V30 47 H -0.301889 -5.469095 -0.637347 0
M  V30 48 H -1.743277 -4.815901 -1.589705 0
M  V30 49 H -2.753608 -5.940408 0.250104 0
M  V30 50 H -1.498716 -5.197049 1.395078 0
M  V30 51 H -3.893712 -4.073415 1.051204 0
M  V30 52 H -3.377521 -3.626343 -1.314434 0
M  V30 53 H -3.756108 -2.207837 -0.201159 0
M  V30 54 H -1.668699 -2.078410 -1.858107 0
M  V30 55 H -1.505568 -1.455050 -0.209024 0
M  V30 END ATOM
M  V30 BEGIN BOND
M  V30 1 1 1 2
M  V30 2 1 2 3
M  V30 3 1 3 4
M  V30 4 1 4 5
M  V30 5 2 5 6
M  V30 6 1 6 7
M  V30 7 2 7 8
M  V30 8 1 8 9
M  V30 9 2 9 10
M  V30 10 1 10 11
M  V30 11 2 11 12
M  V30 12 1 12 13
M  V30 13 2 13 14
M  V30 14 1 14 15
M  V30 15 2 15 16
M  V30 16 1 16 17
M  V30 17 2 17 18
M  V30 18 1 18 19
M  V30 19 1 19 20
M  V30 20 1 20 21
M  V30 21 1 21 22
M  V30 22 2 19 23
M  V30 23 1 23 24
M  V30 24 1 12 25
M  V30 25 2 25 26
M  V30 26 1 2 27
M  V30 27 1 27 28
M  V30 28 1 28 29
M  V30 29 1 29 30
M  V30 30 1 30 31
M  V30 31 1 31 2
M  V30 32 1 26 5
M  V30 33 1 26 9
M  V30 34 1 24 13
M  V30 35 1 24 16
M  V30 36 1 22 20
M  V30 37 1 3 32
M  V30 38 1 3 33
M  V30 39 1 6 34
M  V30 40 1 7 35
M  V30 41 1 8 36
M  V30 42 1 10 37
M  V30 43 1 11 38
M  V30 44 1 17 39
M  V30 45 1 18 40
M  V30 46 1 20 41
M  V30 47 1 21 42
M  V30 48 1 21 43
M  V30 49 1 22 44
M  V30 50 1 22 45
M  V30 51 1 23 46
M  V30 52 1 27 47
M  V30 53 1 27 48
M  V30 54 1 28 49
M  V30 55 1 28 50
M  V30 56 1 29 51
M  V30 57 1 30 52
M  V30 58 1 30 53
M  V30 59 1 31 54
M  V30 60 1 31 55
M  V30 END BOND
M  V30 END CTAB
M  END
>  <Dataset>  (659) 
ChEMBL_Kinases

>  <Ligand_Instance>  (659) 
nan

>  <PDB_ID>  (659) 
nan

>  <Standardized_SMILES>  (659) 
FC1(COc2cccc3ccc(-c4nnc5ccc(C6CC6)cn45)nc23)CCNCC1

>  <Name>  (659) 
nan

>  <Pocket>  (659) 
nan

>  <ATP_Site>  (659) 
nan

>  <Peripheral>  (659) 
nan

>  <Num_H_Atoms_ProtBoundConf>  (659) 
nan

>  <Num_Resolved_Atoms>  (659) 
nan

>  <Num_Not_Resolved_Atoms>  (659) 
nan

$$$$
CHEMBL3660074
     RDKit          3D

  0  0  0  0  0  0  0  0  0  0999 V3000
M  V30 BEGIN CTAB
M  V30 COUNTS 45 49 0 0 0
M  V30 BEGIN ATOM
M  V30 1 F 2.839599 -4.465979 1.910835 0
M  V30 2 C 1.893015 -3.470137 1.734264 0
M  V30 3 C 0.604116 -4.083921 1.304551 0
M  V30 4 N 0.485952 -4.248508 -0.125752 0
M  V30 5 C 0.786576 -3.023483 -0.841078 0
M  V30 6 C 2.278987 -2.821652 -0.670857 0
M  V30 7 C 2.458986 -2.432981 0.804117 0
M  V30 8 O 1.842776 -1.190763 0.913156 0
M  V30 9 C 2.434540 0.021141 1.212915 0
M  V30 10 C 3.776680 0.222001 1.464047 0
M  V30 11 C 4.330557 1.448627 1.760174 0
M  V30 12 C 3.513633 2.559203 1.814796 0
M  V30 13 C 2.157051 2.380073 1.564985 0
M  V30 14 C 1.365957 3.519658 1.628744 0
M  V30 15 C 0.028876 3.293568 1.374242 0
M  V30 16 C -0.548174 2.076214 1.075923 0
M  V30 17 C -1.984269 2.007102 0.832064 0
M  V30 18 N -2.850921 3.035330 0.864624 0
M  V30 19 N -4.065916 2.623367 0.599039 0
M  V30 20 C -4.012204 1.293961 0.384484 0
M  V30 21 C -5.069929 0.465641 0.074433 0
M  V30 22 C -4.770789 -0.869251 -0.101319 0
M  V30 23 C -3.454454 -1.263869 0.045218 0
M  V30 24 Br -3.114762 -3.119401 -0.211382 0
M  V30 25 C -2.443663 -0.358372 0.360641 0
M  V30 26 N -2.720281 0.925603 0.531478 0
M  V30 27 N 0.280708 1.034262 1.034716 0
M  V30 28 C 1.613780 1.131901 1.266951 0
M  V30 29 H 1.756638 -2.976510 2.722635 0
M  V30 30 H 0.553428 -5.111889 1.743349 0
M  V30 31 H -0.260556 -3.530893 1.745659 0
M  V30 32 H -0.427491 -4.657752 -0.339976 0
M  V30 33 H 0.494598 -3.173582 -1.896259 0
M  V30 34 H 0.224166 -2.160790 -0.446891 0
M  V30 35 H 2.630254 -1.922934 -1.243920 0
M  V30 36 H 2.814014 -3.734565 -0.935448 0
M  V30 37 H 3.552642 -2.419136 0.983723 0
M  V30 38 H 4.429565 -0.638612 1.424931 0
M  V30 39 H 5.409914 1.519489 1.946870 0
M  V30 40 H 3.948411 3.518193 2.046606 0
M  V30 41 H 1.758929 4.489830 1.855651 0
M  V30 42 H -0.636496 4.164468 1.413090 0
M  V30 43 H -6.070837 0.832384 -0.025736 0
M  V30 44 H -5.561792 -1.564190 -0.345854 0
M  V30 45 H -1.442981 -0.695847 0.465706 0
M  V30 END ATOM
M  V30 BEGIN BOND
M  V30 1 1 1 2
M  V30 2 1 2 3
M  V30 3 1 3 4
M  V30 4 1 4 5
M  V30 5 1 5 6
M  V30 6 1 6 7
M  V30 7 1 7 8
M  V30 8 1 8 9
M  V30 9 2 9 10
M  V30 10 1 10 11
M  V30 11 2 11 12
M  V30 12 1 12 13
M  V30 13 2 13 14
M  V30 14 1 14 15
M  V30 15 2 15 16
M  V30 16 1 16 17
M  V30 17 2 17 18
M  V30 18 1 18 19
M  V30 19 2 19 20
M  V30 20 1 20 21
M  V30 21 2 21 22
M  V30 22 1 22 23
M  V30 23 1 23 24
M  V30 24 2 23 25
M  V30 25 1 25 26
M  V30 26 1 16 27
M  V30 27 2 27 28
M  V30 28 1 7 2
M  V30 29 1 28 9
M  V30 30 1 28 13
M  V30 31 1 26 17
M  V30 32 1 26 20
M  V30 33 1 2 29
M  V30 34 1 3 30
M  V30 35 1 3 31
M  V30 36 1 4 32
M  V30 37 1 5 33
M  V30 38 1 5 34
M  V30 39 1 6 35
M  V30 40 1 6 36
M  V30 41 1 7 37
M  V30 42 1 10 38
M  V30 43 1 11 39
M  V30 44 1 12 40
M  V30 45 1 14 41
M  V30 46 1 15 42
M  V30 47 1 21 43
M  V30 48 1 22 44
M  V30 49 1 25 45
M  V30 END BOND
M  V30 END CTAB
M  END
>  <Dataset>  (660) 
ChEMBL_Kinases

>  <Ligand_Instance>  (660) 
nan

>  <PDB_ID>  (660) 
nan

>  <Standardized_SMILES>  (660) 
FC1CNCCC1Oc1cccc2ccc(-c3nnc4ccc(Br)cn34)nc12

>  <Name>  (660) 
nan

>  <Pocket>  (660) 
nan

>  <ATP_Site>  (660) 
nan

>  <Peripheral>  (660) 
nan

>  <Num_H_Atoms_ProtBoundConf>  (660) 
nan

>  <Num_Resolved_Atoms>  (660) 
nan

>  <Num_Not_Resolved_Atoms>  (660) 
nan

$$$$
CHEMBL3660073
     RDKit          3D

  0  0  0  0  0  0  0  0  0  0999 V3000
M  V30 BEGIN CTAB
M  V30 COUNTS 48 52 0 0 0
M  V30 BEGIN ATOM
M  V30 1 F -2.371618 -1.709058 0.540155 0
M  V30 2 C -1.433243 -2.713152 0.362603 0
M  V30 3 C -0.074386 -2.252571 0.856211 0
M  V30 4 O 0.386119 -1.167257 0.243416 0
M  V30 5 C 0.784110 -0.599232 -0.880744 0
M  V30 6 C 0.931249 -0.990536 -2.191339 0
M  V30 7 C 1.374831 -0.231403 -3.250250 0
M  V30 8 C 1.699004 1.054350 -2.930237 0
M  V30 9 C 1.601158 1.578727 -1.661270 0
M  V30 10 C 1.968474 2.895998 -1.506021 0
M  V30 11 C 1.876600 3.436784 -0.242028 0
M  V30 12 C 1.426495 2.633206 0.781228 0
M  V30 13 C 1.313641 3.164394 2.134672 0
M  V30 14 N 1.617567 4.418026 2.508046 0
M  V30 15 N 1.398049 4.569580 3.820763 0
M  V30 16 C 0.942740 3.382361 4.295625 0
M  V30 17 C 0.581577 3.050366 5.585133 0
M  V30 18 C 0.140048 1.743464 5.812701 0
M  V30 19 C 0.090722 0.868777 4.747249 0
M  V30 20 Br -0.509668 -0.940594 5.008435 0
M  V30 21 C 0.469795 1.278097 3.484905 0
M  V30 22 N 0.897306 2.532190 3.247628 0
M  V30 23 N 1.087947 1.358688 0.547693 0
M  V30 24 C 1.140323 0.737616 -0.641144 0
M  V30 25 C -1.930637 -3.865937 1.257041 0
M  V30 26 C -1.569075 -5.196486 0.627242 0
M  V30 27 N -2.217783 -5.423819 -0.627707 0
M  V30 28 C -2.631505 -4.183989 -1.231789 0
M  V30 29 C -1.479447 -3.183989 -1.043684 0
M  V30 30 H -0.192490 -2.105433 1.982612 0
M  V30 31 H 0.668411 -3.100892 0.766712 0
M  V30 32 H 0.674055 -2.017884 -2.381294 0
M  V30 33 H 1.434037 -0.687248 -4.225402 0
M  V30 34 H 2.051925 1.676199 -3.746143 0
M  V30 35 H 2.315054 3.484513 -2.339160 0
M  V30 36 H 2.149589 4.454316 -0.068949 0
M  V30 37 H 0.626942 3.749683 6.407649 0
M  V30 38 H -0.163913 1.389792 6.786809 0
M  V30 39 H 0.416396 0.561580 2.676385 0
M  V30 40 H -1.441161 -3.765669 2.233480 0
M  V30 41 H -3.013682 -3.770210 1.358894 0
M  V30 42 H -0.457621 -5.184452 0.522081 0
M  V30 43 H -1.856510 -5.967151 1.388969 0
M  V30 44 H -1.499379 -5.843154 -1.290522 0
M  V30 45 H -2.739087 -4.306313 -2.333816 0
M  V30 46 H -3.558376 -3.796329 -0.751416 0
M  V30 47 H -1.625060 -2.415586 -1.813303 0
M  V30 48 H -0.555499 -3.767571 -1.333391 0
M  V30 END ATOM
M  V30 BEGIN BOND
M  V30 1 1 1 2
M  V30 2 1 2 3
M  V30 3 1 3 4
M  V30 4 1 4 5
M  V30 5 2 5 6
M  V30 6 1 6 7
M  V30 7 2 7 8
M  V30 8 1 8 9
M  V30 9 2 9 10
M  V30 10 1 10 11
M  V30 11 2 11 12
M  V30 12 1 12 13
M  V30 13 2 13 14
M  V30 14 1 14 15
M  V30 15 2 15 16
M  V30 16 1 16 17
M  V30 17 2 17 18
M  V30 18 1 18 19
M  V30 19 1 19 20
M  V30 20 2 19 21
M  V30 21 1 21 22
M  V30 22 1 12 23
M  V30 23 2 23 24
M  V30 24 1 2 25
M  V30 25 1 25 26
M  V30 26 1 26 27
M  V30 27 1 27 28
M  V30 28 1 28 29
M  V30 29 1 29 2
M  V30 30 1 24 5
M  V30 31 1 24 9
M  V30 32 1 22 13
M  V30 33 1 22 16
M  V30 34 1 3 30
M  V30 35 1 3 31
M  V30 36 1 6 32
M  V30 37 1 7 33
M  V30 38 1 8 34
M  V30 39 1 10 35
M  V30 40 1 11 36
M  V30 41 1 17 37
M  V30 42 1 18 38
M  V30 43 1 21 39
M  V30 44 1 25 40
M  V30 45 1 25 41
M  V30 46 1 26 42
M  V30 47 1 26 43
M  V30 48 1 27 44
M  V30 49 1 28 45
M  V30 50 1 28 46
M  V30 51 1 29 47
M  V30 52 1 29 48
M  V30 END BOND
M  V30 END CTAB
M  END
>  <Dataset>  (661) 
ChEMBL_Kinases

>  <Ligand_Instance>  (661) 
nan

>  <PDB_ID>  (661) 
nan

>  <Standardized_SMILES>  (661) 
FC1(COc2cccc3ccc(-c4nnc5ccc(Br)cn45)nc23)CCNCC1

>  <Name>  (661) 
nan

>  <Pocket>  (661) 
nan

>  <ATP_Site>  (661) 
nan

>  <Peripheral>  (661) 
nan

>  <Num_H_Atoms_ProtBoundConf>  (661) 
nan

>  <Num_Resolved_Atoms>  (661) 
nan

>  <Num_Not_Resolved_Atoms>  (661) 
nan

$$$$
CHEMBL3660072
     RDKit          3D

  0  0  0  0  0  0  0  0  0  0999 V3000
M  V30 BEGIN CTAB
M  V30 COUNTS 40 44 0 0 0
M  V30 BEGIN ATOM
M  V30 1 N 2.130708 -3.331838 0.314742 0
M  V30 2 C 0.894914 -2.952994 -0.274486 0
M  V30 3 N -0.136139 -3.830199 -0.311216 0
M  V30 4 C -1.321899 -3.512561 -0.859087 0
M  V30 5 C -1.547057 -2.271624 -1.413159 0
M  V30 6 C -0.490255 -1.385638 -1.370508 0
M  V30 7 O -0.650669 -0.106277 -1.915921 0
M  V30 8 C 0.451562 0.766053 -1.851751 0
M  V30 9 C 0.931402 1.213405 -3.061662 0
M  V30 10 C 2.025281 2.081632 -3.044159 0
M  V30 11 C 2.540055 2.423327 -1.811082 0
M  V30 12 C 2.051274 1.969144 -0.606100 0
M  V30 13 C 2.638167 2.370963 0.575559 0
M  V30 14 C 2.051461 1.842985 1.707082 0
M  V30 15 C 0.971146 0.984485 1.708681 0
M  V30 16 C 0.462156 0.510089 2.990298 0
M  V30 17 N 0.923980 0.810004 4.218074 0
M  V30 18 N 0.237112 0.213203 5.153461 0
M  V30 19 C -0.723644 -0.515939 4.526721 0
M  V30 20 C -1.710151 -1.330625 5.092047 0
M  V30 21 C -2.566976 -1.962912 4.203370 0
M  V30 22 C -2.451563 -1.795707 2.820033 0
M  V30 23 C -1.423301 -0.956691 2.416857 0
M  V30 24 N -0.569820 -0.322329 3.218825 0
M  V30 25 N 0.435427 0.623293 0.527717 0
M  V30 26 C 0.963357 1.104719 -0.606531 0
M  V30 27 N 0.678105 -1.736149 -0.816369 0
M  V30 28 H 2.845390 -3.937288 -0.115319 0
M  V30 29 H 2.514431 -3.067129 1.260537 0
M  V30 30 H -2.139530 -4.213309 -0.886258 0
M  V30 31 H -2.471240 -1.977351 -1.857978 0
M  V30 32 H 0.483944 0.908403 -3.987045 0
M  V30 33 H 2.428940 2.453024 -3.971411 0
M  V30 34 H 3.400503 3.104961 -1.773255 0
M  V30 35 H 3.485126 3.041437 0.621368 0
M  V30 36 H 2.488911 2.137851 2.672873 0
M  V30 37 H -1.812341 -1.470220 6.162256 0
M  V30 38 H -3.365250 -2.617731 4.579715 0
M  V30 39 H -3.115648 -2.285169 2.120017 0
M  V30 40 H -1.334392 -0.827743 1.348891 0
M  V30 END ATOM
M  V30 BEGIN BOND
M  V30 1 1 1 2
M  V30 2 2 2 3
M  V30 3 1 3 4
M  V30 4 2 4 5
M  V30 5 1 5 6
M  V30 6 1 6 7
M  V30 7 1 7 8
M  V30 8 2 8 9
M  V30 9 1 9 10
M  V30 10 2 10 11
M  V30 11 1 11 12
M  V30 12 2 12 13
M  V30 13 1 13 14
M  V30 14 2 14 15
M  V30 15 1 15 16
M  V30 16 2 16 17
M  V30 17 1 17 18
M  V30 18 2 18 19
M  V30 19 1 19 20
M  V30 20 2 20 21
M  V30 21 1 21 22
M  V30 22 2 22 23
M  V30 23 1 23 24
M  V30 24 1 15 25
M  V30 25 2 25 26
M  V30 26 2 6 27
M  V30 27 1 27 2
M  V30 28 1 26 8
M  V30 29 1 26 12
M  V30 30 1 24 16
M  V30 31 1 24 19
M  V30 32 1 1 28
M  V30 33 1 1 29
M  V30 34 1 4 30
M  V30 35 1 5 31
M  V30 36 1 9 32
M  V30 37 1 10 33
M  V30 38 1 11 34
M  V30 39 1 13 35
M  V30 40 1 14 36
M  V30 41 1 20 37
M  V30 42 1 21 38
M  V30 43 1 22 39
M  V30 44 1 23 40
M  V30 END BOND
M  V30 END CTAB
M  END
>  <Dataset>  (662) 
ChEMBL_Kinases

>  <Ligand_Instance>  (662) 
nan

>  <PDB_ID>  (662) 
nan

>  <Standardized_SMILES>  (662) 
Nc1nccc(Oc2cccc3ccc(-c4nnc5ccccn45)nc23)n1

>  <Name>  (662) 
nan

>  <Pocket>  (662) 
nan

>  <ATP_Site>  (662) 
nan

>  <Peripheral>  (662) 
nan

>  <Num_H_Atoms_ProtBoundConf>  (662) 
nan

>  <Num_Resolved_Atoms>  (662) 
nan

>  <Num_Not_Resolved_Atoms>  (662) 
nan

$$$$
CHEMBL3660071
     RDKit          3D

  0  0  0  0  0  0  0  0  0  0999 V3000
M  V30 BEGIN CTAB
M  V30 COUNTS 41 45 0 0 0
M  V30 BEGIN ATOM
M  V30 1 N -2.288020 -3.454288 2.755967 0
M  V30 2 C -2.076212 -3.254934 1.362707 0
M  V30 3 C -0.795547 -2.965013 1.015428 0
M  V30 4 C -0.415831 -2.741827 -0.289988 0
M  V30 5 O 0.721609 -2.438203 -0.965970 0
M  V30 6 C 1.148948 -1.281647 -1.533155 0
M  V30 7 C 1.323018 -1.539020 -2.896844 0
M  V30 8 C 1.759819 -0.571210 -3.810565 0
M  V30 9 C 2.037461 0.704037 -3.365252 0
M  V30 10 C 1.866621 0.959070 -2.022744 0
M  V30 11 C 2.118609 2.200193 -1.485137 0
M  V30 12 C 1.923278 2.370660 -0.135082 0
M  V30 13 C 1.484421 1.377867 0.751963 0
M  V30 14 C 1.350269 1.785188 2.142796 0
M  V30 15 N 1.600683 3.006030 2.641870 0
M  V30 16 N 1.378042 3.031136 3.937782 0
M  V30 17 C 0.969294 1.814350 4.338854 0
M  V30 18 C 0.613071 1.320791 5.578039 0
M  V30 19 C 0.225787 0.002164 5.700642 0
M  V30 20 C 0.217286 -0.762015 4.552057 0
M  V30 21 C 0.586455 -0.200381 3.346291 0
M  V30 22 N 0.964434 1.084314 3.222834 0
M  V30 23 N 1.238229 0.149475 0.201589 0
M  V30 24 C 1.437393 -0.004172 -1.143731 0
M  V30 25 C -1.454881 -2.838802 -1.232677 0
M  V30 26 C -2.770646 -3.139595 -0.854075 0
M  V30 27 N -3.060119 -3.344045 0.450465 0
M  V30 28 H -3.140345 -3.150879 3.281391 0
M  V30 29 H -1.565772 -3.939119 3.357294 0
M  V30 30 H 0.084841 -2.881994 1.636237 0
M  V30 31 H 1.163891 -2.471522 -3.465411 0
M  V30 32 H 1.915921 -0.697070 -4.870402 0
M  V30 33 H 2.379535 1.547360 -3.948250 0
M  V30 34 H 2.457914 2.994938 -2.128486 0
M  V30 35 H 2.147760 3.389040 0.207615 0
M  V30 36 H 0.617043 1.905419 6.471103 0
M  V30 37 H -0.076883 -0.505378 6.615386 0
M  V30 38 H -0.070342 -1.824700 4.512670 0
M  V30 39 H 0.584015 -0.788835 2.441939 0
M  V30 40 H -1.431833 -2.710603 -2.325229 0
M  V30 41 H -3.616384 -3.232832 -1.494839 0
M  V30 END ATOM
M  V30 BEGIN BOND
M  V30 1 1 1 2
M  V30 2 2 2 3
M  V30 3 1 3 4
M  V30 4 1 4 5
M  V30 5 1 5 6
M  V30 6 2 6 7
M  V30 7 1 7 8
M  V30 8 2 8 9
M  V30 9 1 9 10
M  V30 10 2 10 11
M  V30 11 1 11 12
M  V30 12 2 12 13
M  V30 13 1 13 14
M  V30 14 2 14 15
M  V30 15 1 15 16
M  V30 16 2 16 17
M  V30 17 1 17 18
M  V30 18 2 18 19
M  V30 19 1 19 20
M  V30 20 2 20 21
M  V30 21 1 21 22
M  V30 22 1 13 23
M  V30 23 2 23 24
M  V30 24 2 4 25
M  V30 25 1 25 26
M  V30 26 2 26 27
M  V30 27 1 27 2
M  V30 28 1 24 6
M  V30 29 1 24 10
M  V30 30 1 22 14
M  V30 31 1 22 17
M  V30 32 1 1 28
M  V30 33 1 1 29
M  V30 34 1 3 30
M  V30 35 1 7 31
M  V30 36 1 8 32
M  V30 37 1 9 33
M  V30 38 1 11 34
M  V30 39 1 12 35
M  V30 40 1 18 36
M  V30 41 1 19 37
M  V30 42 1 20 38
M  V30 43 1 21 39
M  V30 44 1 25 40
M  V30 45 1 26 41
M  V30 END BOND
M  V30 END CTAB
M  END
>  <Dataset>  (663) 
ChEMBL_Kinases

>  <Ligand_Instance>  (663) 
nan

>  <PDB_ID>  (663) 
nan

>  <Standardized_SMILES>  (663) 
Nc1cc(Oc2cccc3ccc(-c4nnc5ccccn45)nc23)ccn1

>  <Name>  (663) 
nan

>  <Pocket>  (663) 
nan

>  <ATP_Site>  (663) 
nan

>  <Peripheral>  (663) 
nan

>  <Num_H_Atoms_ProtBoundConf>  (663) 
nan

>  <Num_Resolved_Atoms>  (663) 
nan

>  <Num_Not_Resolved_Atoms>  (663) 
nan

$$$$
CHEMBL3660070
     RDKit          3D

  0  0  0  0  0  0  0  0  0  0999 V3000
M  V30 BEGIN CTAB
M  V30 COUNTS 39 43 0 0 0
M  V30 BEGIN ATOM
M  V30 1 C 1.581785 -4.493543 2.670959 0
M  V30 2 C 2.126786 -3.693377 1.658575 0
M  V30 3 C 1.640239 -2.412180 1.353027 0
M  V30 4 O 2.413844 -1.958203 0.328915 0
M  V30 5 C 2.050871 -1.589584 -0.928764 0
M  V30 6 C 1.898476 -0.400540 -1.605445 0
M  V30 7 C 1.497912 -0.368400 -2.922185 0
M  V30 8 N 1.236605 -1.491644 -3.613290 0
M  V30 9 C 1.370557 -2.679536 -3.000374 0
M  V30 10 C 1.776633 -2.738235 -1.660189 0
M  V30 11 C 0.583594 -1.955855 2.099312 0
M  V30 12 N 0.209074 -0.718120 1.713126 0
M  V30 13 C -0.840590 -0.194585 2.413182 0
M  V30 14 C -1.446230 1.114469 2.211679 0
M  V30 15 N -2.479727 1.642274 2.887776 0
M  V30 16 N -2.786496 2.836353 2.469902 0
M  V30 17 C -1.951381 3.165631 1.473018 0
M  V30 18 C -1.810020 4.281426 0.672876 0
M  V30 19 C -0.839845 4.350288 -0.297428 0
M  V30 20 C -0.012432 3.257717 -0.439036 0
M  V30 21 C -0.205513 2.175213 0.390785 0
M  V30 22 N -1.146416 2.095841 1.339214 0
M  V30 23 C -1.417352 -0.963663 3.437207 0
M  V30 24 C -1.001981 -2.210952 3.789685 0
M  V30 25 C 0.050736 -2.744329 3.092797 0
M  V30 26 C 0.509035 -4.001717 3.411143 0
M  V30 27 H 1.886485 -5.481988 2.975070 0
M  V30 28 H 2.948817 -4.275645 1.215886 0
M  V30 29 H 2.153651 0.419026 -0.951035 0
M  V30 30 H 1.422906 0.656625 -3.318239 0
M  V30 31 H 1.139218 -3.518017 -3.636337 0
M  V30 32 H 1.822124 -3.793247 -1.356858 0
M  V30 33 H -2.519831 5.086241 0.873280 0
M  V30 34 H -0.761925 5.236542 -0.900047 0
M  V30 35 H 0.754303 3.293578 -1.194785 0
M  V30 36 H 0.438487 1.339836 0.272848 0
M  V30 37 H -2.264275 -0.594328 4.034000 0
M  V30 38 H -1.453659 -2.783976 4.573963 0
M  V30 39 H 0.012500 -4.530201 4.211902 0
M  V30 END ATOM
M  V30 BEGIN BOND
M  V30 1 2 1 2
M  V30 2 1 2 3
M  V30 3 1 3 4
M  V30 4 1 4 5
M  V30 5 2 5 6
M  V30 6 1 6 7
M  V30 7 2 7 8
M  V30 8 1 8 9
M  V30 9 2 9 10
M  V30 10 2 3 11
M  V30 11 1 11 12
M  V30 12 2 12 13
M  V30 13 1 13 14
M  V30 14 2 14 15
M  V30 15 1 15 16
M  V30 16 2 16 17
M  V30 17 1 17 18
M  V30 18 2 18 19
M  V30 19 1 19 20
M  V30 20 2 20 21
M  V30 21 1 21 22
M  V30 22 1 13 23
M  V30 23 2 23 24
M  V30 24 1 24 25
M  V30 25 2 25 26
M  V30 26 1 26 1
M  V30 27 1 10 5
M  V30 28 1 25 11
M  V30 29 1 22 14
M  V30 30 1 22 17
M  V30 31 1 1 27
M  V30 32 1 2 28
M  V30 33 1 6 29
M  V30 34 1 7 30
M  V30 35 1 9 31
M  V30 36 1 10 32
M  V30 37 1 18 33
M  V30 38 1 19 34
M  V30 39 1 20 35
M  V30 40 1 21 36
M  V30 41 1 23 37
M  V30 42 1 24 38
M  V30 43 1 26 39
M  V30 END BOND
M  V30 END CTAB
M  END
>  <Dataset>  (664) 
ChEMBL_Kinases

>  <Ligand_Instance>  (664) 
nan

>  <PDB_ID>  (664) 
nan

>  <Standardized_SMILES>  (664) 
c1cc(Oc2ccncc2)c2nc(-c3nnc4ccccn34)ccc2c1

>  <Name>  (664) 
nan

>  <Pocket>  (664) 
nan

>  <ATP_Site>  (664) 
nan

>  <Peripheral>  (664) 
nan

>  <Num_H_Atoms_ProtBoundConf>  (664) 
nan

>  <Num_Resolved_Atoms>  (664) 
nan

>  <Num_Not_Resolved_Atoms>  (664) 
nan

$$$$
CHEMBL366007
     RDKit          3D

  0  0  0  0  0  0  0  0  0  0999 V3000
M  V30 BEGIN CTAB
M  V30 COUNTS 27 29 0 0 0
M  V30 BEGIN ATOM
M  V30 1 F -2.037592 -4.871764 0.159120 0
M  V30 2 C -1.141388 -3.882111 0.433100 0
M  V30 3 C -0.665620 -3.095866 -0.597253 0
M  V30 4 C 0.241125 -2.094759 -0.316781 0
M  V30 5 C 0.667809 -1.880954 0.976402 0
M  V30 6 C 1.617442 -0.833578 1.274813 0
M  V30 7 N 2.841592 -1.073460 1.783979 0
M  V30 8 C 3.508745 0.084332 1.960212 0
M  V30 9 O 2.697837 1.041818 1.560229 0
M  V30 10 C 1.567304 0.538885 1.146968 0
M  V30 11 C 0.405341 1.244211 0.626265 0
M  V30 12 C -0.862946 1.254630 1.214445 0
M  V30 13 C -1.868946 1.975280 0.596632 0
M  V30 14 N -1.635318 2.649384 -0.540811 0
M  V30 15 C -0.435214 2.676217 -1.153300 0
M  V30 16 C 0.579673 1.959772 -0.545984 0
M  V30 17 C 0.166158 -2.691977 1.981080 0
M  V30 18 C -0.751823 -3.716817 1.748294 0
M  V30 19 H -1.001557 -3.264629 -1.612769 0
M  V30 20 H 0.580617 -1.510992 -1.155025 0
M  V30 21 H 4.487723 0.360128 2.330547 0
M  V30 22 H -0.971803 0.688986 2.127450 0
M  V30 23 H -2.855785 1.976940 1.064313 0
M  V30 24 H -0.217311 3.212135 -2.073003 0
M  V30 25 H 1.563931 1.973685 -1.035311 0
M  V30 26 H 0.504584 -2.521241 3.001877 0
M  V30 27 H -1.138916 -4.342619 2.522745 0
M  V30 END ATOM
M  V30 BEGIN BOND
M  V30 1 1 1 2
M  V30 2 2 2 3
M  V30 3 1 3 4
M  V30 4 2 4 5
M  V30 5 1 5 6
M  V30 6 1 6 7
M  V30 7 2 7 8
M  V30 8 1 8 9
M  V30 9 1 9 10
M  V30 10 1 10 11
M  V30 11 2 11 12
M  V30 12 1 12 13
M  V30 13 2 13 14
M  V30 14 1 14 15
M  V30 15 2 15 16
M  V30 16 1 5 17
M  V30 17 2 17 18
M  V30 18 1 18 2
M  V30 19 2 10 6
M  V30 20 1 16 11
M  V30 21 1 3 19
M  V30 22 1 4 20
M  V30 23 1 8 21
M  V30 24 1 12 22
M  V30 25 1 13 23
M  V30 26 1 15 24
M  V30 27 1 16 25
M  V30 28 1 17 26
M  V30 29 1 18 27
M  V30 END BOND
M  V30 END CTAB
M  END
>  <Dataset>  (665) 
ChEMBL_Kinases

>  <Ligand_Instance>  (665) 
nan

>  <PDB_ID>  (665) 
nan

>  <Standardized_SMILES>  (665) 
Fc1ccc(-c2ncoc2-c2ccncc2)cc1

>  <Name>  (665) 
nan

>  <Pocket>  (665) 
nan

>  <ATP_Site>  (665) 
nan

>  <Peripheral>  (665) 
nan

>  <Num_H_Atoms_ProtBoundConf>  (665) 
nan

>  <Num_Resolved_Atoms>  (665) 
nan

>  <Num_Not_Resolved_Atoms>  (665) 
nan

$$$$
CHEMBL3660068
     RDKit          3D

  0  0  0  0  0  0  0  0  0  0999 V3000
M  V30 BEGIN CTAB
M  V30 COUNTS 49 53 0 0 0
M  V30 BEGIN ATOM
M  V30 1 O -1.490936 -2.468107 0.669181 0
M  V30 2 C -0.290804 -3.214486 0.701253 0
M  V30 3 C 0.830091 -2.258146 0.937882 0
M  V30 4 O 0.968416 -1.310155 0.040514 0
M  V30 5 C 1.183762 -0.744330 -1.110333 0
M  V30 6 C 1.500487 -1.209900 -2.365838 0
M  V30 7 C 1.702336 -0.468055 -3.507692 0
M  V30 8 C 1.560450 0.887954 -3.318650 0
M  V30 9 C 1.247554 1.497984 -2.125133 0
M  V30 10 C 1.138792 2.869815 -2.097600 0
M  V30 11 C 0.823634 3.454877 -0.894537 0
M  V30 12 C 0.635077 2.654153 0.204889 0
M  V30 13 C 0.296115 3.277453 1.480499 0
M  V30 14 N 0.146375 4.591908 1.712517 0
M  V30 15 N -0.165098 4.776503 3.005543 0
M  V30 16 C -0.211666 3.586583 3.585161 0
M  V30 17 C -0.494871 3.275151 4.918317 0
M  V30 18 C -0.486357 1.938283 5.312582 0
M  V30 19 C -0.193182 1.024576 4.330940 0
M  V30 20 C 0.082412 1.330157 3.032971 0
M  V30 21 N 0.072214 2.622305 2.660752 0
M  V30 22 N 0.755663 1.321653 0.110254 0
M  V30 23 C 1.062060 0.652065 -1.024093 0
M  V30 24 C -0.475247 -4.157277 1.898715 0
M  V30 25 C -1.864968 -4.738249 1.757804 0
M  V30 26 N -2.393386 -4.465111 0.443987 0
M  V30 27 C -1.522706 -4.850863 -0.621377 0
M  V30 28 C -0.199839 -4.091193 -0.497380 0
M  V30 29 H -1.362515 -1.778395 1.388273 0
M  V30 30 H 0.617363 -1.780535 1.959975 0
M  V30 31 H 1.810477 -2.828714 1.054421 0
M  V30 32 H 1.616414 -2.277104 -2.454666 0
M  V30 33 H 1.948430 -0.932843 -4.451452 0
M  V30 34 H 1.708887 1.516660 -4.185225 0
M  V30 35 H 1.297997 3.450621 -2.995433 0
M  V30 36 H 0.727708 4.519080 -0.821038 0
M  V30 37 H -0.717260 4.076508 5.628008 0
M  V30 38 H -0.713971 1.776134 6.353148 0
M  V30 39 H -0.192510 -0.024175 4.668296 0
M  V30 40 H 0.306297 0.563732 2.307539 0
M  V30 41 H 0.316078 -4.932281 1.904362 0
M  V30 42 H -0.419420 -3.524515 2.818125 0
M  V30 43 H -1.887115 -5.819983 2.015433 0
M  V30 44 H -2.539584 -4.236582 2.496431 0
M  V30 45 H -3.361850 -4.779619 0.335058 0
M  V30 46 H -1.374421 -5.945927 -0.733960 0
M  V30 47 H -1.999962 -4.459326 -1.569964 0
M  V30 48 H 0.557519 -4.907387 -0.284814 0
M  V30 49 H 0.037961 -3.568348 -1.428046 0
M  V30 END ATOM
M  V30 BEGIN BOND
M  V30 1 1 1 2
M  V30 2 1 2 3
M  V30 3 1 3 4
M  V30 4 1 4 5
M  V30 5 2 5 6
M  V30 6 1 6 7
M  V30 7 2 7 8
M  V30 8 1 8 9
M  V30 9 2 9 10
M  V30 10 1 10 11
M  V30 11 2 11 12
M  V30 12 1 12 13
M  V30 13 2 13 14
M  V30 14 1 14 15
M  V30 15 2 15 16
M  V30 16 1 16 17
M  V30 17 2 17 18
M  V30 18 1 18 19
M  V30 19 2 19 20
M  V30 20 1 20 21
M  V30 21 1 12 22
M  V30 22 2 22 23
M  V30 23 1 2 24
M  V30 24 1 24 25
M  V30 25 1 25 26
M  V30 26 1 26 27
M  V30 27 1 27 28
M  V30 28 1 28 2
M  V30 29 1 23 5
M  V30 30 1 23 9
M  V30 31 1 21 13
M  V30 32 1 21 16
M  V30 33 1 1 29
M  V30 34 1 3 30
M  V30 35 1 3 31
M  V30 36 1 6 32
M  V30 37 1 7 33
M  V30 38 1 8 34
M  V30 39 1 10 35
M  V30 40 1 11 36
M  V30 41 1 17 37
M  V30 42 1 18 38
M  V30 43 1 19 39
M  V30 44 1 20 40
M  V30 45 1 24 41
M  V30 46 1 24 42
M  V30 47 1 25 43
M  V30 48 1 25 44
M  V30 49 1 26 45
M  V30 50 1 27 46
M  V30 51 1 27 47
M  V30 52 1 28 48
M  V30 53 1 28 49
M  V30 END BOND
M  V30 END CTAB
M  END
>  <Dataset>  (666) 
ChEMBL_Kinases

>  <Ligand_Instance>  (666) 
nan

>  <PDB_ID>  (666) 
nan

>  <Standardized_SMILES>  (666) 
OC1(COc2cccc3ccc(-c4nnc5ccccn45)nc23)CCNCC1

>  <Name>  (666) 
nan

>  <Pocket>  (666) 
nan

>  <ATP_Site>  (666) 
nan

>  <Peripheral>  (666) 
nan

>  <Num_H_Atoms_ProtBoundConf>  (666) 
nan

>  <Num_Resolved_Atoms>  (666) 
nan

>  <Num_Not_Resolved_Atoms>  (666) 
nan

$$$$
CHEMBL3660066
     RDKit          3D

  0  0  0  0  0  0  0  0  0  0999 V3000
M  V30 BEGIN CTAB
M  V30 COUNTS 57 61 0 0 0
M  V30 BEGIN ATOM
M  V30 1 C -0.153845 -3.534325 3.044836 0
M  V30 2 C 0.969480 -3.955587 2.136963 0
M  V30 3 C 2.218219 -4.024176 2.961319 0
M  V30 4 C 1.111773 -3.085058 0.934914 0
M  V30 5 C 1.384045 -1.665056 1.392152 0
M  V30 6 O 1.533472 -0.734704 0.490291 0
M  V30 7 C 1.809997 0.086645 -0.450427 0
M  V30 8 C 2.810935 0.024606 -1.399201 0
M  V30 9 C 3.005572 0.986025 -2.372535 0
M  V30 10 C 2.128226 2.048067 -2.356726 0
M  V30 11 C 1.101667 2.195025 -1.450442 0
M  V30 12 C 0.275017 3.293830 -1.519492 0
M  V30 13 C -0.750723 3.423623 -0.611498 0
M  V30 14 C -0.929610 2.451398 0.342963 0
M  V30 15 C -1.771474 2.235631 1.517798 0
M  V30 16 N -2.508337 2.047483 2.545020 0
M  V30 17 N -3.731298 2.182509 2.699368 0
M  V30 18 C -4.243748 2.599390 1.500364 0
M  V30 19 C -5.558217 2.807262 1.294333 0
M  V30 20 C -5.811787 3.138159 -0.009027 0
M  V30 21 C -4.791445 3.219365 -0.913512 0
M  V30 22 C -3.544147 2.950395 -0.402382 0
M  V30 23 N -3.023642 2.599485 0.871255 0
M  V30 24 N -0.081124 1.405318 0.354288 0
M  V30 25 C 0.941333 1.194767 -0.481150 0
M  V30 26 C 2.333905 -3.552628 0.141136 0
M  V30 27 C 2.150737 -4.923420 -0.420292 0
M  V30 28 N 0.840068 -5.349516 -0.691735 0
M  V30 29 C -0.235674 -4.460266 -0.652468 0
M  V30 30 C -0.027895 -3.140473 -0.017717 0
M  V30 31 H 0.244259 -3.041585 3.930995 0
M  V30 32 H -0.738092 -4.410586 3.409936 0
M  V30 33 H -0.877336 -2.856248 2.553487 0
M  V30 34 H 0.752763 -5.030184 1.855358 0
M  V30 35 H 2.472159 -3.091083 3.502832 0
M  V30 36 H 1.975583 -4.749240 3.797949 0
M  V30 37 H 3.089051 -4.478957 2.456711 0
M  V30 38 H 0.656240 -1.501216 2.230880 0
M  V30 39 H 2.362918 -1.776307 1.976197 0
M  V30 40 H 3.478086 -0.826031 -1.376475 0
M  V30 41 H 3.783892 0.955586 -3.123980 0
M  V30 42 H 2.258921 2.805857 -3.103844 0
M  V30 43 H 0.353777 4.076316 -2.226788 0
M  V30 44 H -1.453664 4.233515 -0.473468 0
M  V30 45 H -6.287748 2.718339 2.072030 0
M  V30 46 H -6.832453 3.322940 -0.265512 0
M  V30 47 H -4.969004 3.477312 -1.936851 0
M  V30 48 H -2.902187 2.990530 -1.312194 0
M  V30 49 H 2.407058 -2.857466 -0.723598 0
M  V30 50 H 3.268161 -3.446509 0.717325 0
M  V30 51 H 2.593489 -5.645018 0.327765 0
M  V30 52 H 2.797195 -5.040755 -1.329149 0
M  V30 53 H 0.631247 -6.348578 -0.486184 0
M  V30 54 H -0.641616 -4.346895 -1.687945 0
M  V30 55 H -1.080197 -4.957353 -0.093776 0
M  V30 56 H 0.241371 -2.429028 -0.855931 0
M  V30 57 H -0.973341 -2.724880 0.376922 0
M  V30 END ATOM
M  V30 BEGIN BOND
M  V30 1 1 1 2
M  V30 2 1 2 3
M  V30 3 1 2 4
M  V30 4 1 4 5
M  V30 5 1 5 6
M  V30 6 1 6 7
M  V30 7 2 7 8
M  V30 8 1 8 9
M  V30 9 2 9 10
M  V30 10 1 10 11
M  V30 11 2 11 12
M  V30 12 1 12 13
M  V30 13 2 13 14
M  V30 14 1 14 15
M  V30 15 2 15 16
M  V30 16 1 16 17
M  V30 17 2 17 18
M  V30 18 1 18 19
M  V30 19 2 19 20
M  V30 20 1 20 21
M  V30 21 2 21 22
M  V30 22 1 22 23
M  V30 23 1 14 24
M  V30 24 2 24 25
M  V30 25 1 4 26
M  V30 26 1 26 27
M  V30 27 1 27 28
M  V30 28 1 28 29
M  V30 29 1 29 30
M  V30 30 1 30 4
M  V30 31 1 25 7
M  V30 32 1 25 11
M  V30 33 1 23 15
M  V30 34 1 23 18
M  V30 35 1 1 31
M  V30 36 1 1 32
M  V30 37 1 1 33
M  V30 38 1 2 34
M  V30 39 1 3 35
M  V30 40 1 3 36
M  V30 41 1 3 37
M  V30 42 1 5 38
M  V30 43 1 5 39
M  V30 44 1 8 40
M  V30 45 1 9 41
M  V30 46 1 10 42
M  V30 47 1 12 43
M  V30 48 1 13 44
M  V30 49 1 19 45
M  V30 50 1 20 46
M  V30 51 1 21 47
M  V30 52 1 22 48
M  V30 53 1 26 49
M  V30 54 1 26 50
M  V30 55 1 27 51
M  V30 56 1 27 52
M  V30 57 1 28 53
M  V30 58 1 29 54
M  V30 59 1 29 55
M  V30 60 1 30 56
M  V30 61 1 30 57
M  V30 END BOND
M  V30 END CTAB
M  END
>  <Dataset>  (667) 
ChEMBL_Kinases

>  <Ligand_Instance>  (667) 
nan

>  <PDB_ID>  (667) 
nan

>  <Standardized_SMILES>  (667) 
CC(C)C1(COc2cccc3ccc(-c4nnc5ccccn45)nc23)CCNCC1

>  <Name>  (667) 
nan

>  <Pocket>  (667) 
nan

>  <ATP_Site>  (667) 
nan

>  <Peripheral>  (667) 
nan

>  <Num_H_Atoms_ProtBoundConf>  (667) 
nan

>  <Num_Resolved_Atoms>  (667) 
nan

>  <Num_Not_Resolved_Atoms>  (667) 
nan

$$$$
CHEMBL3660065
     RDKit          3D

  0  0  0  0  0  0  0  0  0  0999 V3000
M  V30 BEGIN CTAB
M  V30 COUNTS 58 63 0 0 0
M  V30 BEGIN ATOM
M  V30 1 C 0.876310 -2.174934 4.757710 0
M  V30 2 C 0.942259 -1.264424 3.714054 0
M  V30 3 C 0.250139 -1.439718 2.521124 0
M  V30 4 O 0.396511 -0.457073 1.549054 0
M  V30 5 C 1.205848 0.680691 1.736247 0
M  V30 6 C 1.141313 1.534564 0.498277 0
M  V30 7 C 1.625474 0.796316 -0.704192 0
M  V30 8 C 3.037042 0.314547 -0.634273 0
M  V30 9 C 3.554252 -0.444914 -1.856416 0
M  V30 10 C 3.338231 -1.133442 -0.492775 0
M  V30 11 C -0.300291 1.926339 0.239060 0
M  V30 12 C -0.642911 3.134664 1.095792 0
M  V30 13 N -0.000320 4.309212 0.526104 0
M  V30 14 C 1.290163 3.956817 -0.023777 0
M  V30 15 C 1.917518 2.810930 0.743876 0
M  V30 16 C -0.526221 -2.573593 2.396567 0
M  V30 17 N -1.200582 -2.739569 1.228012 0
M  V30 18 C -1.985772 -3.829050 1.027880 0
M  V30 19 C -2.739801 -4.079635 -0.194574 0
M  V30 20 N -3.535341 -5.165786 -0.420145 0
M  V30 21 N -4.042176 -5.017169 -1.652395 0
M  V30 22 C -3.580579 -3.872574 -2.187603 0
M  V30 23 C -3.850538 -3.334411 -3.438350 0
M  V30 24 C -3.242738 -2.133973 -3.745958 0
M  V30 25 C -2.401979 -1.501522 -2.840104 0
M  V30 26 C -2.185499 -2.114504 -1.602177 0
M  V30 27 N -2.760193 -3.281248 -1.270285 0
M  V30 28 C -2.043054 -4.731063 2.078324 0
M  V30 29 C -1.379052 -4.607859 3.281006 0
M  V30 30 C -0.592300 -3.486368 3.442898 0
M  V30 31 C 0.095515 -3.305241 4.619441 0
M  V30 32 H 1.434962 -2.001118 5.678756 0
M  V30 33 H 1.570562 -0.392909 3.874593 0
M  V30 34 H 0.991629 1.238370 2.646807 0
M  V30 35 H 2.268875 0.310450 1.793406 0
M  V30 36 H 1.543589 1.500824 -1.577253 0
M  V30 37 H 0.923626 -0.028753 -0.920770 0
M  V30 38 H 3.789572 1.018299 -0.235554 0
M  V30 39 H 4.597270 -0.286400 -2.193800 0
M  V30 40 H 2.814603 -0.657124 -2.664293 0
M  V30 41 H 2.533910 -1.893220 -0.516389 0
M  V30 42 H 4.270393 -1.445703 0.018659 0
M  V30 43 H -1.023741 1.141085 0.506547 0
M  V30 44 H -0.414262 2.260628 -0.816979 0
M  V30 45 H -0.307666 2.979264 2.144573 0
M  V30 46 H -1.745524 3.254918 1.059776 0
M  V30 47 H -0.631638 4.737394 -0.206970 0
M  V30 48 H 1.224813 3.666876 -1.084226 0
M  V30 49 H 1.975686 4.832370 0.027091 0
M  V30 50 H 2.988383 2.739162 0.532677 0
M  V30 51 H 1.853938 3.015138 1.850217 0
M  V30 52 H -4.511842 -3.857431 -4.117750 0
M  V30 53 H -3.449207 -1.704943 -4.725103 0
M  V30 54 H -1.934087 -0.557547 -3.102633 0
M  V30 55 H -1.537748 -1.650390 -0.874299 0
M  V30 56 H -2.676710 -5.617697 1.926420 0
M  V30 57 H -1.497785 -5.384687 4.043283 0
M  V30 58 H 0.031781 -4.030716 5.428074 0
M  V30 END ATOM
M  V30 BEGIN BOND
M  V30 1 2 1 2
M  V30 2 1 2 3
M  V30 3 1 3 4
M  V30 4 1 4 5
M  V30 5 1 5 6
M  V30 6 1 6 7
M  V30 7 1 7 8
M  V30 8 1 8 9
M  V30 9 1 9 10
M  V30 10 1 6 11
M  V30 11 1 11 12
M  V30 12 1 12 13
M  V30 13 1 13 14
M  V30 14 1 14 15
M  V30 15 2 3 16
M  V30 16 1 16 17
M  V30 17 2 17 18
M  V30 18 1 18 19
M  V30 19 2 19 20
M  V30 20 1 20 21
M  V30 21 2 21 22
M  V30 22 1 22 23
M  V30 23 2 23 24
M  V30 24 1 24 25
M  V30 25 2 25 26
M  V30 26 1 26 27
M  V30 27 1 18 28
M  V30 28 2 28 29
M  V30 29 1 29 30
M  V30 30 2 30 31
M  V30 31 1 31 1
M  V30 32 1 15 6
M  V30 33 1 30 16
M  V30 34 1 10 8
M  V30 35 1 27 19
M  V30 36 1 27 22
M  V30 37 1 1 32
M  V30 38 1 2 33
M  V30 39 1 5 34
M  V30 40 1 5 35
M  V30 41 1 7 36
M  V30 42 1 7 37
M  V30 43 1 8 38
M  V30 44 1 9 39
M  V30 45 1 9 40
M  V30 46 1 10 41
M  V30 47 1 10 42
M  V30 48 1 11 43
M  V30 49 1 11 44
M  V30 50 1 12 45
M  V30 51 1 12 46
M  V30 52 1 13 47
M  V30 53 1 14 48
M  V30 54 1 14 49
M  V30 55 1 15 50
M  V30 56 1 15 51
M  V30 57 1 23 52
M  V30 58 1 24 53
M  V30 59 1 25 54
M  V30 60 1 26 55
M  V30 61 1 28 56
M  V30 62 1 29 57
M  V30 63 1 31 58
M  V30 END BOND
M  V30 END CTAB
M  END
>  <Dataset>  (668) 
ChEMBL_Kinases

>  <Ligand_Instance>  (668) 
nan

>  <PDB_ID>  (668) 
nan

>  <Standardized_SMILES>  (668) 
c1cc(OCC2(CC3CC3)CCNCC2)c2nc(-c3nnc4ccccn34)ccc2c1

>  <Name>  (668) 
nan

>  <Pocket>  (668) 
nan

>  <ATP_Site>  (668) 
nan

>  <Peripheral>  (668) 
nan

>  <Num_H_Atoms_ProtBoundConf>  (668) 
nan

>  <Num_Resolved_Atoms>  (668) 
nan

>  <Num_Not_Resolved_Atoms>  (668) 
nan

$$$$
CHEMBL3660062
     RDKit          3D

  0  0  0  0  0  0  0  0  0  0999 V3000
M  V30 BEGIN CTAB
M  V30 COUNTS 57 61 0 0 0
M  V30 BEGIN ATOM
M  V30 1 C 1.725238 -0.412620 4.069544 0
M  V30 2 C 1.534318 -1.223201 2.829676 0
M  V30 3 C 1.976040 -2.643040 3.131421 0
M  V30 4 C 2.430060 -0.624803 1.764472 0
M  V30 5 N 3.792780 -0.706954 2.255060 0
M  V30 6 C 0.080498 -1.191210 2.407035 0
M  V30 7 O -0.350818 0.025479 2.137414 0
M  V30 8 C -0.658152 1.261990 2.323175 0
M  V30 9 C -0.586355 2.070955 3.437306 0
M  V30 10 C -0.945284 3.398089 3.533564 0
M  V30 11 C -1.424995 3.932545 2.356700 0
M  V30 12 C -1.547572 3.236348 1.179220 0
M  V30 13 C -2.048602 3.926399 0.098495 0
M  V30 14 C -2.152648 3.179711 -1.054129 0
M  V30 15 C -1.781960 1.844317 -1.114644 0
M  V30 16 C -1.943867 1.155011 -2.387851 0
M  V30 17 N -2.413164 1.697029 -3.515229 0
M  V30 18 N -2.445543 0.816136 -4.497745 0
M  V30 19 C -1.982822 -0.347137 -4.006219 0
M  V30 20 C -1.845595 -1.537540 -4.687494 0
M  V30 21 C -1.342506 -2.596868 -3.944451 0
M  V30 22 C -1.022618 -2.391508 -2.610480 0
M  V30 23 C -0.510169 -3.571616 -1.936125 0
M  V30 24 C -0.988286 -4.824524 -2.338128 0
M  V30 25 C -0.568265 -6.027112 -1.771774 0
M  V30 26 C 0.368100 -5.988428 -0.760880 0
M  V30 27 C 0.851920 -4.765472 -0.349951 0
M  V30 28 C 0.423632 -3.587433 -0.923022 0
M  V30 29 C -1.197487 -1.145758 -2.008199 0
M  V30 30 N -1.680511 -0.122666 -2.715145 0
M  V30 31 N -1.303046 1.257076 -0.007575 0
M  V30 32 C -1.160473 1.909434 1.184594 0
M  V30 33 H 2.569914 -0.823538 4.683090 0
M  V30 34 H 0.842443 -0.447767 4.751940 0
M  V30 35 H 1.890638 0.643527 3.812858 0
M  V30 36 H 3.059618 -2.567587 3.423983 0
M  V30 37 H 1.884872 -3.253407 2.211613 0
M  V30 38 H 1.332372 -3.011093 3.947787 0
M  V30 39 H 2.393948 -1.178846 0.816140 0
M  V30 40 H 2.177710 0.453154 1.636581 0
M  V30 41 H 4.332341 -1.491957 1.850359 0
M  V30 42 H 4.314314 0.193248 2.162925 0
M  V30 43 H -0.509999 -1.758950 3.213420 0
M  V30 44 H 0.037609 -1.942477 1.562143 0
M  V30 45 H -0.218417 1.634127 4.351043 0
M  V30 46 H -0.847985 3.945058 4.461111 0
M  V30 47 H -1.718510 4.978754 2.393761 0
M  V30 48 H -2.330918 4.949258 0.150377 0
M  V30 49 H -2.543133 3.674894 -1.939937 0
M  V30 50 H -2.114109 -1.630650 -5.731074 0
M  V30 51 H -1.230913 -3.533501 -4.470771 0
M  V30 52 H -1.732867 -4.973338 -3.129178 0
M  V30 53 H -0.948334 -6.983095 -2.094184 0
M  V30 54 H 0.696375 -6.922030 -0.319659 0
M  V30 55 H 1.572795 -4.812557 0.433159 0
M  V30 56 H 0.808329 -2.634992 -0.596770 0
M  V30 57 H -0.937924 -1.022615 -0.968262 0
M  V30 END ATOM
M  V30 BEGIN BOND
M  V30 1 1 1 2
M  V30 2 1 2 3
M  V30 3 1 2 4
M  V30 4 1 4 5
M  V30 5 1 2 6
M  V30 6 1 6 7
M  V30 7 1 7 8
M  V30 8 2 8 9
M  V30 9 1 9 10
M  V30 10 2 10 11
M  V30 11 1 11 12
M  V30 12 2 12 13
M  V30 13 1 13 14
M  V30 14 2 14 15
M  V30 15 1 15 16
M  V30 16 2 16 17
M  V30 17 1 17 18
M  V30 18 2 18 19
M  V30 19 1 19 20
M  V30 20 2 20 21
M  V30 21 1 21 22
M  V30 22 1 22 23
M  V30 23 2 23 24
M  V30 24 1 24 25
M  V30 25 2 25 26
M  V30 26 1 26 27
M  V30 27 2 27 28
M  V30 28 2 22 29
M  V30 29 1 29 30
M  V30 30 1 15 31
M  V30 31 2 31 32
M  V30 32 1 32 8
M  V30 33 1 32 12
M  V30 34 1 30 16
M  V30 35 1 30 19
M  V30 36 1 28 23
M  V30 37 1 1 33
M  V30 38 1 1 34
M  V30 39 1 1 35
M  V30 40 1 3 36
M  V30 41 1 3 37
M  V30 42 1 3 38
M  V30 43 1 4 39
M  V30 44 1 4 40
M  V30 45 1 5 41
M  V30 46 1 5 42
M  V30 47 1 6 43
M  V30 48 1 6 44
M  V30 49 1 9 45
M  V30 50 1 10 46
M  V30 51 1 11 47
M  V30 52 1 13 48
M  V30 53 1 14 49
M  V30 54 1 20 50
M  V30 55 1 21 51
M  V30 56 1 24 52
M  V30 57 1 25 53
M  V30 58 1 26 54
M  V30 59 1 27 55
M  V30 60 1 28 56
M  V30 61 1 29 57
M  V30 END BOND
M  V30 END CTAB
M  END
>  <Dataset>  (669) 
ChEMBL_Kinases

>  <Ligand_Instance>  (669) 
nan

>  <PDB_ID>  (669) 
nan

>  <Standardized_SMILES>  (669) 
CC(C)(CN)COc1cccc2ccc(-c3nnc4ccc(-c5ccccc5)cn34)nc12

>  <Name>  (669) 
nan

>  <Pocket>  (669) 
nan

>  <ATP_Site>  (669) 
nan

>  <Peripheral>  (669) 
nan

>  <Num_H_Atoms_ProtBoundConf>  (669) 
nan

>  <Num_Resolved_Atoms>  (669) 
nan

>  <Num_Not_Resolved_Atoms>  (669) 
nan

$$$$
CHEMBL3660060
     RDKit          3D

  0  0  0  0  0  0  0  0  0  0999 V3000
M  V30 BEGIN CTAB
M  V30 COUNTS 47 50 0 0 0
M  V30 BEGIN ATOM
M  V30 1 C 1.397095 -2.761579 2.319075 0
M  V30 2 C 2.023748 -2.849125 0.964707 0
M  V30 3 C 0.937967 -3.110489 -0.055261 0
M  V30 4 C 3.105378 -3.908088 0.909907 0
M  V30 5 N 2.525397 -5.197023 1.230439 0
M  V30 6 C 2.638985 -1.512995 0.562580 0
M  V30 7 O 1.573602 -0.570677 0.556308 0
M  V30 8 C 1.769231 0.763594 0.232178 0
M  V30 9 C 3.055961 1.164712 -0.092407 0
M  V30 10 C 3.357784 2.467965 -0.429486 0
M  V30 11 C 2.335670 3.390063 -0.439407 0
M  V30 12 C 1.068773 2.969347 -0.114261 0
M  V30 13 C 0.061386 3.913864 -0.131756 0
M  V30 14 C -1.197945 3.457302 0.199712 0
M  V30 15 C -1.552103 2.169330 0.543168 0
M  V30 16 C -2.930857 1.844623 0.868233 0
M  V30 17 N -3.960085 2.707775 0.872310 0
M  V30 18 N -5.055554 2.050499 1.216716 0
M  V30 19 C -4.746450 0.751005 1.439963 0
M  V30 20 C -5.480037 -0.357171 1.814735 0
M  V30 21 C -4.841970 -1.565731 1.957520 0
M  V30 22 C -3.475707 -1.734595 1.741308 0
M  V30 23 Br -2.560335 -3.388560 1.928917 0
M  V30 24 C -2.824635 -0.559633 1.367384 0
M  V30 25 N -3.405969 0.640116 1.216006 0
M  V30 26 N -0.519412 1.298359 0.540113 0
M  V30 27 C 0.735438 1.675643 0.226586 0
M  V30 28 H 2.113519 -3.079786 3.110300 0
M  V30 29 H 1.053926 -1.732826 2.591976 0
M  V30 30 H 0.505971 -3.419242 2.395473 0
M  V30 31 H 0.603070 -4.160425 -0.087090 0
M  V30 32 H 0.102050 -2.413561 0.221253 0
M  V30 33 H 1.305026 -2.751675 -1.036285 0
M  V30 34 H 3.944946 -3.648440 1.575580 0
M  V30 35 H 3.528562 -3.988305 -0.111081 0
M  V30 36 H 3.262668 -5.915607 1.043543 0
M  V30 37 H 2.326276 -5.208679 2.255759 0
M  V30 38 H 3.378496 -1.279287 1.367811 0
M  V30 39 H 3.144938 -1.596050 -0.402585 0
M  V30 40 H 3.886265 0.470103 -0.096106 0
M  V30 41 H 4.347979 2.811397 -0.686767 0
M  V30 42 H 2.524650 4.415712 -0.695707 0
M  V30 43 H 0.199532 4.963259 -0.383772 0
M  V30 44 H -2.005364 4.204867 0.187744 0
M  V30 45 H -6.544758 -0.255183 1.989622 0
M  V30 46 H -5.376031 -2.473072 2.252049 0
M  V30 47 H -1.746990 -0.636005 1.184593 0
M  V30 END ATOM
M  V30 BEGIN BOND
M  V30 1 1 1 2
M  V30 2 1 2 3
M  V30 3 1 2 4
M  V30 4 1 4 5
M  V30 5 1 2 6
M  V30 6 1 6 7
M  V30 7 1 7 8
M  V30 8 2 8 9
M  V30 9 1 9 10
M  V30 10 2 10 11
M  V30 11 1 11 12
M  V30 12 2 12 13
M  V30 13 1 13 14
M  V30 14 2 14 15
M  V30 15 1 15 16
M  V30 16 2 16 17
M  V30 17 1 17 18
M  V30 18 2 18 19
M  V30 19 1 19 20
M  V30 20 2 20 21
M  V30 21 1 21 22
M  V30 22 1 22 23
M  V30 23 2 22 24
M  V30 24 1 24 25
M  V30 25 1 15 26
M  V30 26 2 26 27
M  V30 27 1 27 8
M  V30 28 1 27 12
M  V30 29 1 25 16
M  V30 30 1 25 19
M  V30 31 1 1 28
M  V30 32 1 1 29
M  V30 33 1 1 30
M  V30 34 1 3 31
M  V30 35 1 3 32
M  V30 36 1 3 33
M  V30 37 1 4 34
M  V30 38 1 4 35
M  V30 39 1 5 36
M  V30 40 1 5 37
M  V30 41 1 6 38
M  V30 42 1 6 39
M  V30 43 1 9 40
M  V30 44 1 10 41
M  V30 45 1 11 42
M  V30 46 1 13 43
M  V30 47 1 14 44
M  V30 48 1 20 45
M  V30 49 1 21 46
M  V30 50 1 24 47
M  V30 END BOND
M  V30 END CTAB
M  END
>  <Dataset>  (670) 
ChEMBL_Kinases

>  <Ligand_Instance>  (670) 
nan

>  <PDB_ID>  (670) 
nan

>  <Standardized_SMILES>  (670) 
CC(C)(CN)COc1cccc2ccc(-c3nnc4ccc(Br)cn34)nc12

>  <Name>  (670) 
nan

>  <Pocket>  (670) 
nan

>  <ATP_Site>  (670) 
nan

>  <Peripheral>  (670) 
nan

>  <Num_H_Atoms_ProtBoundConf>  (670) 
nan

>  <Num_Resolved_Atoms>  (670) 
nan

>  <Num_Not_Resolved_Atoms>  (670) 
nan

$$$$
CHEMBL3661204
     RDKit          3D

  0  0  0  0  0  0  0  0  0  0999 V3000
M  V30 BEGIN CTAB
M  V30 COUNTS 43 46 0 0 0
M  V30 BEGIN ATOM
M  V30 1 C -3.579334 -4.949583 0.602996 0
M  V30 2 O -2.560299 -4.996279 1.568947 0
M  V30 3 C -1.437282 -4.194326 1.484052 0
M  V30 4 C -1.063465 -3.253264 0.543994 0
M  V30 5 C 0.116155 -2.568100 0.669240 0
M  V30 6 C 0.451845 -1.591106 -0.363628 0
M  V30 7 C 0.028877 -1.827412 -1.657501 0
M  V30 8 C 0.363232 -0.890441 -2.611964 0
M  V30 9 C 1.091745 0.246520 -2.307489 0
M  V30 10 N 1.436348 1.179826 -3.233694 0
M  V30 11 C 2.155902 2.264238 -2.855745 0
M  V30 12 N 2.566388 2.486805 -1.580242 0
M  V30 13 C 2.253757 1.594470 -0.617312 0
M  V30 14 N 2.632516 1.708446 0.756911 0
M  V30 15 C 1.982362 2.464061 1.772736 0
M  V30 16 C 2.382338 2.376055 3.089972 0
M  V30 17 C 1.720432 3.147428 4.039675 0
M  V30 18 C 0.670968 3.997956 3.683581 0
M  V30 19 F 0.015001 4.755343 4.579779 0
M  V30 20 C 0.264671 4.093980 2.378313 0
M  V30 21 Cl -1.032356 5.118941 1.792027 0
M  V30 22 C 0.944103 3.309350 1.440679 0
M  V30 23 C 1.510027 0.474423 -1.011065 0
M  V30 24 C 1.180997 -0.464132 -0.027990 0
M  V30 25 C 1.008662 -2.757843 1.721612 0
M  V30 26 C 0.647801 -3.693829 2.666154 0
M  V30 27 C -0.533927 -4.379889 2.540698 0
M  V30 28 O -0.770611 -5.294748 3.567193 0
M  V30 29 H -4.573767 -4.947906 1.126092 0
M  V30 30 H -3.533093 -5.878238 -0.006803 0
M  V30 31 H -3.582747 -4.042879 -0.026841 0
M  V30 32 H -1.777716 -3.142718 -0.244939 0
M  V30 33 H -0.544976 -2.709855 -1.920740 0
M  V30 34 H 0.046350 -1.044632 -3.641528 0
M  V30 35 H 2.432662 3.011586 -3.592091 0
M  V30 36 H 3.479502 1.149757 0.941121 0
M  V30 37 H 3.187210 1.731508 3.408282 0
M  V30 38 H 2.016966 3.093535 5.083499 0
M  V30 39 H 0.644063 3.363278 0.388445 0
M  V30 40 H 1.489485 -0.322560 1.001405 0
M  V30 41 H 1.921701 -2.196516 1.776136 0
M  V30 42 H 1.335904 -3.834390 3.470883 0
M  V30 43 H -1.013432 -4.966246 4.493936 0
M  V30 END ATOM
M  V30 BEGIN BOND
M  V30 1 1 1 2
M  V30 2 1 2 3
M  V30 3 2 3 4
M  V30 4 1 4 5
M  V30 5 1 5 6
M  V30 6 2 6 7
M  V30 7 1 7 8
M  V30 8 2 8 9
M  V30 9 1 9 10
M  V30 10 2 10 11
M  V30 11 1 11 12
M  V30 12 2 12 13
M  V30 13 1 13 14
M  V30 14 1 14 15
M  V30 15 2 15 16
M  V30 16 1 16 17
M  V30 17 2 17 18
M  V30 18 1 18 19
M  V30 19 1 18 20
M  V30 20 1 20 21
M  V30 21 2 20 22
M  V30 22 1 13 23
M  V30 23 2 23 24
M  V30 24 2 5 25
M  V30 25 1 25 26
M  V30 26 2 26 27
M  V30 27 1 27 28
M  V30 28 1 27 3
M  V30 29 1 24 6
M  V30 30 1 23 9
M  V30 31 1 22 15
M  V30 32 1 1 29
M  V30 33 1 1 30
M  V30 34 1 1 31
M  V30 35 1 4 32
M  V30 36 1 7 33
M  V30 37 1 8 34
M  V30 38 1 11 35
M  V30 39 1 14 36
M  V30 40 1 16 37
M  V30 41 1 17 38
M  V30 42 1 22 39
M  V30 43 1 24 40
M  V30 44 1 25 41
M  V30 45 1 26 42
M  V30 46 1 28 43
M  V30 END BOND
M  V30 END CTAB
M  END
>  <Dataset>  (671) 
ChEMBL_Kinases

>  <Ligand_Instance>  (671) 
nan

>  <PDB_ID>  (671) 
nan

>  <Standardized_SMILES>  (671) 
COc1cc(-c2ccc3ncnc(Nc4ccc(F)c(Cl)c4)c3c2)ccc1O

>  <Name>  (671) 
nan

>  <Pocket>  (671) 
nan

>  <ATP_Site>  (671) 
nan

>  <Peripheral>  (671) 
nan

>  <Num_H_Atoms_ProtBoundConf>  (671) 
nan

>  <Num_Resolved_Atoms>  (671) 
nan

>  <Num_Not_Resolved_Atoms>  (671) 
nan

$$$$
CHEMBL3659978
     RDKit          3D

  0  0  0  0  0  0  0  0  0  0999 V3000
M  V30 BEGIN CTAB
M  V30 COUNTS 52 57 0 0 0
M  V30 BEGIN ATOM
M  V30 1 O 3.881976 -1.675050 0.674495 0
M  V30 2 C 3.040401 -2.012485 -0.213692 0
M  V30 3 N 2.417328 -1.976446 -1.488303 0
M  V30 4 C 3.113188 -1.024846 -2.226025 0
M  V30 5 C 4.194714 -1.620369 -2.843553 0
M  V30 6 C 5.062737 -0.879275 -3.630445 0
M  V30 7 C 4.797384 0.465369 -3.765157 0
M  V30 8 C 3.703791 0.987157 -3.122140 0
M  V30 9 N 3.219270 2.230701 -3.076701 0
M  V30 10 N 2.156690 2.289964 -2.345252 0
M  V30 11 C 1.810194 1.074796 -1.814710 0
M  V30 12 C 0.693646 0.761000 -0.962245 0
M  V30 13 N -0.074521 1.815900 -0.638737 0
M  V30 14 C -1.084408 1.518831 0.150689 0
M  V30 15 C -2.108963 2.281782 0.721692 0
M  V30 16 C -3.023284 1.629247 1.519256 0
M  V30 17 C -2.948664 0.274106 1.758390 0
M  V30 18 N -3.909336 -0.366783 2.587041 0
M  V30 19 C -3.964244 -1.774432 2.920516 0
M  V30 20 C -3.870416 -2.018942 4.409905 0
M  V30 21 O -4.798835 -1.262903 5.118469 0
M  V30 22 C -4.817267 0.057034 4.752673 0
M  V30 23 C -5.020525 0.270486 3.258823 0
M  V30 24 C -1.937872 -0.457383 1.190528 0
M  V30 25 C -1.019197 0.174557 0.394272 0
M  V30 26 N 0.061558 -0.162760 -0.309151 0
M  V30 27 C 2.813869 0.303631 -2.334482 0
M  V30 28 C 2.942379 -2.709723 1.092371 0
M  V30 29 C 1.664464 -3.163845 1.660190 0
M  V30 30 C 2.688941 -4.173304 1.123024 0
M  V30 31 F 3.373902 -4.932314 2.037072 0
M  V30 32 F 2.408883 -4.729540 -0.114457 0
M  V30 33 H 1.665499 -2.690618 -1.404136 0
M  V30 34 H 4.489821 -2.667194 -2.800873 0
M  V30 35 H 5.930842 -1.224995 -4.157772 0
M  V30 36 H 5.407358 1.110854 -4.347350 0
M  V30 37 H 3.517178 3.133235 -3.499483 0
M  V30 38 H -2.123164 3.335884 0.504345 0
M  V30 39 H -3.766345 2.276578 1.912892 0
M  V30 40 H -3.199454 -2.357177 2.420383 0
M  V30 41 H -4.957275 -2.192939 2.600492 0
M  V30 42 H -4.102980 -3.087612 4.593146 0
M  V30 43 H -2.838117 -1.843145 4.742768 0
M  V30 44 H -5.720875 0.508309 5.230388 0
M  V30 45 H -3.954110 0.658695 5.061672 0
M  V30 46 H -5.086150 1.363605 3.091772 0
M  V30 47 H -5.953894 -0.247407 2.906737 0
M  V30 48 H -1.785083 -1.503649 1.307202 0
M  V30 49 H 0.366778 -1.124549 -0.331519 0
M  V30 50 H 3.707423 -2.338073 1.825349 0
M  V30 51 H 0.755401 -2.997224 1.074724 0
M  V30 52 H 1.543706 -3.203283 2.768597 0
M  V30 END ATOM
M  V30 BEGIN BOND
M  V30 1 2 1 2
M  V30 2 1 2 3
M  V30 3 1 3 4
M  V30 4 2 4 5
M  V30 5 1 5 6
M  V30 6 2 6 7
M  V30 7 1 7 8
M  V30 8 1 8 9
M  V30 9 1 9 10
M  V30 10 2 10 11
M  V30 11 1 11 12
M  V30 12 2 12 13
M  V30 13 1 13 14
M  V30 14 2 14 15
M  V30 15 1 15 16
M  V30 16 2 16 17
M  V30 17 1 17 18
M  V30 18 1 18 19
M  V30 19 1 19 20
M  V30 20 1 20 21
M  V30 21 1 21 22
M  V30 22 1 22 23
M  V30 23 1 17 24
M  V30 24 2 24 25
M  V30 25 1 25 26
M  V30 26 1 11 27
M  V30 27 1 2 28
M  V30 28 1 28 29
M  V30 29 1 29 30
M  V30 30 1 30 31
M  V30 31 1 30 32
M  V30 32 1 27 4
M  V30 33 1 30 28
M  V30 34 2 27 8
M  V30 35 1 26 12
M  V30 36 1 25 14
M  V30 37 1 23 18
M  V30 38 1 3 33
M  V30 39 1 5 34
M  V30 40 1 6 35
M  V30 41 1 7 36
M  V30 42 1 9 37
M  V30 43 1 15 38
M  V30 44 1 16 39
M  V30 45 1 19 40
M  V30 46 1 19 41
M  V30 47 1 20 42
M  V30 48 1 20 43
M  V30 49 1 22 44
M  V30 50 1 22 45
M  V30 51 1 23 46
M  V30 52 1 23 47
M  V30 53 1 24 48
M  V30 54 1 26 49
M  V30 55 1 28 50
M  V30 56 1 29 51
M  V30 57 1 29 52
M  V30 END BOND
M  V30 END CTAB
M  END
>  <Dataset>  (672) 
ChEMBL_Kinases

>  <Ligand_Instance>  (672) 
nan

>  <PDB_ID>  (672) 
nan

>  <Standardized_SMILES>  (672) 
O=C(Nc1cccc2[nH]nc(-c3nc4ccc(N5CCOCC5)cc4[nH]3)c12)C1CC1(F)F

>  <Name>  (672) 
nan

>  <Pocket>  (672) 
nan

>  <ATP_Site>  (672) 
nan

>  <Peripheral>  (672) 
nan

>  <Num_H_Atoms_ProtBoundConf>  (672) 
nan

>  <Num_Resolved_Atoms>  (672) 
nan

>  <Num_Not_Resolved_Atoms>  (672) 
nan

$$$$
CHEMBL3659979
     RDKit          3D

  0  0  0  0  0  0  0  0  0  0999 V3000
M  V30 BEGIN CTAB
M  V30 COUNTS 28 31 0 0 0
M  V30 BEGIN ATOM
M  V30 1 Br -1.333186 -5.454847 1.933285 0
M  V30 2 C -0.224292 -4.057801 2.587160 0
M  V30 3 C 0.485522 -4.155343 3.765963 0
M  V30 4 C 1.306166 -3.182003 4.296292 0
M  V30 5 C 1.439017 -1.999775 3.596720 0
M  V30 6 N 2.128331 -0.835036 3.776084 0
M  V30 7 N 1.889184 -0.009635 2.771435 0
M  V30 8 C 1.044019 -0.576444 1.891341 0
M  V30 9 C 0.556940 0.041715 0.659865 0
M  V30 10 N -0.284640 -0.506856 -0.228655 0
M  V30 11 C -0.510593 0.368677 -1.251281 0
M  V30 12 C -1.256241 0.372554 -2.414092 0
M  V30 13 C -1.240631 1.479750 -3.238574 0
M  V30 14 C -0.495918 2.615533 -2.950868 0
M  V30 15 C 0.230466 2.547641 -1.768949 0
M  V30 16 C 0.249380 1.465021 -0.909606 0
M  V30 17 N 0.909100 1.277560 0.260269 0
M  V30 18 C 0.748341 -1.828832 2.391418 0
M  V30 19 C -0.065706 -2.846234 1.905125 0
M  V30 20 H 0.405349 -5.078089 4.348575 0
M  V30 21 H 1.838550 -3.309509 5.222085 0
M  V30 22 H 2.726084 -0.737487 4.631053 0
M  V30 23 H -1.841909 -0.511727 -2.647200 0
M  V30 24 H -1.822689 1.501815 -4.160867 0
M  V30 25 H -0.460857 3.497113 -3.572138 0
M  V30 26 H 0.823017 3.414895 -1.512068 0
M  V30 27 H 1.550473 1.948542 0.743537 0
M  V30 28 H -0.587673 -2.694186 0.976701 0
M  V30 END ATOM
M  V30 BEGIN BOND
M  V30 1 1 1 2
M  V30 2 2 2 3
M  V30 3 1 3 4
M  V30 4 2 4 5
M  V30 5 1 5 6
M  V30 6 1 6 7
M  V30 7 2 7 8
M  V30 8 1 8 9
M  V30 9 2 9 10
M  V30 10 1 10 11
M  V30 11 2 11 12
M  V30 12 1 12 13
M  V30 13 2 13 14
M  V30 14 1 14 15
M  V30 15 2 15 16
M  V30 16 1 16 17
M  V30 17 1 8 18
M  V30 18 2 18 19
M  V30 19 1 19 2
M  V30 20 1 18 5
M  V30 21 1 17 9
M  V30 22 1 16 11
M  V30 23 1 3 20
M  V30 24 1 4 21
M  V30 25 1 6 22
M  V30 26 1 12 23
M  V30 27 1 13 24
M  V30 28 1 14 25
M  V30 29 1 15 26
M  V30 30 1 17 27
M  V30 31 1 19 28
M  V30 END BOND
M  V30 END CTAB
M  END
>  <Dataset>  (673) 
ChEMBL_Kinases

>  <Ligand_Instance>  (673) 
nan

>  <PDB_ID>  (673) 
nan

>  <Standardized_SMILES>  (673) 
Brc1ccc2[nH]nc(-c3nc4ccccc4[nH]3)c2c1

>  <Name>  (673) 
nan

>  <Pocket>  (673) 
nan

>  <ATP_Site>  (673) 
nan

>  <Peripheral>  (673) 
nan

>  <Num_H_Atoms_ProtBoundConf>  (673) 
nan

>  <Num_Resolved_Atoms>  (673) 
nan

>  <Num_Not_Resolved_Atoms>  (673) 
nan

$$$$
CHEMBL3659980
     RDKit          3D

  0  0  0  0  0  0  0  0  0  0999 V3000
M  V30 BEGIN CTAB
M  V30 COUNTS 41 45 0 0 0
M  V30 BEGIN ATOM
M  V30 1 O 0.690097 -3.023677 3.100820 0
M  V30 2 C -0.255153 -3.391241 2.338144 0
M  V30 3 N -0.250781 -3.294294 0.908116 0
M  V30 4 C 0.870607 -2.751206 0.202128 0
M  V30 5 C 1.870153 -3.616290 -0.191398 0
M  V30 6 C 2.940891 -3.078738 -0.868846 0
M  V30 7 C 3.000481 -1.728791 -1.137236 0
M  V30 8 N 3.888837 -0.935713 -1.759953 0
M  V30 9 N 3.479625 0.315575 -1.755629 0
M  V30 10 C 2.284499 0.450961 -1.127995 0
M  V30 11 C 1.552134 1.687508 -0.944976 0
M  V30 12 N 2.039473 2.852926 -1.414209 0
M  V30 13 C 1.232979 3.886998 -1.155402 0
M  V30 14 C 1.307963 5.238389 -1.432405 0
M  V30 15 C 0.270491 6.056159 -1.009916 0
M  V30 16 C -0.813836 5.515681 -0.324555 0
M  V30 17 C -0.894249 4.165376 -0.044782 0
M  V30 18 C 0.150442 3.375610 -0.476099 0
M  V30 19 N 0.402415 2.060537 -0.383609 0
M  V30 20 C 2.015146 -0.844582 -0.754798 0
M  V30 21 C 0.958447 -1.408580 -0.080379 0
M  V30 22 N -1.381696 -3.933944 3.004085 0
M  V30 23 C -1.453500 -4.062477 4.460193 0
M  V30 24 C -2.724579 -3.691342 5.136582 0
M  V30 25 C -2.279198 -5.096617 5.093241 0
M  V30 26 H -1.095308 -3.633663 0.391779 0
M  V30 27 H 1.770123 -4.665953 0.046566 0
M  V30 28 H 3.746208 -3.717706 -1.196037 0
M  V30 29 H 4.790137 -1.210110 -2.203168 0
M  V30 30 H 2.180123 5.609745 -1.972592 0
M  V30 31 H 0.307158 7.113359 -1.214632 0
M  V30 32 H -1.624937 6.147308 0.007099 0
M  V30 33 H -1.713963 3.698173 0.483576 0
M  V30 34 H -0.246754 1.421878 0.081758 0
M  V30 35 H 0.144523 -0.796836 0.256259 0
M  V30 36 H -2.200642 -4.258156 2.430251 0
M  V30 37 H -0.544827 -3.694937 4.980082 0
M  V30 38 H -3.505921 -3.280571 4.469487 0
M  V30 39 H -2.693959 -3.182059 6.123376 0
M  V30 40 H -2.750480 -5.852004 4.443668 0
M  V30 41 H -1.910334 -5.542746 6.046488 0
M  V30 END ATOM
M  V30 BEGIN BOND
M  V30 1 2 1 2
M  V30 2 1 2 3
M  V30 3 1 3 4
M  V30 4 2 4 5
M  V30 5 1 5 6
M  V30 6 2 6 7
M  V30 7 1 7 8
M  V30 8 1 8 9
M  V30 9 2 9 10
M  V30 10 1 10 11
M  V30 11 2 11 12
M  V30 12 1 12 13
M  V30 13 2 13 14
M  V30 14 1 14 15
M  V30 15 2 15 16
M  V30 16 1 16 17
M  V30 17 2 17 18
M  V30 18 1 18 19
M  V30 19 1 10 20
M  V30 20 2 20 21
M  V30 21 1 2 22
M  V30 22 1 22 23
M  V30 23 1 23 24
M  V30 24 1 24 25
M  V30 25 1 21 4
M  V30 26 1 25 23
M  V30 27 1 20 7
M  V30 28 1 19 11
M  V30 29 1 18 13
M  V30 30 1 3 26
M  V30 31 1 5 27
M  V30 32 1 6 28
M  V30 33 1 8 29
M  V30 34 1 14 30
M  V30 35 1 15 31
M  V30 36 1 16 32
M  V30 37 1 17 33
M  V30 38 1 19 34
M  V30 39 1 21 35
M  V30 40 1 22 36
M  V30 41 1 23 37
M  V30 42 1 24 38
M  V30 43 1 24 39
M  V30 44 1 25 40
M  V30 45 1 25 41
M  V30 END BOND
M  V30 END CTAB
M  END
>  <Dataset>  (674) 
ChEMBL_Kinases

>  <Ligand_Instance>  (674) 
nan

>  <PDB_ID>  (674) 
nan

>  <Standardized_SMILES>  (674) 
O=C(Nc1ccc2[nH]nc(-c3nc4ccccc4[nH]3)c2c1)NC1CC1

>  <Name>  (674) 
nan

>  <Pocket>  (674) 
nan

>  <ATP_Site>  (674) 
nan

>  <Peripheral>  (674) 
nan

>  <Num_H_Atoms_ProtBoundConf>  (674) 
nan

>  <Num_Resolved_Atoms>  (674) 
nan

>  <Num_Not_Resolved_Atoms>  (674) 
nan

$$$$
CHEMBL3659981
     RDKit          3D

  0  0  0  0  0  0  0  0  0  0999 V3000
M  V30 BEGIN CTAB
M  V30 COUNTS 42 46 0 0 0
M  V30 BEGIN ATOM
M  V30 1 O 2.377697 -2.678646 1.943062 0
M  V30 2 C 1.570067 -3.424087 1.338510 0
M  V30 3 N 1.178101 -3.065668 0.030847 0
M  V30 4 C 1.752042 -1.860784 -0.490365 0
M  V30 5 C 2.941109 -2.019651 -1.170019 0
M  V30 6 C 3.523572 -0.883919 -1.685849 0
M  V30 7 C 2.929038 0.347751 -1.519681 0
M  V30 8 N 3.248193 1.591404 -1.895968 0
M  V30 9 N 2.346055 2.444660 -1.490751 0
M  V30 10 C 1.342035 1.836974 -0.805061 0
M  V30 11 C 0.189055 2.488668 -0.221035 0
M  V30 12 N 0.022564 3.826746 -0.324176 0
M  V30 13 C -1.098389 4.244614 0.276141 0
M  V30 14 C -1.638642 5.508044 0.405423 0
M  V30 15 C -2.846450 5.583685 1.108722 0
M  V30 16 C -3.461075 4.459091 1.641896 0
M  V30 17 C -2.887604 3.210375 1.490741 0
M  V30 18 C -1.698020 3.136342 0.797982 0
M  V30 19 N -0.888469 2.116877 0.472593 0
M  V30 20 C 1.740335 0.524796 -0.842983 0
M  V30 21 C 1.171732 -0.621173 -0.333813 0
M  V30 22 C 1.092372 -4.613946 2.035678 0
M  V30 23 C 1.560687 -4.840033 3.313539 0
M  V30 24 C 1.169911 -5.942491 4.065684 0
M  V30 25 C 0.273983 -6.813040 3.456296 0
M  V30 26 C -0.226428 -6.632475 2.176790 0
M  V30 27 F -1.087106 -7.524322 1.669648 0
M  V30 28 C 0.204034 -5.505340 1.471194 0
M  V30 29 H 0.506885 -3.672628 -0.489260 0
M  V30 30 H 3.469671 -2.947127 -1.343005 0
M  V30 31 H 4.461294 -0.948154 -2.231044 0
M  V30 32 H 4.082527 1.910316 -2.437717 0
M  V30 33 H -1.154666 6.373586 -0.011408 0
M  V30 34 H -3.312428 6.553554 1.238297 0
M  V30 35 H -4.384977 4.532783 2.177499 0
M  V30 36 H -3.315344 2.298851 1.881224 0
M  V30 37 H -1.097772 1.159029 0.740794 0
M  V30 38 H 0.257169 -0.576337 0.200604 0
M  V30 39 H 2.266002 -4.191297 3.844844 0
M  V30 40 H 1.522342 -6.142246 5.069030 0
M  V30 41 H -0.065933 -7.697789 4.006014 0
M  V30 42 H -0.170278 -5.339539 0.470795 0
M  V30 END ATOM
M  V30 BEGIN BOND
M  V30 1 2 1 2
M  V30 2 1 2 3
M  V30 3 1 3 4
M  V30 4 2 4 5
M  V30 5 1 5 6
M  V30 6 2 6 7
M  V30 7 1 7 8
M  V30 8 1 8 9
M  V30 9 2 9 10
M  V30 10 1 10 11
M  V30 11 2 11 12
M  V30 12 1 12 13
M  V30 13 2 13 14
M  V30 14 1 14 15
M  V30 15 2 15 16
M  V30 16 1 16 17
M  V30 17 2 17 18
M  V30 18 1 18 19
M  V30 19 1 10 20
M  V30 20 2 20 21
M  V30 21 1 2 22
M  V30 22 2 22 23
M  V30 23 1 23 24
M  V30 24 2 24 25
M  V30 25 1 25 26
M  V30 26 1 26 27
M  V30 27 2 26 28
M  V30 28 1 21 4
M  V30 29 1 28 22
M  V30 30 1 20 7
M  V30 31 1 19 11
M  V30 32 1 18 13
M  V30 33 1 3 29
M  V30 34 1 5 30
M  V30 35 1 6 31
M  V30 36 1 8 32
M  V30 37 1 14 33
M  V30 38 1 15 34
M  V30 39 1 16 35
M  V30 40 1 17 36
M  V30 41 1 19 37
M  V30 42 1 21 38
M  V30 43 1 23 39
M  V30 44 1 24 40
M  V30 45 1 25 41
M  V30 46 1 28 42
M  V30 END BOND
M  V30 END CTAB
M  END
>  <Dataset>  (675) 
ChEMBL_Kinases

>  <Ligand_Instance>  (675) 
nan

>  <PDB_ID>  (675) 
nan

>  <Standardized_SMILES>  (675) 
O=C(Nc1ccc2[nH]nc(-c3nc4ccccc4[nH]3)c2c1)c1cccc(F)c1

>  <Name>  (675) 
nan

>  <Pocket>  (675) 
nan

>  <ATP_Site>  (675) 
nan

>  <Peripheral>  (675) 
nan

>  <Num_H_Atoms_ProtBoundConf>  (675) 
nan

>  <Num_Resolved_Atoms>  (675) 
nan

>  <Num_Not_Resolved_Atoms>  (675) 
nan

$$$$
CHEMBL3659984
     RDKit          3D

  0  0  0  0  0  0  0  0  0  0999 V3000
M  V30 BEGIN CTAB
M  V30 COUNTS 48 52 0 0 0
M  V30 BEGIN ATOM
M  V30 1 C 2.438683 -5.117473 2.469003 0 CHG=-1 VAL=3
M  V30 2 N 3.174666 -4.299929 2.055233 0 CHG=1 VAL=4
M  V30 3 C 4.069182 -3.342764 1.561362 0
M  V30 4 C 5.153892 -4.068777 0.806819 0
M  V30 5 C 4.757441 -2.724494 2.777045 0
M  V30 6 C 3.356730 -2.327975 0.768610 0
M  V30 7 C 3.538789 -1.953418 -0.545749 0
M  V30 8 C 2.766368 -0.967318 -1.122636 0
M  V30 9 C 1.794233 -0.318128 -0.434685 0
M  V30 10 C 0.948025 0.736384 -0.987990 0
M  V30 11 C 1.336182 1.646249 -1.958116 0
M  V30 12 C 0.450858 2.604401 -2.404607 0
M  V30 13 C -0.840233 2.718372 -1.930887 0
M  V30 14 N -1.917305 3.505937 -2.141403 0
M  V30 15 N -2.934209 3.137106 -1.366191 0
M  V30 16 C -2.571704 2.086605 -0.607402 0
M  V30 17 C -3.378663 1.367739 0.379724 0
M  V30 18 N -2.957627 0.316438 1.107003 0
M  V30 19 C -3.927270 -0.133059 1.927486 0
M  V30 20 C -3.922578 -1.178567 2.832942 0
M  V30 21 C -5.105431 -1.392105 3.541513 0
M  V30 22 C -6.194612 -0.571968 3.311444 0
M  V30 23 C -6.156877 0.467989 2.392071 0
M  V30 24 C -4.983960 0.706455 1.666149 0
M  V30 25 N -4.647153 1.611628 0.730112 0
M  V30 26 C -1.259245 1.810706 -0.949412 0
M  V30 27 C -0.345366 0.862072 -0.523849 0
M  V30 28 C 1.594520 -0.685137 0.902071 0
M  V30 29 C 2.361093 -1.677641 1.507775 0
M  V30 30 H 5.680933 -4.689204 1.590613 0
M  V30 31 H 4.735839 -4.797198 0.071409 0
M  V30 32 H 5.923197 -3.404438 0.381118 0
M  V30 33 H 4.938449 -3.560188 3.483393 0
M  V30 34 H 4.058606 -1.981333 3.251106 0
M  V30 35 H 5.691322 -2.240334 2.425115 0
M  V30 36 H 4.320025 -2.499436 -1.039843 0
M  V30 37 H 2.946016 -0.708524 -2.156750 0
M  V30 38 H 2.338565 1.557544 -2.326274 0
M  V30 39 H 0.762368 3.310450 -3.162195 0
M  V30 40 H -1.890880 4.299065 -2.847711 0
M  V30 41 H -3.049192 -1.797420 2.982923 0
M  V30 42 H -5.112282 -2.207052 4.252181 0
M  V30 43 H -7.083436 -0.806159 3.907346 0
M  V30 44 H -7.036753 1.078407 2.251627 0
M  V30 45 H -5.278500 2.350941 0.367542 0
M  V30 46 H -0.741115 0.181592 0.246898 0
M  V30 47 H 0.816144 -0.183667 1.499264 0
M  V30 48 H 2.126290 -1.889588 2.553530 0
M  V30 END ATOM
M  V30 BEGIN BOND
M  V30 1 3 1 2
M  V30 2 1 2 3
M  V30 3 1 3 4
M  V30 4 1 3 5
M  V30 5 1 3 6
M  V30 6 2 6 7
M  V30 7 1 7 8
M  V30 8 2 8 9
M  V30 9 1 9 10
M  V30 10 2 10 11
M  V30 11 1 11 12
M  V30 12 2 12 13
M  V30 13 1 13 14
M  V30 14 1 14 15
M  V30 15 2 15 16
M  V30 16 1 16 17
M  V30 17 2 17 18
M  V30 18 1 18 19
M  V30 19 2 19 20
M  V30 20 1 20 21
M  V30 21 2 21 22
M  V30 22 1 22 23
M  V30 23 2 23 24
M  V30 24 1 24 25
M  V30 25 1 16 26
M  V30 26 2 26 27
M  V30 27 1 9 28
M  V30 28 2 28 29
M  V30 29 1 29 6
M  V30 30 1 27 10
M  V30 31 1 26 13
M  V30 32 1 25 17
M  V30 33 1 24 19
M  V30 34 1 4 30
M  V30 35 1 4 31
M  V30 36 1 4 32
M  V30 37 1 5 33
M  V30 38 1 5 34
M  V30 39 1 5 35
M  V30 40 1 7 36
M  V30 41 1 8 37
M  V30 42 1 11 38
M  V30 43 1 12 39
M  V30 44 1 14 40
M  V30 45 1 20 41
M  V30 46 1 21 42
M  V30 47 1 22 43
M  V30 48 1 23 44
M  V30 49 1 25 45
M  V30 50 1 27 46
M  V30 51 1 28 47
M  V30 52 1 29 48
M  V30 END BOND
M  V30 END CTAB
M  END
>  <Dataset>  (676) 
ChEMBL_Kinases

>  <Ligand_Instance>  (676) 
nan

>  <PDB_ID>  (676) 
nan

>  <Standardized_SMILES>  (676) 
[C-]#[N+]C(C)(C)c1ccc(-c2ccc3[nH]nc(-c4nc5ccccc5[nH]4)c3c2)cc1

>  <Name>  (676) 
nan

>  <Pocket>  (676) 
nan

>  <ATP_Site>  (676) 
nan

>  <Peripheral>  (676) 
nan

>  <Num_H_Atoms_ProtBoundConf>  (676) 
nan

>  <Num_Resolved_Atoms>  (676) 
nan

>  <Num_Not_Resolved_Atoms>  (676) 
nan

$$$$
CHEMBL3659990
     RDKit          3D

  0  0  0  0  0  0  0  0  0  0999 V3000
M  V30 BEGIN CTAB
M  V30 COUNTS 52 57 0 0 0
M  V30 BEGIN ATOM
M  V30 1 O 4.020924 -4.647805 2.084573 0
M  V30 2 C 3.185987 -5.213831 1.322196 0
M  V30 3 N 2.792469 -4.662942 0.072510 0
M  V30 4 C 3.099593 -3.507607 -0.677905 0
M  V30 5 C 4.174413 -3.645942 -1.564072 0
M  V30 6 C 4.591460 -2.597153 -2.368100 0
M  V30 7 C 3.897665 -1.412593 -2.253055 0
M  V30 8 N 4.043267 -0.233116 -2.873821 0
M  V30 9 N 3.146382 0.619467 -2.442468 0
M  V30 10 C 2.333287 0.064839 -1.496577 0
M  V30 11 C 1.239081 0.735404 -0.815795 0
M  V30 12 N 0.946953 2.021365 -1.097810 0
M  V30 13 C -0.087410 2.438682 -0.363849 0
M  V30 14 C -0.754361 3.655664 -0.287054 0
M  V30 15 C -1.808990 3.776177 0.589724 0
M  V30 16 C -2.236194 2.744510 1.397219 0
M  V30 17 N -3.329107 2.897010 2.292877 0
M  V30 18 C -3.822300 1.877796 3.197279 0
M  V30 19 C -5.194864 1.424031 2.701116 0
M  V30 20 O -5.759463 2.381630 1.872498 0
M  V30 21 C -5.591356 3.661696 2.366936 0
M  V30 22 C -4.129341 4.076947 2.455824 0
M  V30 23 C -1.550431 1.579193 1.282261 0
M  V30 24 C -0.489732 1.390116 0.428886 0
M  V30 25 N 0.355598 0.398765 0.101451 0
M  V30 26 C 2.833194 -1.213407 -1.401422 0
M  V30 27 C 2.477066 -2.279990 -0.643616 0
M  V30 28 C 2.542800 -6.503736 1.664171 0
M  V30 29 C 2.330788 -7.550422 0.613957 0
M  V30 30 C 1.159151 -6.839046 1.315942 0
M  V30 31 F 0.362044 -6.121972 0.478236 0
M  V30 32 F 0.410087 -7.632030 2.194611 0
M  V30 33 H 2.110044 -5.091173 -0.589096 0
M  V30 34 H 4.722176 -4.595094 -1.648593 0
M  V30 35 H 5.426663 -2.726755 -3.047312 0
M  V30 36 H 4.745487 0.028683 -3.600096 0
M  V30 37 H -0.430891 4.472622 -0.913351 0
M  V30 38 H -2.276809 4.746979 0.594715 0
M  V30 39 H -4.020477 2.269073 4.230304 0
M  V30 40 H -3.150085 1.025722 3.333366 0
M  V30 41 H -5.851963 1.138438 3.550827 0
M  V30 42 H -5.044565 0.500414 2.110616 0
M  V30 43 H -6.072981 4.350957 1.641378 0
M  V30 44 H -6.120146 3.818928 3.346487 0
M  V30 45 H -3.889412 4.909124 1.799387 0
M  V30 46 H -3.937266 4.431826 3.510123 0
M  V30 47 H -1.797225 0.701193 1.866177 0
M  V30 48 H 0.274323 -0.508996 0.552883 0
M  V30 49 H 1.666345 -2.212757 0.040139 0
M  V30 50 H 2.877918 -6.902203 2.647028 0
M  V30 51 H 2.428472 -8.631930 0.866042 0
M  V30 52 H 2.516072 -7.303293 -0.454060 0
M  V30 END ATOM
M  V30 BEGIN BOND
M  V30 1 2 1 2
M  V30 2 1 2 3
M  V30 3 1 3 4
M  V30 4 2 4 5
M  V30 5 1 5 6
M  V30 6 2 6 7
M  V30 7 1 7 8
M  V30 8 1 8 9
M  V30 9 2 9 10
M  V30 10 1 10 11
M  V30 11 2 11 12
M  V30 12 1 12 13
M  V30 13 2 13 14
M  V30 14 1 14 15
M  V30 15 2 15 16
M  V30 16 1 16 17
M  V30 17 1 17 18
M  V30 18 1 18 19
M  V30 19 1 19 20
M  V30 20 1 20 21
M  V30 21 1 21 22
M  V30 22 1 16 23
M  V30 23 2 23 24
M  V30 24 1 24 25
M  V30 25 1 10 26
M  V30 26 2 26 27
M  V30 27 1 2 28
M  V30 28 1 28 29
M  V30 29 1 29 30
M  V30 30 1 30 31
M  V30 31 1 30 32
M  V30 32 1 27 4
M  V30 33 1 30 28
M  V30 34 1 26 7
M  V30 35 1 25 11
M  V30 36 1 24 13
M  V30 37 1 22 17
M  V30 38 1 3 33
M  V30 39 1 5 34
M  V30 40 1 6 35
M  V30 41 1 8 36
M  V30 42 1 14 37
M  V30 43 1 15 38
M  V30 44 1 18 39
M  V30 45 1 18 40
M  V30 46 1 19 41
M  V30 47 1 19 42
M  V30 48 1 21 43
M  V30 49 1 21 44
M  V30 50 1 22 45
M  V30 51 1 22 46
M  V30 52 1 23 47
M  V30 53 1 25 48
M  V30 54 1 27 49
M  V30 55 1 28 50
M  V30 56 1 29 51
M  V30 57 1 29 52
M  V30 END BOND
M  V30 END CTAB
M  END
>  <Dataset>  (677) 
ChEMBL_Kinases

>  <Ligand_Instance>  (677) 
nan

>  <PDB_ID>  (677) 
nan

>  <Standardized_SMILES>  (677) 
O=C(Nc1ccc2[nH]nc(-c3nc4ccc(N5CCOCC5)cc4[nH]3)c2c1)C1CC1(F)F

>  <Name>  (677) 
nan

>  <Pocket>  (677) 
nan

>  <ATP_Site>  (677) 
nan

>  <Peripheral>  (677) 
nan

>  <Num_H_Atoms_ProtBoundConf>  (677) 
nan

>  <Num_Resolved_Atoms>  (677) 
nan

>  <Num_Not_Resolved_Atoms>  (677) 
nan

$$$$
CHEMBL3659991
     RDKit          3D

  0  0  0  0  0  0  0  0  0  0999 V3000
M  V30 BEGIN CTAB
M  V30 COUNTS 55 60 0 0 0
M  V30 BEGIN ATOM
M  V30 1 C 2.449432 -3.267114 7.308043 0
M  V30 2 C 2.760719 -1.987028 6.591126 0
M  V30 3 C 3.309661 -2.237299 5.198329 0
M  V30 4 N 2.288877 -1.984887 4.201525 0
M  V30 5 C 2.501979 -1.346239 2.952685 0
M  V30 6 C 3.785636 -1.000436 2.596766 0
M  V30 7 C 4.006163 -0.374295 1.382996 0
M  V30 8 C 2.955177 -0.094318 0.529028 0
M  V30 9 N 2.867551 0.484553 -0.672175 0
M  V30 10 C 1.594415 0.531786 -1.112915 0
M  V30 11 C 1.266295 1.120143 -2.398202 0
M  V30 12 N 2.165940 1.667444 -3.268176 0
M  V30 13 N 1.577236 2.122915 -4.353626 0
M  V30 14 C 0.251385 1.913240 -4.285584 0
M  V30 15 C -0.796031 2.192905 -5.137392 0
M  V30 16 C -2.082229 1.847062 -4.781527 0
M  V30 17 C -2.264220 1.226354 -3.568282 0
M  V30 18 N -3.600546 0.879717 -3.224207 0
M  V30 19 C -4.311443 -0.299014 -3.480823 0
M  V30 20 O -3.686981 -1.195766 -4.109775 0
M  V30 21 C -5.709171 -0.491638 -3.045748 0
M  V30 22 C -6.622712 -1.363055 -3.853822 0
M  V30 23 C -6.021956 -1.870634 -2.563725 0
M  V30 24 F -5.060737 -2.855628 -2.679935 0
M  V30 25 F -6.818678 -1.975557 -1.447414 0
M  V30 26 C -1.200486 0.963334 -2.745928 0
M  V30 27 C 0.076634 1.291657 -3.068597 0
M  V30 28 N 0.902124 -0.041738 -0.133753 0
M  V30 29 C 1.672730 -0.443173 0.891414 0
M  V30 30 C 1.456942 -1.067754 2.103391 0
M  V30 31 C 1.057361 -2.515161 4.746354 0
M  V30 32 C 0.585798 -1.613020 5.863738 0
M  V30 33 O 1.649730 -1.169271 6.613021 0
M  V30 34 H 2.940958 -3.303326 8.322478 0
M  V30 35 H 2.840208 -4.107889 6.713248 0
M  V30 36 H 1.369563 -3.438297 7.493193 0
M  V30 37 H 3.548765 -1.458239 7.190846 0
M  V30 38 H 4.200368 -1.611533 5.062468 0
M  V30 39 H 3.599608 -3.310510 5.177511 0
M  V30 40 H 4.671045 -1.160409 3.158961 0
M  V30 41 H 4.994249 -0.076528 1.044864 0
M  V30 42 H 2.127888 2.571839 -5.117756 0
M  V30 43 H -0.570206 2.688334 -6.084032 0
M  V30 44 H -2.876274 2.087203 -5.484495 0
M  V30 45 H -4.049213 1.688311 -2.699704 0
M  V30 46 H -6.143874 0.367104 -2.504139 0
M  V30 47 H -6.227716 -1.798219 -4.781061 0
M  V30 48 H -7.700149 -1.091854 -3.805609 0
M  V30 49 H -1.420857 0.483094 -1.828661 0
M  V30 50 H -0.099599 -0.183345 -0.116924 0
M  V30 51 H 0.429142 -1.311406 2.322686 0
M  V30 52 H 0.267191 -2.480868 3.953338 0
M  V30 53 H 1.142936 -3.560713 5.111709 0
M  V30 54 H -0.002378 -0.781205 5.415699 0
M  V30 55 H -0.103170 -2.200567 6.515824 0
M  V30 END ATOM
M  V30 BEGIN BOND
M  V30 1 1 1 2
M  V30 2 1 2 3
M  V30 3 1 3 4
M  V30 4 1 4 5
M  V30 5 2 5 6
M  V30 6 1 6 7
M  V30 7 2 7 8
M  V30 8 1 8 9
M  V30 9 2 9 10
M  V30 10 1 10 11
M  V30 11 2 11 12
M  V30 12 1 12 13
M  V30 13 1 13 14
M  V30 14 2 14 15
M  V30 15 1 15 16
M  V30 16 2 16 17
M  V30 17 1 17 18
M  V30 18 1 18 19
M  V30 19 2 19 20
M  V30 20 1 19 21
M  V30 21 1 21 22
M  V30 22 1 22 23
M  V30 23 1 23 24
M  V30 24 1 23 25
M  V30 25 1 17 26
M  V30 26 2 26 27
M  V30 27 1 10 28
M  V30 28 1 28 29
M  V30 29 2 29 30
M  V30 30 1 4 31
M  V30 31 1 31 32
M  V30 32 1 32 33
M  V30 33 1 33 2
M  V30 34 1 30 5
M  V30 35 1 29 8
M  V30 36 1 27 11
M  V30 37 1 27 14
M  V30 38 1 23 21
M  V30 39 1 1 34
M  V30 40 1 1 35
M  V30 41 1 1 36
M  V30 42 1 2 37
M  V30 43 1 3 38
M  V30 44 1 3 39
M  V30 45 1 6 40
M  V30 46 1 7 41
M  V30 47 1 13 42
M  V30 48 1 15 43
M  V30 49 1 16 44
M  V30 50 1 18 45
M  V30 51 1 21 46
M  V30 52 1 22 47
M  V30 53 1 22 48
M  V30 54 1 26 49
M  V30 55 1 28 50
M  V30 56 1 30 51
M  V30 57 1 31 52
M  V30 58 1 31 53
M  V30 59 1 32 54
M  V30 60 1 32 55
M  V30 END BOND
M  V30 END CTAB
M  END
>  <Dataset>  (678) 
ChEMBL_Kinases

>  <Ligand_Instance>  (678) 
nan

>  <PDB_ID>  (678) 
nan

>  <Standardized_SMILES>  (678) 
CC1CN(c2ccc3nc(-c4n[nH]c5ccc(NC(=O)C6CC6(F)F)cc45)[nH]c3c2)CCO1

>  <Name>  (678) 
nan

>  <Pocket>  (678) 
nan

>  <ATP_Site>  (678) 
nan

>  <Peripheral>  (678) 
nan

>  <Num_H_Atoms_ProtBoundConf>  (678) 
nan

>  <Num_Resolved_Atoms>  (678) 
nan

>  <Num_Not_Resolved_Atoms>  (678) 
nan

$$$$
CHEMBL3660057
     RDKit          3D

  0  0  0  0  0  0  0  0  0  0999 V3000
M  V30 BEGIN CTAB
M  V30 COUNTS 45 49 0 0 0
M  V30 BEGIN ATOM
M  V30 1 F -0.227314 -5.663819 3.921001 0
M  V30 2 C -0.041936 -4.909332 2.827632 0
M  V30 3 C 0.018549 -3.537638 2.827003 0
M  V30 4 C 0.211380 -2.814482 1.667761 0
M  V30 5 N 0.351705 -3.395622 0.471711 0
M  V30 6 C 0.555040 -2.910999 -0.744299 0
M  V30 7 C 0.715070 -1.543114 -1.210683 0
M  V30 8 C 1.131373 -1.445964 -2.550697 0
M  V30 9 C 1.406594 -0.294879 -3.222626 0
M  V30 10 C 1.269160 0.891499 -2.542720 0
M  V30 11 C 1.553883 2.076903 -3.183637 0
M  V30 12 C 1.411838 3.249254 -2.438465 0
M  V30 13 C 0.994433 3.121734 -1.115468 0
M  V30 14 C 0.708397 1.904584 -0.481810 0
M  V30 15 O 0.338102 2.184250 0.772052 0
M  V30 16 C -0.147126 1.371611 1.753045 0
M  V30 17 C 0.818892 1.180361 2.918762 0
M  V30 18 C 0.189852 0.237629 3.894747 0
M  V30 19 N -1.151392 -0.134286 3.659314 0
M  V30 20 C -2.054240 0.840918 3.172557 0
M  V30 21 C -1.402405 1.972434 2.428145 0
M  V30 22 F -0.944254 2.869867 3.379377 0
M  V30 23 C 0.859001 0.769945 -1.235070 0
M  V30 24 N 0.587483 -0.367134 -0.570321 0
M  V30 25 N 0.620365 -4.018385 -1.489196 0
M  V30 26 N 0.464868 -5.097755 -0.765599 0
M  V30 27 C 0.287922 -4.737257 0.510656 0
M  V30 28 C 0.100204 -5.533983 1.608622 0
M  V30 29 H -0.101130 -3.109700 3.833822 0
M  V30 30 H 0.258590 -1.757530 1.738943 0
M  V30 31 H 1.275030 -2.331928 -3.193714 0
M  V30 32 H 1.725270 -0.254237 -4.251970 0
M  V30 33 H 1.868703 2.049823 -4.215010 0
M  V30 34 H 1.645929 4.136404 -2.982542 0
M  V30 35 H 0.942041 4.138561 -0.699129 0
M  V30 36 H -0.436563 0.370533 1.435944 0
M  V30 37 H 0.907642 2.169652 3.417129 0
M  V30 38 H 1.813038 0.856365 2.549979 0
M  V30 39 H 0.801693 -0.712614 3.824206 0
M  V30 40 H 0.382898 0.558382 4.963389 0
M  V30 41 H -1.374752 -1.114265 3.509680 0
M  V30 42 H -2.707419 0.326245 2.407755 0
M  V30 43 H -2.800973 1.206529 3.929474 0
M  V30 44 H -2.063658 2.444615 1.685013 0
M  V30 45 H 0.067049 -6.616183 1.505385 0
M  V30 END ATOM
M  V30 BEGIN BOND
M  V30 1 1 1 2
M  V30 2 1 2 3
M  V30 3 2 3 4
M  V30 4 1 4 5
M  V30 5 1 5 6
M  V30 6 1 6 7
M  V30 7 2 7 8
M  V30 8 1 8 9
M  V30 9 2 9 10
M  V30 10 1 10 11
M  V30 11 2 11 12
M  V30 12 1 12 13
M  V30 13 2 13 14
M  V30 14 1 14 15
M  V30 15 1 15 16
M  V30 16 1 16 17
M  V30 17 1 17 18
M  V30 18 1 18 19
M  V30 19 1 19 20
M  V30 20 1 20 21
M  V30 21 1 21 22
M  V30 22 1 14 23
M  V30 23 2 23 24
M  V30 24 2 6 25
M  V30 25 1 25 26
M  V30 26 2 26 27
M  V30 27 1 27 28
M  V30 28 2 28 2
M  V30 29 1 27 5
M  V30 30 1 24 7
M  V30 31 1 23 10
M  V30 32 1 21 16
M  V30 33 1 3 29
M  V30 34 1 4 30
M  V30 35 1 8 31
M  V30 36 1 9 32
M  V30 37 1 11 33
M  V30 38 1 12 34
M  V30 39 1 13 35
M  V30 40 1 16 36
M  V30 41 1 17 37
M  V30 42 1 17 38
M  V30 43 1 18 39
M  V30 44 1 18 40
M  V30 45 1 19 41
M  V30 46 1 20 42
M  V30 47 1 20 43
M  V30 48 1 21 44
M  V30 49 1 28 45
M  V30 END BOND
M  V30 END CTAB
M  END
>  <Dataset>  (679) 
ChEMBL_Kinases

>  <Ligand_Instance>  (679) 
nan

>  <PDB_ID>  (679) 
nan

>  <Standardized_SMILES>  (679) 
Fc1ccn2c(-c3ccc4cccc(OC5CCNCC5F)c4n3)nnc2c1

>  <Name>  (679) 
nan

>  <Pocket>  (679) 
nan

>  <ATP_Site>  (679) 
nan

>  <Peripheral>  (679) 
nan

>  <Num_H_Atoms_ProtBoundConf>  (679) 
nan

>  <Num_Resolved_Atoms>  (679) 
nan

>  <Num_Not_Resolved_Atoms>  (679) 
nan

$$$$
CHEMBL366003
     RDKit          3D

  0  0  0  0  0  0  0  0  0  0999 V3000
M  V30 BEGIN CTAB
M  V30 COUNTS 55 58 0 0 0
M  V30 BEGIN ATOM
M  V30 1 C -2.173930 -3.647969 -5.384243 0
M  V30 2 C -2.302643 -2.262359 -4.785019 0
M  V30 3 O -1.044526 -1.699603 -4.517140 0
M  V30 4 C -1.226757 -0.417379 -3.932662 0
M  V30 5 N -1.903196 -0.619063 -2.668782 0
M  V30 6 O -3.125552 -0.678917 -2.259545 0
M  V30 7 C -3.232578 -0.889551 -0.975900 0
M  V30 8 O -4.286215 -0.994304 -0.299870 0
M  V30 9 C -1.950061 -0.985722 -0.444247 0
M  V30 10 C -1.554453 -1.209050 0.940231 0
M  V30 11 C -0.782754 -2.315311 1.283728 0
M  V30 12 C -0.404735 -2.547253 2.565189 0
M  V30 13 C -0.798189 -1.668508 3.521449 0
M  V30 14 F -0.449608 -1.850505 4.823576 0
M  V30 15 C -1.569749 -0.528335 3.295462 0
M  V30 16 C -1.934986 -0.330031 1.962986 0
M  V30 17 C -1.135492 -0.810242 -1.549256 0
M  V30 18 C 0.333438 -0.840318 -1.393229 0
M  V30 19 C 1.255358 -1.844392 -1.652728 0
M  V30 20 C 2.588975 -1.591624 -1.421678 0
M  V30 21 N 3.022669 -0.389950 -0.948834 0
M  V30 22 C 2.098735 0.592391 -0.699030 0
M  V30 23 N 2.579512 1.845676 -0.217366 0
M  V30 24 C 1.952695 2.511567 0.913501 0 CFG=2
M  V30 25 C 2.067416 1.657064 2.159947 0
M  V30 26 C 0.583561 2.877332 0.557270 0
M  V30 27 C 0.507572 3.327004 -0.766331 0
M  V30 28 C -0.722267 3.742949 -1.293949 0
M  V30 29 C -1.835705 3.703463 -0.505371 0
M  V30 30 C -1.822592 3.270419 0.805792 0
M  V30 31 C -0.583172 2.868134 1.284638 0
M  V30 32 N 0.784157 0.340338 -0.926549 0
M  V30 33 H -2.008785 -4.424316 -4.606327 0
M  V30 34 H -3.167237 -3.882850 -5.862528 0
M  V30 35 H -1.362961 -3.720924 -6.110759 0
M  V30 36 H -2.704875 -1.623604 -5.638921 0
M  V30 37 H -3.011002 -2.203145 -3.955737 0
M  V30 38 H -0.229287 0.025652 -3.839059 0
M  V30 39 H -1.895845 0.184153 -4.618600 0
M  V30 40 H -0.488967 -2.996545 0.487300 0
M  V30 41 H 0.193264 -3.404098 2.840739 0
M  V30 42 H -1.884850 0.176950 4.071258 0
M  V30 43 H -2.537445 0.530606 1.675760 0
M  V30 44 H 0.772663 -2.730290 -2.014867 0
M  V30 45 H 3.243719 -2.419829 -1.646531 0
M  V30 46 H 3.397831 2.194166 -0.769721 0
M  V30 47 H 2.529247 3.446282 1.106064 0
M  V30 48 H 1.345150 1.922899 2.944476 0
M  V30 49 H 2.066289 0.603435 1.859585 0
M  V30 50 H 3.077936 1.833671 2.639588 0
M  V30 51 H 1.330927 3.390241 -1.458154 0
M  V30 52 H -0.863495 4.103576 -2.301664 0
M  V30 53 H -2.822971 4.020663 -0.869836 0
M  V30 54 H -2.649355 3.207739 1.504013 0
M  V30 55 H -0.465740 2.518497 2.280921 0
M  V30 END ATOM
M  V30 BEGIN BOND
M  V30 1 1 1 2
M  V30 2 1 2 3
M  V30 3 1 3 4
M  V30 4 1 4 5
M  V30 5 1 5 6
M  V30 6 1 6 7
M  V30 7 2 7 8
M  V30 8 1 7 9
M  V30 9 1 9 10
M  V30 10 2 10 11
M  V30 11 1 11 12
M  V30 12 2 12 13
M  V30 13 1 13 14
M  V30 14 1 13 15
M  V30 15 2 15 16
M  V30 16 2 9 17
M  V30 17 1 17 18
M  V30 18 2 18 19
M  V30 19 1 19 20
M  V30 20 2 20 21
M  V30 21 1 21 22
M  V30 22 1 22 23
M  V30 23 1 23 24
M  V30 24 1 24 25
M  V30 25 1 24 26
M  V30 26 2 26 27
M  V30 27 1 27 28
M  V30 28 2 28 29
M  V30 29 1 29 30
M  V30 30 2 30 31
M  V30 31 2 22 32
M  V30 32 1 17 5
M  V30 33 1 32 18
M  V30 34 1 16 10
M  V30 35 1 31 26
M  V30 36 1 1 33
M  V30 37 1 1 34
M  V30 38 1 1 35
M  V30 39 1 2 36
M  V30 40 1 2 37
M  V30 41 1 4 38
M  V30 42 1 4 39
M  V30 43 1 11 40
M  V30 44 1 12 41
M  V30 45 1 15 42
M  V30 46 1 16 43
M  V30 47 1 19 44
M  V30 48 1 20 45
M  V30 49 1 23 46
M  V30 50 1 24 47 CFG=1
M  V30 51 1 25 48
M  V30 52 1 25 49
M  V30 53 1 25 50
M  V30 54 1 27 51
M  V30 55 1 28 52
M  V30 56 1 29 53
M  V30 57 1 30 54
M  V30 58 1 31 55
M  V30 END BOND
M  V30 END CTAB
M  END
>  <Dataset>  (680) 
ChEMBL_Kinases

>  <Ligand_Instance>  (680) 
nan

>  <PDB_ID>  (680) 
nan

>  <Standardized_SMILES>  (680) 
CCOCn1oc(=O)c(-c2ccc(F)cc2)c1-c1ccnc(N[C@H](C)c2ccccc2)n1

>  <Name>  (680) 
nan

>  <Pocket>  (680) 
nan

>  <ATP_Site>  (680) 
nan

>  <Peripheral>  (680) 
nan

>  <Num_H_Atoms_ProtBoundConf>  (680) 
nan

>  <Num_Resolved_Atoms>  (680) 
nan

>  <Num_Not_Resolved_Atoms>  (680) 
nan

$$$$
CHEMBL3660041
     RDKit          3D

  0  0  0  0  0  0  0  0  0  0999 V3000
M  V30 BEGIN CTAB
M  V30 COUNTS 47 50 0 0 0
M  V30 BEGIN ATOM
M  V30 1 C 1.841513 -3.501696 3.352311 0
M  V30 2 C 1.792069 -2.696581 2.030009 0
M  V30 3 C 0.815271 -3.490919 1.160938 0
M  V30 4 C 3.142429 -2.741457 1.435456 0
M  V30 5 N 3.487695 -4.165132 1.204479 0
M  V30 6 C 1.214805 -1.378634 2.401857 0
M  V30 7 O 1.030240 -0.409767 1.480891 0
M  V30 8 C 1.719897 0.364508 0.674060 0
M  V30 9 C 3.041562 0.591712 0.370075 0
M  V30 10 C 3.578517 1.477608 -0.534277 0
M  V30 11 F 4.924986 1.528768 -0.667709 0
M  V30 12 C 2.660477 2.227771 -1.215331 0
M  V30 13 C 1.306027 2.105585 -1.011532 0
M  V30 14 C 0.512476 2.930203 -1.773025 0
M  V30 15 C -0.850848 2.839240 -1.599443 0
M  V30 16 C -1.331833 1.936560 -0.682530 0
M  V30 17 C -2.765100 1.797803 -0.457748 0
M  V30 18 N -3.720483 2.500825 -1.089711 0
M  V30 19 N -4.924724 2.123245 -0.644383 0
M  V30 20 C -4.716695 1.166353 0.283156 0
M  V30 21 C -5.694340 0.503337 0.995007 0
M  V30 22 C -5.253626 -0.448697 1.903416 0
M  V30 23 C -3.903600 -0.641163 2.009306 0
M  V30 24 C -2.966468 0.049867 1.272423 0
M  V30 25 N -3.389209 0.968287 0.395937 0
M  V30 26 N -0.499937 1.180626 0.009092 0
M  V30 27 C 0.844107 1.176152 -0.069496 0
M  V30 28 H 2.737954 -3.263366 3.930100 0
M  V30 29 H 0.967355 -3.227999 3.978801 0
M  V30 30 H 1.748285 -4.582417 3.125408 0
M  V30 31 H 1.002617 -3.293219 0.084013 0
M  V30 32 H -0.205415 -3.176410 1.435128 0
M  V30 33 H 1.013306 -4.567828 1.335612 0
M  V30 34 H 3.946958 -2.343687 2.078356 0
M  V30 35 H 3.215727 -2.258033 0.435196 0
M  V30 36 H 4.157920 -4.214293 0.408850 0
M  V30 37 H 4.030029 -4.525700 2.039130 0
M  V30 38 H 1.905296 -0.994258 3.240396 0
M  V30 39 H 0.232316 -1.650830 2.938750 0
M  V30 40 H 3.714372 -0.014424 0.950841 0
M  V30 41 H 3.062568 2.935947 -1.936555 0
M  V30 42 H 0.928338 3.624025 -2.480646 0
M  V30 43 H -1.560705 3.427858 -2.134148 0
M  V30 44 H -6.742710 0.698569 0.867799 0
M  V30 45 H -5.979480 -0.999341 2.489295 0
M  V30 46 H -3.558129 -1.383550 2.717568 0
M  V30 47 H -1.921723 -0.129716 1.384474 0
M  V30 END ATOM
M  V30 BEGIN BOND
M  V30 1 1 1 2
M  V30 2 1 2 3
M  V30 3 1 2 4
M  V30 4 1 4 5
M  V30 5 1 2 6
M  V30 6 1 6 7
M  V30 7 1 7 8
M  V30 8 2 8 9
M  V30 9 1 9 10
M  V30 10 1 10 11
M  V30 11 2 10 12
M  V30 12 1 12 13
M  V30 13 2 13 14
M  V30 14 1 14 15
M  V30 15 2 15 16
M  V30 16 1 16 17
M  V30 17 2 17 18
M  V30 18 1 18 19
M  V30 19 2 19 20
M  V30 20 1 20 21
M  V30 21 2 21 22
M  V30 22 1 22 23
M  V30 23 2 23 24
M  V30 24 1 24 25
M  V30 25 1 16 26
M  V30 26 2 26 27
M  V30 27 1 27 8
M  V30 28 1 27 13
M  V30 29 1 25 17
M  V30 30 1 25 20
M  V30 31 1 1 28
M  V30 32 1 1 29
M  V30 33 1 1 30
M  V30 34 1 3 31
M  V30 35 1 3 32
M  V30 36 1 3 33
M  V30 37 1 4 34
M  V30 38 1 4 35
M  V30 39 1 5 36
M  V30 40 1 5 37
M  V30 41 1 6 38
M  V30 42 1 6 39
M  V30 43 1 9 40
M  V30 44 1 12 41
M  V30 45 1 14 42
M  V30 46 1 15 43
M  V30 47 1 21 44
M  V30 48 1 22 45
M  V30 49 1 23 46
M  V30 50 1 24 47
M  V30 END BOND
M  V30 END CTAB
M  END
>  <Dataset>  (681) 
ChEMBL_Kinases

>  <Ligand_Instance>  (681) 
nan

>  <PDB_ID>  (681) 
nan

>  <Standardized_SMILES>  (681) 
CC(C)(CN)COc1cc(F)cc2ccc(-c3nnc4ccccn34)nc12

>  <Name>  (681) 
nan

>  <Pocket>  (681) 
nan

>  <ATP_Site>  (681) 
nan

>  <Peripheral>  (681) 
nan

>  <Num_H_Atoms_ProtBoundConf>  (681) 
nan

>  <Num_Resolved_Atoms>  (681) 
nan

>  <Num_Not_Resolved_Atoms>  (681) 
nan

$$$$
CHEMBL3660043
     RDKit          3D

  0  0  0  0  0  0  0  0  0  0999 V3000
M  V30 BEGIN CTAB
M  V30 COUNTS 41 44 0 0 0
M  V30 BEGIN ATOM
M  V30 1 N 1.067003 -4.553827 2.500271 0
M  V30 2 C 1.047155 -3.821606 1.243284 0
M  V30 3 C 2.459044 -3.448528 0.818993 0
M  V30 4 F 3.185511 -4.610893 0.663730 0
M  V30 5 F 3.084348 -2.668946 1.753089 0
M  V30 6 C 2.333358 -2.707922 -0.514527 0
M  V30 7 O 1.558186 -1.565443 -0.384053 0
M  V30 8 C 1.245325 -0.671516 -1.386947 0
M  V30 9 C 1.690333 -0.827684 -2.680628 0
M  V30 10 C 1.406753 0.037960 -3.724687 0
M  V30 11 C 0.609270 1.142868 -3.418468 0
M  V30 12 C 0.142942 1.328890 -2.117380 0
M  V30 13 C -0.643758 2.416515 -1.809434 0
M  V30 14 C -1.092800 2.575037 -0.506163 0
M  V30 15 C -0.769700 1.667574 0.491156 0
M  V30 16 C -1.272448 1.887619 1.846679 0
M  V30 17 N -2.045583 2.909828 2.262934 0
M  V30 18 N -2.285414 2.743084 3.572679 0
M  V30 19 C -1.663218 1.617023 3.978076 0
M  V30 20 C -1.618812 1.034236 5.233040 0
M  V30 21 C -0.895126 -0.143797 5.383236 0
M  V30 22 C -0.253051 -0.683827 4.283800 0
M  V30 23 C -0.332614 -0.051176 3.039512 0
M  V30 24 N -1.031762 1.085318 2.898300 0
M  V30 25 N 0.001890 0.625133 0.129857 0
M  V30 26 C 0.458920 0.428872 -1.111413 0
M  V30 27 H 0.201931 -5.124412 2.616464 0
M  V30 28 H 1.131200 -3.914132 3.322784 0
M  V30 29 H 0.416243 -2.914707 1.322604 0
M  V30 30 H 0.608509 -4.484519 0.472280 0
M  V30 31 H 2.081960 -3.388963 -1.330333 0
M  V30 32 H 3.385885 -2.351705 -0.718287 0
M  V30 33 H 2.312479 -1.684329 -2.932512 0
M  V30 34 H 1.796942 -0.151346 -4.731273 0
M  V30 35 H 0.359036 1.844373 -4.187674 0
M  V30 36 H -0.922501 3.150562 -2.550788 0
M  V30 37 H -1.713536 3.419865 -0.230584 0
M  V30 38 H -2.143324 1.505903 6.056674 0
M  V30 39 H -0.838757 -0.627956 6.352462 0
M  V30 40 H 0.302291 -1.599774 4.428248 0
M  V30 41 H 0.188725 -0.519701 2.220079 0
M  V30 END ATOM
M  V30 BEGIN BOND
M  V30 1 1 1 2
M  V30 2 1 2 3
M  V30 3 1 3 4
M  V30 4 1 3 5
M  V30 5 1 3 6
M  V30 6 1 6 7
M  V30 7 1 7 8
M  V30 8 2 8 9
M  V30 9 1 9 10
M  V30 10 2 10 11
M  V30 11 1 11 12
M  V30 12 2 12 13
M  V30 13 1 13 14
M  V30 14 2 14 15
M  V30 15 1 15 16
M  V30 16 2 16 17
M  V30 17 1 17 18
M  V30 18 2 18 19
M  V30 19 1 19 20
M  V30 20 2 20 21
M  V30 21 1 21 22
M  V30 22 2 22 23
M  V30 23 1 23 24
M  V30 24 1 15 25
M  V30 25 2 25 26
M  V30 26 1 26 8
M  V30 27 1 26 12
M  V30 28 1 24 16
M  V30 29 1 24 19
M  V30 30 1 1 27
M  V30 31 1 1 28
M  V30 32 1 2 29
M  V30 33 1 2 30
M  V30 34 1 6 31
M  V30 35 1 6 32
M  V30 36 1 9 33
M  V30 37 1 10 34
M  V30 38 1 11 35
M  V30 39 1 13 36
M  V30 40 1 14 37
M  V30 41 1 20 38
M  V30 42 1 21 39
M  V30 43 1 22 40
M  V30 44 1 23 41
M  V30 END BOND
M  V30 END CTAB
M  END
>  <Dataset>  (682) 
ChEMBL_Kinases

>  <Ligand_Instance>  (682) 
nan

>  <PDB_ID>  (682) 
nan

>  <Standardized_SMILES>  (682) 
NCC(F)(F)COc1cccc2ccc(-c3nnc4ccccn34)nc12

>  <Name>  (682) 
nan

>  <Pocket>  (682) 
nan

>  <ATP_Site>  (682) 
nan

>  <Peripheral>  (682) 
nan

>  <Num_H_Atoms_ProtBoundConf>  (682) 
nan

>  <Num_Resolved_Atoms>  (682) 
nan

>  <Num_Not_Resolved_Atoms>  (682) 
nan

$$$$
CHEMBL3660045
     RDKit          3D

  0  0  0  0  0  0  0  0  0  0999 V3000
M  V30 BEGIN CTAB
M  V30 COUNTS 47 50 0 0 0
M  V30 BEGIN ATOM
M  V30 1 C 1.315026 -1.999867 3.127804 0
M  V30 2 C 1.974873 -2.646270 1.932272 0
M  V30 3 C 0.978456 -3.422429 1.123870 0
M  V30 4 C 3.153324 -3.519046 2.372128 0
M  V30 5 N 2.750815 -4.576734 3.264679 0
M  V30 6 C 2.577828 -1.529070 1.089080 0
M  V30 7 O 1.500440 -0.686396 0.709623 0
M  V30 8 C 1.746966 0.426275 -0.070926 0
M  V30 9 C 3.043507 0.724807 -0.486414 0
M  V30 10 C 3.380476 1.810751 -1.264354 0
M  V30 11 C 2.387156 2.675243 -1.672365 0
M  V30 12 F 2.689353 3.742934 -2.432367 0
M  V30 13 C 1.092157 2.388189 -1.264759 0
M  V30 14 C 0.103682 3.277247 -1.689866 0
M  V30 15 C -1.169415 2.983594 -1.281514 0
M  V30 16 C -1.505081 1.887757 -0.497222 0
M  V30 17 C -2.927178 1.708782 -0.140117 0
M  V30 18 N -3.958322 2.491548 -0.487362 0
M  V30 19 N -5.049133 1.975665 0.038012 0
M  V30 20 C -4.728711 0.850672 0.731619 0
M  V30 21 C -5.553289 0.014407 1.425201 0
M  V30 22 C -4.927081 -1.072454 2.042250 0
M  V30 23 C -3.547909 -1.286181 1.953220 0
M  V30 24 C -2.844872 -0.347689 1.212091 0
M  V30 25 N -3.403012 0.710990 0.602360 0
M  V30 26 N -0.516409 1.051056 -0.106929 0
M  V30 27 C 0.752285 1.290521 -0.478544 0
M  V30 28 H 1.486385 -2.646124 4.006100 0
M  V30 29 H 1.690265 -0.971157 3.270663 0
M  V30 30 H 0.203097 -1.991732 2.973063 0
M  V30 31 H 1.278142 -3.355602 0.060608 0
M  V30 32 H -0.026257 -2.969933 1.295496 0
M  V30 33 H 0.937998 -4.485735 1.418758 0
M  V30 34 H 3.859470 -2.863791 2.914444 0
M  V30 35 H 3.615195 -3.963132 1.484291 0
M  V30 36 H 2.947680 -5.514279 2.848881 0
M  V30 37 H 3.254448 -4.533530 4.163899 0
M  V30 38 H 3.016351 -2.008661 0.172473 0
M  V30 39 H 3.388112 -1.015899 1.607556 0
M  V30 40 H 3.832574 0.051046 -0.170916 0
M  V30 41 H 4.420280 1.961416 -1.538607 0
M  V30 42 H 0.319735 4.129692 -2.292412 0
M  V30 43 H -1.954419 3.662691 -1.601222 0
M  V30 44 H -6.615235 0.117981 1.534274 0
M  V30 45 H -5.499314 -1.800640 2.621777 0
M  V30 46 H -3.107681 -2.129617 2.439724 0
M  V30 47 H -1.772671 -0.541566 1.161278 0
M  V30 END ATOM
M  V30 BEGIN BOND
M  V30 1 1 1 2
M  V30 2 1 2 3
M  V30 3 1 2 4
M  V30 4 1 4 5
M  V30 5 1 2 6
M  V30 6 1 6 7
M  V30 7 1 7 8
M  V30 8 2 8 9
M  V30 9 1 9 10
M  V30 10 2 10 11
M  V30 11 1 11 12
M  V30 12 1 11 13
M  V30 13 2 13 14
M  V30 14 1 14 15
M  V30 15 2 15 16
M  V30 16 1 16 17
M  V30 17 2 17 18
M  V30 18 1 18 19
M  V30 19 2 19 20
M  V30 20 1 20 21
M  V30 21 2 21 22
M  V30 22 1 22 23
M  V30 23 2 23 24
M  V30 24 1 24 25
M  V30 25 1 16 26
M  V30 26 2 26 27
M  V30 27 1 27 8
M  V30 28 1 27 13
M  V30 29 1 25 17
M  V30 30 1 25 20
M  V30 31 1 1 28
M  V30 32 1 1 29
M  V30 33 1 1 30
M  V30 34 1 3 31
M  V30 35 1 3 32
M  V30 36 1 3 33
M  V30 37 1 4 34
M  V30 38 1 4 35
M  V30 39 1 5 36
M  V30 40 1 5 37
M  V30 41 1 6 38
M  V30 42 1 6 39
M  V30 43 1 9 40
M  V30 44 1 10 41
M  V30 45 1 14 42
M  V30 46 1 15 43
M  V30 47 1 21 44
M  V30 48 1 22 45
M  V30 49 1 23 46
M  V30 50 1 24 47
M  V30 END BOND
M  V30 END CTAB
M  END
>  <Dataset>  (683) 
ChEMBL_Kinases

>  <Ligand_Instance>  (683) 
nan

>  <PDB_ID>  (683) 
nan

>  <Standardized_SMILES>  (683) 
CC(C)(CN)COc1ccc(F)c2ccc(-c3nnc4ccccn34)nc12

>  <Name>  (683) 
nan

>  <Pocket>  (683) 
nan

>  <ATP_Site>  (683) 
nan

>  <Peripheral>  (683) 
nan

>  <Num_H_Atoms_ProtBoundConf>  (683) 
nan

>  <Num_Resolved_Atoms>  (683) 
nan

>  <Num_Not_Resolved_Atoms>  (683) 
nan

$$$$
CHEMBL3660046
     RDKit          3D

  0  0  0  0  0  0  0  0  0  0999 V3000
M  V30 BEGIN CTAB
M  V30 COUNTS 42 46 0 0 0
M  V30 BEGIN ATOM
M  V30 1 C 2.691990 -4.595479 0.249756 0
M  V30 2 C 1.544804 -5.378505 0.139425 0
M  V30 3 N 0.534107 -4.857080 -0.589087 0
M  V30 4 C 0.664854 -3.665854 -1.151532 0
M  V30 5 C 1.774868 -2.841234 -1.079639 0
M  V30 6 C 1.642838 -1.563005 -1.813782 0
M  V30 7 O 1.038624 -0.581918 -0.993822 0
M  V30 8 C 0.774540 0.723877 -1.417391 0
M  V30 9 C 1.031598 1.296753 -2.645917 0
M  V30 10 C 0.676361 2.624099 -2.841462 0
M  V30 11 C 0.085807 3.382301 -1.873121 0
M  V30 12 C -0.180667 2.825804 -0.632592 0
M  V30 13 C -0.778520 3.568251 0.358694 0
M  V30 14 C -1.055235 3.034706 1.597916 0
M  V30 15 C -0.698465 1.721417 1.782074 0
M  V30 16 C -0.913761 1.010466 3.036162 0
M  V30 17 N -1.510896 1.607630 4.102980 0
M  V30 18 N -1.577881 0.769858 5.116725 0
M  V30 19 C -1.025014 -0.411269 4.749268 0
M  V30 20 C -0.813247 -1.628781 5.367150 0
M  V30 21 C -0.199647 -2.658212 4.685184 0
M  V30 22 C 0.185282 -2.414091 3.375604 0
M  V30 23 C -0.030110 -1.197783 2.768174 0
M  V30 24 N -0.637427 -0.213150 3.477930 0
M  V30 25 N -0.116594 1.015735 0.802091 0
M  V30 26 C 0.169857 1.501694 -0.424870 0
M  V30 27 C 2.819751 -3.350684 -0.341426 0
M  V30 28 H 3.611206 -4.851346 0.798223 0
M  V30 29 H 1.698099 -6.294303 0.686275 0
M  V30 30 H -0.239343 -3.392005 -1.703616 0
M  V30 31 H 1.020780 -1.705766 -2.718339 0
M  V30 32 H 2.619873 -1.178989 -2.180987 0
M  V30 33 H 1.498599 0.629301 -3.352315 0
M  V30 34 H 0.899052 3.027636 -3.822073 0
M  V30 35 H -0.182817 4.415395 -2.048104 0
M  V30 36 H -1.063080 4.614687 0.212492 0
M  V30 37 H -1.523907 3.555413 2.429834 0
M  V30 38 H -1.142968 -1.740212 6.392214 0
M  V30 39 H -0.065905 -3.582766 5.229544 0
M  V30 40 H 0.664800 -3.225325 2.848146 0
M  V30 41 H 0.300038 -1.101377 1.756517 0
M  V30 42 H 3.672649 -2.688433 -0.300591 0
M  V30 END ATOM
M  V30 BEGIN BOND
M  V30 1 2 1 2
M  V30 2 1 2 3
M  V30 3 2 3 4
M  V30 4 1 4 5
M  V30 5 1 5 6
M  V30 6 1 6 7
M  V30 7 1 7 8
M  V30 8 2 8 9
M  V30 9 1 9 10
M  V30 10 2 10 11
M  V30 11 1 11 12
M  V30 12 2 12 13
M  V30 13 1 13 14
M  V30 14 2 14 15
M  V30 15 1 15 16
M  V30 16 2 16 17
M  V30 17 1 17 18
M  V30 18 2 18 19
M  V30 19 1 19 20
M  V30 20 2 20 21
M  V30 21 1 21 22
M  V30 22 2 22 23
M  V30 23 1 23 24
M  V30 24 1 15 25
M  V30 25 2 25 26
M  V30 26 2 5 27
M  V30 27 1 27 1
M  V30 28 1 26 8
M  V30 29 1 26 12
M  V30 30 1 24 16
M  V30 31 1 24 19
M  V30 32 1 1 28
M  V30 33 1 2 29
M  V30 34 1 4 30
M  V30 35 1 6 31
M  V30 36 1 6 32
M  V30 37 1 9 33
M  V30 38 1 10 34
M  V30 39 1 11 35
M  V30 40 1 13 36
M  V30 41 1 14 37
M  V30 42 1 20 38
M  V30 43 1 21 39
M  V30 44 1 22 40
M  V30 45 1 23 41
M  V30 46 1 27 42
M  V30 END BOND
M  V30 END CTAB
M  END
>  <Dataset>  (684) 
ChEMBL_Kinases

>  <Ligand_Instance>  (684) 
nan

>  <PDB_ID>  (684) 
nan

>  <Standardized_SMILES>  (684) 
c1cncc(COc2cccc3ccc(-c4nnc5ccccn45)nc23)c1

>  <Name>  (684) 
nan

>  <Pocket>  (684) 
nan

>  <ATP_Site>  (684) 
nan

>  <Peripheral>  (684) 
nan

>  <Num_H_Atoms_ProtBoundConf>  (684) 
nan

>  <Num_Resolved_Atoms>  (684) 
nan

>  <Num_Not_Resolved_Atoms>  (684) 
nan

$$$$
CHEMBL3660047
     RDKit          3D

  0  0  0  0  0  0  0  0  0  0999 V3000
M  V30 BEGIN CTAB
M  V30 COUNTS 42 46 0 0 0
M  V30 BEGIN ATOM
M  V30 1 C 2.787048 -4.275764 2.144155 0
M  V30 2 C 2.190596 -3.758330 1.013593 0
M  V30 3 C 1.535813 -2.537154 1.018538 0
M  V30 4 O 0.917006 -1.963918 -0.084957 0
M  V30 5 C 0.954547 -2.676667 -1.311326 0
M  V30 6 C 0.245801 -1.922703 -2.389137 0
M  V30 7 C -1.096084 -2.026538 -2.706011 0
M  V30 8 C -1.621599 -1.266874 -3.730968 0
M  V30 9 N -0.852367 -0.418414 -4.437360 0
M  V30 10 C 0.473969 -0.297559 -4.144672 0
M  V30 11 C 1.028725 -1.038423 -3.131424 0
M  V30 12 C 1.527067 -1.878110 2.244817 0
M  V30 13 N 0.902199 -0.695016 2.283449 0
M  V30 14 C 0.799952 0.072415 3.384658 0
M  V30 15 C 0.118119 1.361895 3.424059 0
M  V30 16 N -0.022056 2.183052 4.493302 0
M  V30 17 N -0.699855 3.241816 4.106760 0
M  V30 18 C -1.016341 3.147409 2.802683 0
M  V30 19 C -1.714362 4.001365 1.953460 0
M  V30 20 C -1.892268 3.638766 0.629691 0
M  V30 21 C -1.334977 2.423599 0.289813 0
M  V30 22 C -0.640570 1.563690 1.114841 0
M  V30 23 N -0.496072 1.965741 2.395259 0
M  V30 24 C 1.391685 -0.430933 4.525318 0
M  V30 25 C 2.056877 -1.640292 4.579756 0
M  V30 26 C 2.107706 -2.356719 3.393304 0
M  V30 27 C 2.743961 -3.568904 3.339730 0
M  V30 28 H 3.272538 -5.236083 2.035826 0
M  V30 29 H 2.205205 -4.288258 0.054457 0
M  V30 30 H 0.402258 -3.623979 -1.112884 0
M  V30 31 H 1.974581 -2.965256 -1.622626 0
M  V30 32 H -1.658786 -2.725423 -2.101210 0
M  V30 33 H -2.679633 -1.381973 -3.943418 0
M  V30 34 H 1.051609 0.403921 -4.747561 0
M  V30 35 H 2.087671 -0.861338 -2.988443 0
M  V30 36 H -2.126763 4.944200 2.288203 0
M  V30 37 H -2.415463 4.227695 -0.104469 0
M  V30 38 H -1.468268 2.121472 -0.760125 0
M  V30 39 H -0.263135 0.642225 0.696743 0
M  V30 40 H 1.353930 0.125858 5.453619 0
M  V30 41 H 2.517902 -2.027885 5.477177 0
M  V30 42 H 3.216729 -3.995152 4.205094 0
M  V30 END ATOM
M  V30 BEGIN BOND
M  V30 1 2 1 2
M  V30 2 1 2 3
M  V30 3 1 3 4
M  V30 4 1 4 5
M  V30 5 1 5 6
M  V30 6 2 6 7
M  V30 7 1 7 8
M  V30 8 2 8 9
M  V30 9 1 9 10
M  V30 10 2 10 11
M  V30 11 2 3 12
M  V30 12 1 12 13
M  V30 13 2 13 14
M  V30 14 1 14 15
M  V30 15 2 15 16
M  V30 16 1 16 17
M  V30 17 2 17 18
M  V30 18 1 18 19
M  V30 19 2 19 20
M  V30 20 1 20 21
M  V30 21 2 21 22
M  V30 22 1 22 23
M  V30 23 1 14 24
M  V30 24 2 24 25
M  V30 25 1 25 26
M  V30 26 2 26 27
M  V30 27 1 27 1
M  V30 28 1 11 6
M  V30 29 1 26 12
M  V30 30 1 23 15
M  V30 31 1 23 18
M  V30 32 1 1 28
M  V30 33 1 2 29
M  V30 34 1 5 30
M  V30 35 1 5 31
M  V30 36 1 7 32
M  V30 37 1 8 33
M  V30 38 1 10 34
M  V30 39 1 11 35
M  V30 40 1 19 36
M  V30 41 1 20 37
M  V30 42 1 21 38
M  V30 43 1 22 39
M  V30 44 1 24 40
M  V30 45 1 25 41
M  V30 46 1 27 42
M  V30 END BOND
M  V30 END CTAB
M  END
>  <Dataset>  (685) 
ChEMBL_Kinases

>  <Ligand_Instance>  (685) 
nan

>  <PDB_ID>  (685) 
nan

>  <Standardized_SMILES>  (685) 
c1cc(OCc2ccncc2)c2nc(-c3nnc4ccccn34)ccc2c1

>  <Name>  (685) 
nan

>  <Pocket>  (685) 
nan

>  <ATP_Site>  (685) 
nan

>  <Peripheral>  (685) 
nan

>  <Num_H_Atoms_ProtBoundConf>  (685) 
nan

>  <Num_Resolved_Atoms>  (685) 
nan

>  <Num_Not_Resolved_Atoms>  (685) 
nan

$$$$
CHEMBL3660054
     RDKit          3D

  0  0  0  0  0  0  0  0  0  0999 V3000
M  V30 BEGIN CTAB
M  V30 COUNTS 52 56 0 0 0
M  V30 BEGIN ATOM
M  V30 1 C -2.757972 -4.193918 -0.729187 0
M  V30 2 O -1.687708 -4.732361 -1.395560 0
M  V30 3 C -0.612932 -3.866930 -1.508099 0
M  V30 4 C -0.064376 -3.418766 -0.172842 0 CFG=2
M  V30 5 C 1.123061 -2.514557 -0.424444 0
M  V30 6 C 1.357999 -1.742577 0.887372 0
M  V30 7 O 2.489672 -0.987600 0.858656 0
M  V30 8 C 2.794026 0.297205 0.928103 0
M  V30 9 C 4.188509 0.436608 0.910571 0
M  V30 10 C 4.850580 1.670293 0.972402 0
M  V30 11 C 4.072034 2.804579 1.054909 0
M  V30 12 C 2.706584 2.647200 1.070000 0
M  V30 13 C 1.913405 3.766930 1.144755 0
M  V30 14 C 0.553461 3.579268 1.150311 0
M  V30 15 C -0.115629 2.347030 1.086375 0
M  V30 16 C -1.564435 2.445664 1.078382 0
M  V30 17 N -2.273496 3.579173 1.204059 0
M  V30 18 N -3.559699 3.359910 1.147205 0
M  V30 19 C -3.755006 2.046372 0.977860 0
M  V30 20 C -4.900168 1.290416 0.851615 0
M  V30 21 C -4.829731 -0.056011 0.677781 0
M  V30 22 C -3.560538 -0.593800 0.638118 0
M  V30 23 C -2.464333 0.225089 0.771562 0
M  V30 24 N -2.525298 1.535027 0.941632 0
M  V30 25 N 0.695963 1.263461 1.014641 0
M  V30 26 C 2.049180 1.441725 1.009340 0
M  V30 27 C 1.545120 -2.840605 1.938210 0
M  V30 28 C 1.612963 -4.208120 1.334915 0
M  V30 29 N 0.396341 -4.550150 0.619476 0
M  V30 30 H -2.534914 -3.887192 0.303646 0
M  V30 31 H -3.528694 -4.995657 -0.632854 0
M  V30 32 H -3.272187 -3.393298 -1.316832 0
M  V30 33 H -0.932734 -2.952748 -2.042408 0
M  V30 34 H 0.227192 -4.305038 -2.075809 0
M  V30 35 H -0.782533 -2.853341 0.444639 0
M  V30 36 H 2.032635 -3.033900 -0.727512 0
M  V30 37 H 0.832535 -1.799840 -1.233140 0
M  V30 38 H 0.433318 -1.205454 1.127700 0
M  V30 39 H 4.921615 -0.360055 0.848937 0
M  V30 40 H 5.919758 1.815032 0.961301 0
M  V30 41 H 4.500396 3.794138 1.106899 0
M  V30 42 H 2.381885 4.720210 1.194353 0
M  V30 43 H 0.016701 4.541295 1.212981 0
M  V30 44 H -5.886100 1.771599 0.890498 0
M  V30 45 H -5.700573 -0.683062 0.575138 0
M  V30 46 H -3.463634 -1.667359 0.500338 0
M  V30 47 H -1.527467 -0.266140 0.720866 0
M  V30 48 H 2.506456 -2.701656 2.501345 0
M  V30 49 H 0.735148 -2.811743 2.681162 0
M  V30 50 H 1.672231 -4.927800 2.176619 0
M  V30 51 H 2.532054 -4.373651 0.735871 0
M  V30 52 H 0.603677 -5.351436 -0.008165 0
M  V30 END ATOM
M  V30 BEGIN BOND
M  V30 1 1 1 2
M  V30 2 1 2 3
M  V30 3 1 3 4
M  V30 4 1 4 5
M  V30 5 1 5 6
M  V30 6 1 6 7
M  V30 7 1 7 8
M  V30 8 2 8 9
M  V30 9 1 9 10
M  V30 10 2 10 11
M  V30 11 1 11 12
M  V30 12 2 12 13
M  V30 13 1 13 14
M  V30 14 2 14 15
M  V30 15 1 15 16
M  V30 16 2 16 17
M  V30 17 1 17 18
M  V30 18 2 18 19
M  V30 19 1 19 20
M  V30 20 2 20 21
M  V30 21 1 21 22
M  V30 22 2 22 23
M  V30 23 1 23 24
M  V30 24 1 15 25
M  V30 25 2 25 26
M  V30 26 1 6 27
M  V30 27 1 27 28
M  V30 28 1 28 29
M  V30 29 1 29 4
M  V30 30 1 26 8
M  V30 31 1 26 12
M  V30 32 1 24 16
M  V30 33 1 24 19
M  V30 34 1 1 30
M  V30 35 1 1 31
M  V30 36 1 1 32
M  V30 37 1 3 33
M  V30 38 1 3 34
M  V30 39 1 4 35 CFG=1
M  V30 40 1 5 36
M  V30 41 1 5 37
M  V30 42 1 6 38
M  V30 43 1 9 39
M  V30 44 1 10 40
M  V30 45 1 11 41
M  V30 46 1 13 42
M  V30 47 1 14 43
M  V30 48 1 20 44
M  V30 49 1 21 45
M  V30 50 1 22 46
M  V30 51 1 23 47
M  V30 52 1 27 48
M  V30 53 1 27 49
M  V30 54 1 28 50
M  V30 55 1 28 51
M  V30 56 1 29 52
M  V30 END BOND
M  V30 END CTAB
M  END
>  <Dataset>  (686) 
ChEMBL_Kinases

>  <Ligand_Instance>  (686) 
nan

>  <PDB_ID>  (686) 
nan

>  <Standardized_SMILES>  (686) 
COC[C@@H]1CC(Oc2cccc3ccc(-c4nnc5ccccn45)nc23)CCN1

>  <Name>  (686) 
nan

>  <Pocket>  (686) 
nan

>  <ATP_Site>  (686) 
nan

>  <Peripheral>  (686) 
nan

>  <Num_H_Atoms_ProtBoundConf>  (686) 
nan

>  <Num_Resolved_Atoms>  (686) 
nan

>  <Num_Not_Resolved_Atoms>  (686) 
nan

$$$$
CHEMBL3660055
     RDKit          3D

  0  0  0  0  0  0  0  0  0  0999 V3000
M  V30 BEGIN CTAB
M  V30 COUNTS 47 50 0 0 0
M  V30 BEGIN ATOM
M  V30 1 C 1.664228 -2.497506 3.703608 0
M  V30 2 C 1.601211 -2.412013 2.193323 0
M  V30 3 C 0.302977 -3.005742 1.739145 0
M  V30 4 C 2.724198 -3.267556 1.605265 0
M  V30 5 N 3.957053 -2.684841 2.137853 0
M  V30 6 C 1.797322 -0.989638 1.726809 0
M  V30 7 O 1.748612 -0.848978 0.330757 0
M  V30 8 C 1.909892 0.391873 -0.271443 0
M  V30 9 C 3.180779 0.796457 -0.617462 0
M  V30 10 Br 4.726268 -0.284264 -0.300081 0
M  V30 11 C 3.455364 2.003015 -1.217489 0
M  V30 12 C 2.408846 2.873525 -1.497494 0
M  V30 13 C 1.130599 2.470250 -1.151185 0
M  V30 14 C 0.081440 3.333513 -1.427485 0
M  V30 15 C -1.174603 2.891086 -1.065553 0
M  V30 16 C -1.455520 1.681944 -0.463543 0
M  V30 17 C -2.834817 1.339888 -0.133632 0
M  V30 18 N -3.918581 2.105966 -0.360018 0
M  V30 19 N -4.971597 1.468529 0.068412 0
M  V30 20 C -4.591899 0.269749 0.584302 0
M  V30 21 C -5.377252 -0.718167 1.144312 0
M  V30 22 C -4.748683 -1.866218 1.605826 0
M  V30 23 C -3.374249 -1.928744 1.466375 0
M  V30 24 C -2.666071 -0.904572 0.898829 0
M  V30 25 N -3.255673 0.204763 0.450699 0
M  V30 26 N -0.390799 0.882115 -0.218922 0
M  V30 27 C 0.867551 1.254322 -0.548179 0
M  V30 28 H 2.299142 -3.346597 4.024152 0
M  V30 29 H 2.102391 -1.583907 4.153057 0
M  V30 30 H 0.641481 -2.627523 4.143686 0
M  V30 31 H 0.212970 -2.936488 0.621815 0
M  V30 32 H -0.576873 -2.597247 2.253151 0
M  V30 33 H 0.359165 -4.103153 1.958983 0
M  V30 34 H 2.608054 -4.323208 1.870198 0
M  V30 35 H 2.682707 -3.181898 0.504832 0
M  V30 36 H 4.756954 -2.838681 1.502933 0
M  V30 37 H 4.096024 -3.002328 3.108360 0
M  V30 38 H 2.764215 -0.640395 2.153598 0
M  V30 39 H 1.003432 -0.369224 2.206333 0
M  V30 40 H 4.428069 2.364391 -1.506605 0
M  V30 41 H 2.571655 3.847963 -1.974846 0
M  V30 42 H 0.210305 4.299397 -1.896658 0
M  V30 43 H -1.997394 3.559415 -1.278159 0
M  V30 44 H -6.451492 -0.569684 1.206569 0
M  V30 45 H -5.383062 -2.630396 2.042307 0
M  V30 46 H -2.937729 -2.843769 1.842135 0
M  V30 47 H -1.596524 -0.979697 0.802729 0
M  V30 END ATOM
M  V30 BEGIN BOND
M  V30 1 1 1 2
M  V30 2 1 2 3
M  V30 3 1 2 4
M  V30 4 1 4 5
M  V30 5 1 2 6
M  V30 6 1 6 7
M  V30 7 1 7 8
M  V30 8 2 8 9
M  V30 9 1 9 10
M  V30 10 1 9 11
M  V30 11 2 11 12
M  V30 12 1 12 13
M  V30 13 2 13 14
M  V30 14 1 14 15
M  V30 15 2 15 16
M  V30 16 1 16 17
M  V30 17 2 17 18
M  V30 18 1 18 19
M  V30 19 2 19 20
M  V30 20 1 20 21
M  V30 21 2 21 22
M  V30 22 1 22 23
M  V30 23 2 23 24
M  V30 24 1 24 25
M  V30 25 1 16 26
M  V30 26 2 26 27
M  V30 27 1 27 8
M  V30 28 1 27 13
M  V30 29 1 25 17
M  V30 30 1 25 20
M  V30 31 1 1 28
M  V30 32 1 1 29
M  V30 33 1 1 30
M  V30 34 1 3 31
M  V30 35 1 3 32
M  V30 36 1 3 33
M  V30 37 1 4 34
M  V30 38 1 4 35
M  V30 39 1 5 36
M  V30 40 1 5 37
M  V30 41 1 6 38
M  V30 42 1 6 39
M  V30 43 1 11 40
M  V30 44 1 12 41
M  V30 45 1 14 42
M  V30 46 1 15 43
M  V30 47 1 21 44
M  V30 48 1 22 45
M  V30 49 1 23 46
M  V30 50 1 24 47
M  V30 END BOND
M  V30 END CTAB
M  END
>  <Dataset>  (687) 
ChEMBL_Kinases

>  <Ligand_Instance>  (687) 
nan

>  <PDB_ID>  (687) 
nan

>  <Standardized_SMILES>  (687) 
CC(C)(CN)COc1c(Br)ccc2ccc(-c3nnc4ccccn34)nc12

>  <Name>  (687) 
nan

>  <Pocket>  (687) 
nan

>  <ATP_Site>  (687) 
nan

>  <Peripheral>  (687) 
nan

>  <Num_H_Atoms_ProtBoundConf>  (687) 
nan

>  <Num_Resolved_Atoms>  (687) 
nan

>  <Num_Not_Resolved_Atoms>  (687) 
nan

$$$$
CHEMBL3660026
     RDKit          3D

  0  0  0  0  0  0  0  0  0  0999 V3000
M  V30 BEGIN CTAB
M  V30 COUNTS 53 56 0 0 0
M  V30 BEGIN ATOM
M  V30 1 C 2.446843 -3.274628 0.284569 0
M  V30 2 N 1.743769 -2.293708 1.154957 0
M  V30 3 C 1.043710 -3.167503 2.115123 0
M  V30 4 C 2.760442 -1.531499 1.801333 0
M  V30 5 C 2.344963 -0.393789 2.651577 0
M  V30 6 C 1.460077 -0.734480 3.818962 0
M  V30 7 C 3.644407 0.146691 3.295126 0
M  V30 8 C 1.829445 0.787992 1.868212 0
M  V30 9 O 0.713979 0.546875 1.074123 0
M  V30 10 C 0.246563 1.651898 0.342332 0
M  V30 11 C 0.859125 2.897096 0.405716 0
M  V30 12 C 0.468864 4.027912 -0.276143 0
M  V30 13 C -0.632503 3.900792 -1.093965 0
M  V30 14 C -1.268693 2.677511 -1.182733 0
M  V30 15 C -2.360917 2.662648 -2.028017 0
M  V30 16 C -3.023861 1.458582 -2.140669 0
M  V30 17 C -2.600770 0.326951 -1.432122 0
M  V30 18 C -3.394185 -0.892992 -1.632175 0
M  V30 19 N -4.480891 -1.038010 -2.434618 0
M  V30 20 N -4.937243 -2.277248 -2.358475 0
M  V30 21 C -4.143813 -2.961936 -1.495620 0
M  V30 22 C -4.261956 -4.284592 -1.122819 0
M  V30 23 C -3.327466 -4.761719 -0.219816 0
M  V30 24 C -2.367751 -3.859786 0.217138 0
M  V30 25 C -2.288139 -2.545109 -0.183178 0
M  V30 26 N -3.199943 -2.103386 -1.055509 0
M  V30 27 N -1.529114 0.373342 -0.613897 0
M  V30 28 C -0.860183 1.536635 -0.483168 0
M  V30 29 H 1.765478 -4.107500 0.114939 0
M  V30 30 H 3.426263 -3.539705 0.732491 0
M  V30 31 H 2.655124 -2.688393 -0.647406 0
M  V30 32 H 0.634265 -4.019752 1.503337 0
M  V30 33 H 1.804947 -3.608455 2.761790 0
M  V30 34 H 0.200799 -2.683647 2.595620 0
M  V30 35 H 3.495411 -1.123119 1.049513 0
M  V30 36 H 3.378556 -2.213576 2.429557 0
M  V30 37 H 1.692006 -1.738459 4.206062 0
M  V30 38 H 0.385780 -0.557462 3.605719 0
M  V30 39 H 1.708246 -0.047624 4.689802 0
M  V30 40 H 3.327072 1.110238 3.782975 0
M  V30 41 H 4.320764 0.433378 2.466590 0
M  V30 42 H 4.078998 -0.568158 3.992506 0
M  V30 43 H 1.544451 1.551870 2.622163 0
M  V30 44 H 2.649773 1.177433 1.264918 0
M  V30 45 H 1.735813 2.991176 1.059373 0
M  V30 46 H 1.028936 4.942847 -0.144632 0
M  V30 47 H -0.954669 4.768193 -1.635007 0
M  V30 48 H -2.710445 3.519156 -2.586253 0
M  V30 49 H -3.887252 1.402579 -2.794477 0
M  V30 50 H -5.046397 -4.913810 -1.518487 0
M  V30 51 H -3.361469 -5.789515 0.115638 0
M  V30 52 H -1.667479 -4.295187 0.920667 0
M  V30 53 H -1.503665 -1.891034 0.203961 0
M  V30 END ATOM
M  V30 BEGIN BOND
M  V30 1 1 1 2
M  V30 2 1 2 3
M  V30 3 1 2 4
M  V30 4 1 4 5
M  V30 5 1 5 6
M  V30 6 1 5 7
M  V30 7 1 5 8
M  V30 8 1 8 9
M  V30 9 1 9 10
M  V30 10 2 10 11
M  V30 11 1 11 12
M  V30 12 2 12 13
M  V30 13 1 13 14
M  V30 14 2 14 15
M  V30 15 1 15 16
M  V30 16 2 16 17
M  V30 17 1 17 18
M  V30 18 2 18 19
M  V30 19 1 19 20
M  V30 20 2 20 21
M  V30 21 1 21 22
M  V30 22 2 22 23
M  V30 23 1 23 24
M  V30 24 2 24 25
M  V30 25 1 25 26
M  V30 26 1 17 27
M  V30 27 2 27 28
M  V30 28 1 28 10
M  V30 29 1 28 14
M  V30 30 1 26 18
M  V30 31 1 26 21
M  V30 32 1 1 29
M  V30 33 1 1 30
M  V30 34 1 1 31
M  V30 35 1 3 32
M  V30 36 1 3 33
M  V30 37 1 3 34
M  V30 38 1 4 35
M  V30 39 1 4 36
M  V30 40 1 6 37
M  V30 41 1 6 38
M  V30 42 1 6 39
M  V30 43 1 7 40
M  V30 44 1 7 41
M  V30 45 1 7 42
M  V30 46 1 8 43
M  V30 47 1 8 44
M  V30 48 1 11 45
M  V30 49 1 12 46
M  V30 50 1 13 47
M  V30 51 1 15 48
M  V30 52 1 16 49
M  V30 53 1 22 50
M  V30 54 1 23 51
M  V30 55 1 24 52
M  V30 56 1 25 53
M  V30 END BOND
M  V30 END CTAB
M  END
>  <Dataset>  (688) 
ChEMBL_Kinases

>  <Ligand_Instance>  (688) 
nan

>  <PDB_ID>  (688) 
nan

>  <Standardized_SMILES>  (688) 
CN(C)CC(C)(C)COc1cccc2ccc(-c3nnc4ccccn34)nc12

>  <Name>  (688) 
nan

>  <Pocket>  (688) 
nan

>  <ATP_Site>  (688) 
nan

>  <Peripheral>  (688) 
nan

>  <Num_H_Atoms_ProtBoundConf>  (688) 
nan

>  <Num_Resolved_Atoms>  (688) 
nan

>  <Num_Not_Resolved_Atoms>  (688) 
nan

$$$$
CHEMBL3661203
     RDKit          3D

  0  0  0  0  0  0  0  0  0  0999 V3000
M  V30 BEGIN CTAB
M  V30 COUNTS 44 47 0 0 0
M  V30 BEGIN ATOM
M  V30 1 C 1.234118 -6.708121 0.910746 0
M  V30 2 O 0.821284 -5.473519 0.842914 0
M  V30 3 C 0.434129 -4.276410 0.769531 0
M  V30 4 C 1.157730 -3.308512 0.107007 0
M  V30 5 C 0.732510 -2.002958 0.034852 0
M  V30 6 C 1.391889 -0.884627 -0.677010 0
M  V30 7 C 2.092869 -1.014597 -1.857371 0
M  V30 8 C 2.675991 0.079580 -2.456287 0
M  V30 9 C 2.529941 1.292643 -1.833406 0
M  V30 10 N 3.093797 2.377834 -2.444228 0
M  V30 11 C 2.969111 3.608231 -1.881139 0
M  V30 12 N 2.317008 3.829487 -0.742918 0
M  V30 13 C 1.726321 2.799408 -0.071618 0
M  V30 14 N 1.004494 2.709567 1.131774 0
M  V30 15 C -0.270229 2.528159 1.691038 0
M  V30 16 C -1.422957 2.519949 0.976353 0
M  V30 17 C -2.615653 2.287667 1.622065 0
M  V30 18 C -2.598609 2.070189 2.977439 0
M  V30 19 C -1.433177 2.076989 3.703305 0
M  V30 20 O -1.415541 1.855456 5.080776 0
M  V30 21 C -0.221932 2.307828 3.075678 0
M  V30 22 C 1.856153 1.531147 -0.658158 0
M  V30 23 C 1.289583 0.377733 -0.106761 0
M  V30 24 C -0.477021 -1.673809 0.662015 0
M  V30 25 C -1.260589 -2.605243 1.350019 0
M  V30 26 C -0.769452 -3.903699 1.382436 0
M  V30 27 O -1.508761 -4.888183 2.057114 0
M  V30 28 H 2.249504 -6.939905 0.419602 0
M  V30 29 H 0.511678 -7.509360 0.513027 0
M  V30 30 H 1.402648 -7.110671 1.975174 0
M  V30 31 H 2.102622 -3.471377 -0.408210 0
M  V30 32 H 2.126727 -2.028460 -2.235175 0
M  V30 33 H 3.216994 -0.062714 -3.380402 0
M  V30 34 H 3.401762 4.483315 -2.337811 0
M  V30 35 H 1.865302 2.854419 1.701893 0
M  V30 36 H -1.388818 2.699510 -0.106505 0
M  V30 37 H -3.571108 2.270759 1.086957 0
M  V30 38 H -3.504187 1.879791 3.550049 0
M  V30 39 H -2.223955 1.934014 5.668836 0
M  V30 40 H 0.708913 2.314747 3.660484 0
M  V30 41 H 0.743868 0.461834 0.814305 0
M  V30 42 H -0.913855 -0.681155 0.668659 0
M  V30 43 H -2.192328 -2.325391 1.824735 0
M  V30 44 H -2.470887 -4.952366 1.815805 0
M  V30 END ATOM
M  V30 BEGIN BOND
M  V30 1 1 1 2
M  V30 2 1 2 3
M  V30 3 2 3 4
M  V30 4 1 4 5
M  V30 5 1 5 6
M  V30 6 2 6 7
M  V30 7 1 7 8
M  V30 8 2 8 9
M  V30 9 1 9 10
M  V30 10 2 10 11
M  V30 11 1 11 12
M  V30 12 2 12 13
M  V30 13 1 13 14
M  V30 14 1 14 15
M  V30 15 2 15 16
M  V30 16 1 16 17
M  V30 17 2 17 18
M  V30 18 1 18 19
M  V30 19 1 19 20
M  V30 20 2 19 21
M  V30 21 1 13 22
M  V30 22 2 22 23
M  V30 23 2 5 24
M  V30 24 1 24 25
M  V30 25 2 25 26
M  V30 26 1 26 27
M  V30 27 1 26 3
M  V30 28 1 23 6
M  V30 29 1 22 9
M  V30 30 1 21 15
M  V30 31 1 1 28
M  V30 32 1 1 29
M  V30 33 1 1 30
M  V30 34 1 4 31
M  V30 35 1 7 32
M  V30 36 1 8 33
M  V30 37 1 11 34
M  V30 38 1 14 35
M  V30 39 1 16 36
M  V30 40 1 17 37
M  V30 41 1 18 38
M  V30 42 1 20 39
M  V30 43 1 21 40
M  V30 44 1 23 41
M  V30 45 1 24 42
M  V30 46 1 25 43
M  V30 47 1 27 44
M  V30 END BOND
M  V30 END CTAB
M  END
>  <Dataset>  (689) 
ChEMBL_Kinases

>  <Ligand_Instance>  (689) 
nan

>  <PDB_ID>  (689) 
nan

>  <Standardized_SMILES>  (689) 
COc1cc(-c2ccc3ncnc(Nc4cccc(O)c4)c3c2)ccc1O

>  <Name>  (689) 
nan

>  <Pocket>  (689) 
nan

>  <ATP_Site>  (689) 
nan

>  <Peripheral>  (689) 
nan

>  <Num_H_Atoms_ProtBoundConf>  (689) 
nan

>  <Num_Resolved_Atoms>  (689) 
nan

>  <Num_Not_Resolved_Atoms>  (689) 
nan

$$$$
CHEMBL3661202
     RDKit          3D

  0  0  0  0  0  0  0  0  0  0999 V3000
M  V30 BEGIN CTAB
M  V30 COUNTS 39 42 0 0 0
M  V30 BEGIN ATOM
M  V30 1 O -1.247746 -4.186612 4.873335 0
M  V30 2 C -0.442890 -3.551150 3.928409 0
M  V30 3 C 0.436694 -4.195125 3.057778 0
M  V30 4 C 1.165602 -3.447193 2.179095 0
M  V30 5 C 1.057510 -2.073400 2.129635 0
M  V30 6 C 1.813051 -1.220348 1.202189 0
M  V30 7 C 3.098007 -1.503196 0.731954 0
M  V30 8 C 3.726229 -0.619893 -0.147149 0
M  V30 9 C 3.119514 0.549651 -0.583671 0
M  V30 10 N 3.698536 1.401257 -1.434515 0
M  V30 11 C 3.105221 2.541468 -1.873602 0
M  V30 12 N 1.869260 2.832144 -1.433595 0
M  V30 13 C 1.204324 2.032404 -0.573196 0
M  V30 14 N -0.092782 2.247224 -0.034925 0
M  V30 15 C -1.199945 1.389413 -0.354527 0
M  V30 16 C -2.352119 1.489842 0.414814 0
M  V30 17 C -3.487836 0.731342 0.252797 0
M  V30 18 C -3.439712 -0.192327 -0.769838 0
M  V30 19 C -2.328255 -0.324519 -1.553034 0
M  V30 20 C -1.174841 0.450066 -1.382774 0
M  V30 21 C 1.835355 0.867072 -0.136012 0
M  V30 22 C 1.267785 -0.033038 0.725632 0
M  V30 23 C 0.194467 -1.393769 2.979393 0
M  V30 24 C -0.541940 -2.162498 3.868374 0
M  V30 25 H -2.242944 -3.956195 4.863911 0
M  V30 26 H 0.482029 -5.262447 3.148318 0
M  V30 27 H 1.864219 -3.917536 1.470763 0
M  V30 28 H 3.563888 -2.414094 1.073399 0
M  V30 29 H 4.721875 -0.855248 -0.500915 0
M  V30 30 H 3.611652 3.226657 -2.571456 0
M  V30 31 H -0.230465 3.045667 0.596764 0
M  V30 32 H -2.355348 2.223136 1.208296 0
M  V30 33 H -4.328918 0.883302 0.903151 0
M  V30 34 H -4.311702 -0.805116 -0.926538 0
M  V30 35 H -2.272102 -1.039451 -2.359417 0
M  V30 36 H -0.253053 0.428945 -1.938017 0
M  V30 37 H 0.276326 0.159878 1.103224 0
M  V30 38 H 0.014550 -0.321422 3.048120 0
M  V30 39 H -1.236531 -1.665696 4.559942 0
M  V30 END ATOM
M  V30 BEGIN BOND
M  V30 1 1 1 2
M  V30 2 2 2 3
M  V30 3 1 3 4
M  V30 4 2 4 5
M  V30 5 1 5 6
M  V30 6 2 6 7
M  V30 7 1 7 8
M  V30 8 2 8 9
M  V30 9 1 9 10
M  V30 10 2 10 11
M  V30 11 1 11 12
M  V30 12 2 12 13
M  V30 13 1 13 14
M  V30 14 1 14 15
M  V30 15 2 15 16
M  V30 16 1 16 17
M  V30 17 2 17 18
M  V30 18 1 18 19
M  V30 19 2 19 20
M  V30 20 1 13 21
M  V30 21 2 21 22
M  V30 22 1 5 23
M  V30 23 2 23 24
M  V30 24 1 24 2
M  V30 25 1 22 6
M  V30 26 1 21 9
M  V30 27 1 20 15
M  V30 28 1 1 25
M  V30 29 1 3 26
M  V30 30 1 4 27
M  V30 31 1 7 28
M  V30 32 1 8 29
M  V30 33 1 11 30
M  V30 34 1 14 31
M  V30 35 1 16 32
M  V30 36 1 17 33
M  V30 37 1 18 34
M  V30 38 1 19 35
M  V30 39 1 20 36
M  V30 40 1 22 37
M  V30 41 1 23 38
M  V30 42 1 24 39
M  V30 END BOND
M  V30 END CTAB
M  END
>  <Dataset>  (690) 
ChEMBL_Kinases

>  <Ligand_Instance>  (690) 
nan

>  <PDB_ID>  (690) 
nan

>  <Standardized_SMILES>  (690) 
Oc1ccc(-c2ccc3ncnc(Nc4ccccc4)c3c2)cc1

>  <Name>  (690) 
nan

>  <Pocket>  (690) 
nan

>  <ATP_Site>  (690) 
nan

>  <Peripheral>  (690) 
nan

>  <Num_H_Atoms_ProtBoundConf>  (690) 
nan

>  <Num_Resolved_Atoms>  (690) 
nan

>  <Num_Not_Resolved_Atoms>  (690) 
nan

$$$$
CHEMBL3661201
     RDKit          3D

  0  0  0  0  0  0  0  0  0  0999 V3000
M  V30 BEGIN CTAB
M  V30 COUNTS 43 46 0 0 0
M  V30 BEGIN ATOM
M  V30 1 C 0.132256 -3.016488 4.063251 0
M  V30 2 O 0.714238 -3.793892 3.066737 0
M  V30 3 C 0.963396 -3.452911 1.753754 0
M  V30 4 C 0.766530 -2.333875 0.979966 0
M  V30 5 C 1.117330 -2.267456 -0.332596 0
M  V30 6 C 0.867000 -1.019744 -1.036108 0
M  V30 7 C 0.558352 -0.970383 -2.401700 0
M  V30 8 C 0.333467 0.253860 -3.003324 0
M  V30 9 C 0.397338 1.453982 -2.322874 0
M  V30 10 N 0.170124 2.647988 -2.924644 0
M  V30 11 C 0.232437 3.785877 -2.231835 0
M  V30 12 N 0.523235 3.718504 -0.941900 0
M  V30 13 C 0.768739 2.600418 -0.243255 0
M  V30 14 N 1.072559 2.460662 1.130709 0
M  V30 15 C 0.070059 1.869651 1.985692 0
M  V30 16 C 0.416704 1.672558 3.300814 0
M  V30 17 C -0.509419 1.080703 4.144043 0
M  V30 18 C -1.771440 0.680061 3.713935 0
M  V30 19 C -2.052879 0.912415 2.368785 0
M  V30 20 C -1.172490 1.499406 1.473374 0
M  V30 21 C 0.702992 1.430398 -0.961598 0
M  V30 22 C 0.922334 0.191130 -0.389842 0
M  V30 23 C 1.699367 -3.343549 -0.963976 0
M  V30 24 C 1.915554 -4.499445 -0.208422 0
M  V30 25 C 1.555868 -4.570220 1.142845 0
M  V30 26 O 1.857986 -5.802092 1.681591 0
M  V30 27 H -0.323227 -3.672619 4.852066 0
M  V30 28 H 0.828045 -2.298447 4.546955 0
M  V30 29 H -0.727889 -2.470119 3.626792 0
M  V30 30 H 0.298058 -1.560274 1.598364 0
M  V30 31 H 0.500079 -1.879701 -2.945696 0
M  V30 32 H 0.099390 0.241955 -4.060299 0
M  V30 33 H 0.062721 4.765841 -2.634989 0
M  V30 34 H 1.991219 2.789324 1.494093 0
M  V30 35 H 1.396989 1.980717 3.664914 0
M  V30 36 H -0.166410 0.955613 5.168799 0
M  V30 37 H -2.394515 0.237071 4.445519 0
M  V30 38 H -3.042680 0.581585 2.083888 0
M  V30 39 H -1.430997 1.655290 0.447393 0
M  V30 40 H 1.175091 0.114308 0.668044 0
M  V30 41 H 1.956490 -3.240828 -1.992827 0
M  V30 42 H 2.377306 -5.278288 -0.803795 0
M  V30 43 H 1.123660 -6.488369 1.886147 0
M  V30 END ATOM
M  V30 BEGIN BOND
M  V30 1 1 1 2
M  V30 2 1 2 3
M  V30 3 2 3 4
M  V30 4 1 4 5
M  V30 5 1 5 6
M  V30 6 2 6 7
M  V30 7 1 7 8
M  V30 8 2 8 9
M  V30 9 1 9 10
M  V30 10 2 10 11
M  V30 11 1 11 12
M  V30 12 2 12 13
M  V30 13 1 13 14
M  V30 14 1 14 15
M  V30 15 2 15 16
M  V30 16 1 16 17
M  V30 17 2 17 18
M  V30 18 1 18 19
M  V30 19 2 19 20
M  V30 20 1 13 21
M  V30 21 2 21 22
M  V30 22 2 5 23
M  V30 23 1 23 24
M  V30 24 2 24 25
M  V30 25 1 25 26
M  V30 26 1 25 3
M  V30 27 1 22 6
M  V30 28 1 21 9
M  V30 29 1 20 15
M  V30 30 1 1 27
M  V30 31 1 1 28
M  V30 32 1 1 29
M  V30 33 1 4 30
M  V30 34 1 7 31
M  V30 35 1 8 32
M  V30 36 1 11 33
M  V30 37 1 14 34
M  V30 38 1 16 35
M  V30 39 1 17 36
M  V30 40 1 18 37
M  V30 41 1 19 38
M  V30 42 1 20 39
M  V30 43 1 22 40
M  V30 44 1 23 41
M  V30 45 1 24 42
M  V30 46 1 26 43
M  V30 END BOND
M  V30 END CTAB
M  END
>  <Dataset>  (691) 
ChEMBL_Kinases

>  <Ligand_Instance>  (691) 
nan

>  <PDB_ID>  (691) 
nan

>  <Standardized_SMILES>  (691) 
COc1cc(-c2ccc3ncnc(Nc4ccccc4)c3c2)ccc1O

>  <Name>  (691) 
nan

>  <Pocket>  (691) 
nan

>  <ATP_Site>  (691) 
nan

>  <Peripheral>  (691) 
nan

>  <Num_H_Atoms_ProtBoundConf>  (691) 
nan

>  <Num_Resolved_Atoms>  (691) 
nan

>  <Num_Not_Resolved_Atoms>  (691) 
nan

$$$$
CHEMBL366080
     RDKit          3D

  0  0  0  0  0  0  0  0  0  0999 V3000
M  V30 BEGIN CTAB
M  V30 COUNTS 74 78 0 0 0
M  V30 BEGIN ATOM
M  V30 1 C 4.241959 -1.424663 3.976044 0
M  V30 2 C 3.496943 -0.517698 3.095619 0
M  V30 3 C 4.109200 0.491616 2.383757 0
M  V30 4 C 3.330734 1.293698 1.589628 0
M  V30 5 C 1.983883 1.193926 1.427728 0
M  V30 6 N 1.156170 1.987586 0.609960 0
M  V30 7 C 1.502768 3.060701 -0.238967 0
M  V30 8 O 2.703004 3.403383 -0.315200 0
M  V30 9 C 0.579223 3.825147 -1.055083 0
M  V30 10 C 1.058715 4.816937 -1.864523 0
M  V30 11 C 0.198500 5.572003 -2.674421 0
M  V30 12 N -1.141215 5.325008 -2.665933 0
M  V30 13 C -1.651391 4.362563 -1.887006 0
M  V30 14 N -3.045647 4.117647 -1.902109 0
M  V30 15 C -3.811660 3.278637 -1.003026 0
M  V30 16 C -4.391484 2.170161 -1.867074 0
M  V30 17 O -5.283452 2.744671 -2.732715 0
M  V30 18 C -4.817338 3.726308 -3.554855 0
M  V30 19 C -3.892676 4.725503 -2.908474 0
M  V30 20 C -0.787003 3.634494 -1.100314 0
M  V30 21 C 1.393703 0.179094 2.148519 0
M  V30 22 C 2.141064 -0.668044 2.973270 0
M  V30 23 N 1.357834 -1.671623 3.652804 0
M  V30 24 C 1.257261 -3.098466 3.709359 0
M  V30 25 C 1.907539 -4.076202 4.441947 0
M  V30 26 C 1.534706 -5.385067 4.229750 0
M  V30 27 N 0.574777 -5.693083 3.342279 0
M  V30 28 C -0.066507 -4.756851 2.622441 0
M  V30 29 N -1.083224 -5.139836 1.680247 0
M  V30 30 C -2.471802 -5.354456 2.060818 0
M  V30 31 C -0.676793 -5.303525 0.275985 0
M  V30 32 C -1.395789 -4.307887 -0.602858 0
M  V30 33 C -0.504154 -3.157425 -1.028051 0
M  V30 34 N 0.672575 -3.583143 -1.726245 0
M  V30 35 C 0.505724 -3.517646 -3.171590 0
M  V30 36 C 1.156875 -4.862448 -1.307125 0
M  V30 37 C 0.803021 -5.157216 0.144728 0
M  V30 38 N 0.300131 -3.499528 2.834841 0
M  V30 39 H 4.251576 -2.429188 3.514930 0
M  V30 40 H 3.721220 -1.506494 4.956361 0
M  V30 41 H 5.301210 -1.067114 4.141825 0
M  V30 42 H 5.182013 0.615432 2.477596 0
M  V30 43 H 3.872655 2.051891 1.071605 0
M  V30 44 H 0.131062 1.816961 0.575836 0
M  V30 45 H 2.101725 5.079477 -1.933306 0
M  V30 46 H 0.575763 6.357307 -3.315164 0
M  V30 47 H -3.217295 2.902233 -0.152516 0
M  V30 48 H -4.674889 3.909479 -0.641339 0
M  V30 49 H -3.524975 1.679755 -2.381650 0
M  V30 50 H -4.961273 1.443435 -1.247348 0
M  V30 51 H -5.718237 4.327444 -3.864906 0
M  V30 52 H -4.389209 3.364247 -4.510612 0
M  V30 53 H -4.452480 5.550156 -2.420372 0
M  V30 54 H -3.295347 5.177972 -3.727154 0
M  V30 55 H -1.218559 2.874185 -0.488928 0
M  V30 56 H 0.313194 0.038803 2.067280 0
M  V30 57 H 0.639552 -1.258427 4.308124 0
M  V30 58 H 2.638143 -3.622281 5.093803 0
M  V30 59 H 2.096739 -6.081551 4.846789 0
M  V30 60 H -3.182847 -5.071883 1.267134 0
M  V30 61 H -2.587053 -6.449916 2.289297 0
M  V30 62 H -2.703690 -4.847976 3.015279 0
M  V30 63 H -0.992824 -6.330654 -0.028510 0
M  V30 64 H -2.222385 -3.825678 -0.009627 0
M  V30 65 H -1.879375 -4.751802 -1.490134 0
M  V30 66 H -0.280743 -2.458043 -0.200742 0
M  V30 67 H -1.117592 -2.564475 -1.754038 0
M  V30 68 H -0.077326 -4.398573 -3.555964 0
M  V30 69 H -0.013048 -2.573040 -3.457883 0
M  V30 70 H 1.492016 -3.561267 -3.671549 0
M  V30 71 H 0.756226 -5.697427 -1.935311 0
M  V30 72 H 2.262441 -4.925152 -1.397747 0
M  V30 73 H 1.352137 -6.066097 0.429515 0
M  V30 74 H 1.111513 -4.251220 0.726733 0
M  V30 END ATOM
M  V30 BEGIN BOND
M  V30 1 1 1 2
M  V30 2 2 2 3
M  V30 3 1 3 4
M  V30 4 2 4 5
M  V30 5 1 5 6
M  V30 6 1 6 7
M  V30 7 2 7 8
M  V30 8 1 7 9
M  V30 9 2 9 10
M  V30 10 1 10 11
M  V30 11 2 11 12
M  V30 12 1 12 13
M  V30 13 1 13 14
M  V30 14 1 14 15
M  V30 15 1 15 16
M  V30 16 1 16 17
M  V30 17 1 17 18
M  V30 18 1 18 19
M  V30 19 2 13 20
M  V30 20 1 5 21
M  V30 21 2 21 22
M  V30 22 1 22 23
M  V30 23 1 23 24
M  V30 24 2 24 25
M  V30 25 1 25 26
M  V30 26 2 26 27
M  V30 27 1 27 28
M  V30 28 1 28 29
M  V30 29 1 29 30
M  V30 30 1 29 31
M  V30 31 1 31 32
M  V30 32 1 32 33
M  V30 33 1 33 34
M  V30 34 1 34 35
M  V30 35 1 34 36
M  V30 36 1 36 37
M  V30 37 2 28 38
M  V30 38 1 22 2
M  V30 39 1 38 24
M  V30 40 1 20 9
M  V30 41 1 37 31
M  V30 42 1 19 14
M  V30 43 1 1 39
M  V30 44 1 1 40
M  V30 45 1 1 41
M  V30 46 1 3 42
M  V30 47 1 4 43
M  V30 48 1 6 44
M  V30 49 1 10 45
M  V30 50 1 11 46
M  V30 51 1 15 47
M  V30 52 1 15 48
M  V30 53 1 16 49
M  V30 54 1 16 50
M  V30 55 1 18 51
M  V30 56 1 18 52
M  V30 57 1 19 53
M  V30 58 1 19 54
M  V30 59 1 20 55
M  V30 60 1 21 56
M  V30 61 1 23 57
M  V30 62 1 25 58
M  V30 63 1 26 59
M  V30 64 1 30 60
M  V30 65 1 30 61
M  V30 66 1 30 62
M  V30 67 1 31 63
M  V30 68 1 32 64
M  V30 69 1 32 65
M  V30 70 1 33 66
M  V30 71 1 33 67
M  V30 72 1 35 68
M  V30 73 1 35 69
M  V30 74 1 35 70
M  V30 75 1 36 71
M  V30 76 1 36 72
M  V30 77 1 37 73
M  V30 78 1 37 74
M  V30 END BOND
M  V30 END CTAB
M  END
>  <Dataset>  (692) 
ChEMBL_Kinases

>  <Ligand_Instance>  (692) 
nan

>  <PDB_ID>  (692) 
nan

>  <Standardized_SMILES>  (692) 
Cc1ccc(NC(=O)c2ccnc(N3CCOCC3)c2)cc1Nc1ccnc(N(C)C2CCN(C)CC2)n1

>  <Name>  (692) 
nan

>  <Pocket>  (692) 
nan

>  <ATP_Site>  (692) 
nan

>  <Peripheral>  (692) 
nan

>  <Num_H_Atoms_ProtBoundConf>  (692) 
nan

>  <Num_Resolved_Atoms>  (692) 
nan

>  <Num_Not_Resolved_Atoms>  (692) 
nan

$$$$
CHEMBL3660207
     RDKit          3D

  0  0  0  0  0  0  0  0  0  0999 V3000
M  V30 BEGIN CTAB
M  V30 COUNTS 56 61 0 0 0
M  V30 BEGIN ATOM
M  V30 1 N 2.969317 -5.975204 -4.481852 0
M  V30 2 C 2.915868 -5.048841 -3.765973 0
M  V30 3 C 2.864459 -3.908197 -2.893903 0
M  V30 4 C 3.784001 -2.884477 -2.975495 0
M  V30 5 C 3.680184 -1.800118 -2.097496 0
M  V30 6 C 2.671095 -1.711026 -1.130236 0
M  V30 7 C 2.686789 -0.537866 -0.281904 0
M  V30 8 O 3.835726 -0.041730 -0.101448 0
M  V30 9 C 1.571441 0.122244 0.370030 0
M  V30 10 N 1.788249 1.160632 1.196913 0
M  V30 11 C 0.584772 1.603642 1.667848 0
M  V30 12 N 0.211335 2.587858 2.504665 0
M  V30 13 C -1.078020 2.822039 2.813318 0
M  V30 14 N -1.325571 3.893866 3.711021 0
M  V30 15 C -0.221953 4.664238 4.250085 0
M  V30 16 C -0.339654 4.612816 5.752515 0
M  V30 17 N -1.422141 3.856914 6.264474 0
M  V30 18 C -2.694353 4.050684 5.654431 0
M  V30 19 C -2.628099 4.328176 4.174666 0
M  V30 20 C -2.101656 2.063577 2.288092 0
M  V30 21 C -1.750094 1.029322 1.412440 0
M  V30 22 C -0.415511 0.826429 1.125177 0
M  V30 23 N 0.241844 -0.051345 0.349349 0
M  V30 24 C 1.801537 -2.778558 -1.124468 0
M  V30 25 C 1.849286 -3.874680 -1.961035 0
M  V30 26 C 0.868911 -4.919736 -1.840690 0
M  V30 27 C 0.993421 -6.045930 -1.025271 0
M  V30 28 N 0.018486 -6.972329 -0.980465 0
M  V30 29 C -1.114502 -6.879152 -1.700223 0
M  V30 30 C -1.253890 -5.756542 -2.521896 0
M  V30 31 C -2.407337 -5.659583 -3.255779 0
M  V30 32 C -2.595964 -4.559056 -4.091209 0
M  V30 33 C -1.615160 -3.591326 -4.159826 0
M  V30 34 C -0.454140 -3.676973 -3.429026 0
M  V30 35 C -0.281654 -4.780007 -2.601340 0
M  V30 36 H 4.579057 -2.911249 -3.706169 0
M  V30 37 H 4.438362 -1.031931 -2.219518 0
M  V30 38 H -0.249240 5.706379 3.851964 0
M  V30 39 H 0.731431 4.241199 3.884457 0
M  V30 40 H -0.381039 5.642277 6.156215 0
M  V30 41 H 0.607089 4.178047 6.141003 0
M  V30 42 H -1.231428 2.907087 6.603300 0
M  V30 43 H -3.289404 3.115329 5.776648 0
M  V30 44 H -3.254937 4.828295 6.206890 0
M  V30 45 H -3.470837 3.963757 3.591043 0
M  V30 46 H -2.649589 5.453447 4.077782 0
M  V30 47 H -3.136428 2.253163 2.537343 0
M  V30 48 H -2.496262 0.393224 0.961981 0
M  V30 49 H -0.246452 -0.780142 -0.206691 0
M  V30 50 H 1.018143 -2.743539 -0.384281 0
M  V30 51 H 1.908326 -6.115847 -0.447599 0
M  V30 52 H -1.865447 -7.653755 -1.625457 0
M  V30 53 H -3.203202 -6.398910 -3.230439 0
M  V30 54 H -3.467998 -4.387612 -4.710758 0
M  V30 55 H -1.680362 -2.714688 -4.775821 0
M  V30 56 H 0.326698 -2.920158 -3.474538 0
M  V30 END ATOM
M  V30 BEGIN BOND
M  V30 1 3 1 2
M  V30 2 1 2 3
M  V30 3 2 3 4
M  V30 4 1 4 5
M  V30 5 2 5 6
M  V30 6 1 6 7
M  V30 7 2 7 8
M  V30 8 1 7 9
M  V30 9 2 9 10
M  V30 10 1 10 11
M  V30 11 2 11 12
M  V30 12 1 12 13
M  V30 13 1 13 14
M  V30 14 1 14 15
M  V30 15 1 15 16
M  V30 16 1 16 17
M  V30 17 1 17 18
M  V30 18 1 18 19
M  V30 19 2 13 20
M  V30 20 1 20 21
M  V30 21 2 21 22
M  V30 22 1 22 23
M  V30 23 1 6 24
M  V30 24 2 24 25
M  V30 25 1 25 26
M  V30 26 2 26 27
M  V30 27 1 27 28
M  V30 28 2 28 29
M  V30 29 1 29 30
M  V30 30 2 30 31
M  V30 31 1 31 32
M  V30 32 2 32 33
M  V30 33 1 33 34
M  V30 34 2 34 35
M  V30 35 1 25 3
M  V30 36 1 35 26
M  V30 37 1 23 9
M  V30 38 1 35 30
M  V30 39 1 22 11
M  V30 40 1 19 14
M  V30 41 1 4 36
M  V30 42 1 5 37
M  V30 43 1 15 38
M  V30 44 1 15 39
M  V30 45 1 16 40
M  V30 46 1 16 41
M  V30 47 1 17 42
M  V30 48 1 18 43
M  V30 49 1 18 44
M  V30 50 1 19 45
M  V30 51 1 19 46
M  V30 52 1 20 47
M  V30 53 1 21 48
M  V30 54 1 23 49
M  V30 55 1 24 50
M  V30 56 1 27 51
M  V30 57 1 29 52
M  V30 58 1 31 53
M  V30 59 1 32 54
M  V30 60 1 33 55
M  V30 61 1 34 56
M  V30 END BOND
M  V30 END CTAB
M  END
>  <Dataset>  (693) 
ChEMBL_Kinases

>  <Ligand_Instance>  (693) 
nan

>  <PDB_ID>  (693) 
nan

>  <Standardized_SMILES>  (693) 
N#Cc1ccc(C(=O)c2nc3nc(N4CCNCC4)ccc3[nH]2)cc1-c1cncc2ccccc12

>  <Name>  (693) 
nan

>  <Pocket>  (693) 
nan

>  <ATP_Site>  (693) 
nan

>  <Peripheral>  (693) 
nan

>  <Num_H_Atoms_ProtBoundConf>  (693) 
nan

>  <Num_Resolved_Atoms>  (693) 
nan

>  <Num_Not_Resolved_Atoms>  (693) 
nan

$$$$
CHEMBL3660206
     RDKit          3D

  0  0  0  0  0  0  0  0  0  0999 V3000
M  V30 BEGIN CTAB
M  V30 COUNTS 63 67 0 0 0
M  V30 BEGIN ATOM
M  V30 1 C 4.897313 3.311840 5.938725 0
M  V30 2 O 4.684501 3.159263 4.533459 0
M  V30 3 C 5.818935 2.958095 3.752712 0
M  V30 4 C 7.097690 2.901410 4.265897 0
M  V30 5 C 8.205832 2.697565 3.443467 0
M  V30 6 C 7.948982 2.556442 2.090927 0
M  V30 7 F 9.084404 2.359947 1.352333 0
M  V30 8 C 6.667985 2.611274 1.560063 0
M  V30 9 F 6.574878 2.453850 0.203509 0
M  V30 10 C 5.581400 2.815714 2.403902 0
M  V30 11 C 4.293617 2.847267 1.715246 0
M  V30 12 C 3.776514 4.039055 1.252370 0
M  V30 13 C 2.563069 4.014672 0.608613 0
M  V30 14 C 1.904841 2.842086 0.441078 0
M  V30 15 C 2.341066 1.613108 0.866892 0
M  V30 16 C 1.722544 0.308225 0.761914 0
M  V30 17 O 2.514021 -0.702015 0.815369 0
M  V30 18 C 0.320454 -0.022126 0.604109 0
M  V30 19 N -0.061397 -1.292715 0.410238 0
M  V30 20 C -1.413119 -1.349800 0.306534 0
M  V30 21 N -2.266688 -2.371263 0.110316 0
M  V30 22 C -3.602842 -2.186616 0.037936 0
M  V30 23 N -4.454456 -3.305386 -0.170427 0
M  V30 24 C -5.871912 -3.280436 -0.326517 0
M  V30 25 C -6.228914 -3.731986 -1.723318 0
M  V30 26 C -5.383145 -4.894479 -2.155381 0
M  V30 27 N -4.339401 -4.495974 -3.070343 0
M  V30 28 C -3.518178 -5.598176 -3.500251 0
M  V30 29 C -4.917385 -3.911700 -4.285564 0
M  V30 30 C -4.789799 -5.598926 -0.970682 0
M  V30 31 C -3.891207 -4.643274 -0.240544 0
M  V30 32 C -4.125683 -0.917393 0.167107 0
M  V30 33 C -3.266837 0.167728 0.372159 0
M  V30 34 C -1.907332 -0.064403 0.440102 0
M  V30 35 N -0.812192 0.695096 0.618082 0
M  V30 36 C 3.580004 1.691292 1.515669 0
M  V30 37 H 5.480608 2.433583 6.319158 0
M  V30 38 H 3.902371 3.322705 6.432770 0
M  V30 39 H 5.400159 4.259746 6.169810 0
M  V30 40 H 7.236009 3.019133 5.341393 0
M  V30 41 H 9.197262 2.658041 3.883060 0
M  V30 42 H 4.347774 4.937953 1.415976 0
M  V30 43 H 2.132497 4.931106 0.235119 0
M  V30 44 H 0.961790 2.857352 -0.075385 0
M  V30 45 H -6.381424 -2.359273 -0.053897 0
M  V30 46 H -6.304621 -4.067451 0.357224 0
M  V30 47 H -6.181769 -2.883854 -2.436343 0
M  V30 48 H -7.299538 -4.091848 -1.711864 0
M  V30 49 H -5.997208 -5.672889 -2.694809 0
M  V30 50 H -2.832706 -5.189151 -4.298377 0
M  V30 51 H -2.860973 -5.999277 -2.728191 0
M  V30 52 H -4.111665 -6.393925 -4.038215 0
M  V30 53 H -5.885287 -4.401789 -4.555627 0
M  V30 54 H -4.218298 -4.110123 -5.147086 0
M  V30 55 H -5.019687 -2.827622 -4.156534 0
M  V30 56 H -4.201909 -6.477429 -1.273287 0
M  V30 57 H -5.577357 -5.965281 -0.280064 0
M  V30 58 H -2.958276 -4.533010 -0.841015 0
M  V30 59 H -3.585923 -5.017308 0.758108 0
M  V30 60 H -5.178462 -0.710930 0.118096 0
M  V30 61 H -3.600611 1.187163 0.483185 0
M  V30 62 H -0.879334 1.702859 0.751497 0
M  V30 63 H 4.033549 0.781688 1.899887 0
M  V30 END ATOM
M  V30 BEGIN BOND
M  V30 1 1 1 2
M  V30 2 1 2 3
M  V30 3 2 3 4
M  V30 4 1 4 5
M  V30 5 2 5 6
M  V30 6 1 6 7
M  V30 7 1 6 8
M  V30 8 1 8 9
M  V30 9 2 8 10
M  V30 10 1 10 11
M  V30 11 2 11 12
M  V30 12 1 12 13
M  V30 13 2 13 14
M  V30 14 1 14 15
M  V30 15 1 15 16
M  V30 16 2 16 17
M  V30 17 1 16 18
M  V30 18 2 18 19
M  V30 19 1 19 20
M  V30 20 2 20 21
M  V30 21 1 21 22
M  V30 22 1 22 23
M  V30 23 1 23 24
M  V30 24 1 24 25
M  V30 25 1 25 26
M  V30 26 1 26 27
M  V30 27 1 27 28
M  V30 28 1 27 29
M  V30 29 1 26 30
M  V30 30 1 30 31
M  V30 31 2 22 32
M  V30 32 1 32 33
M  V30 33 2 33 34
M  V30 34 1 34 35
M  V30 35 2 15 36
M  V30 36 1 10 3
M  V30 37 1 36 11
M  V30 38 1 35 18
M  V30 39 1 34 20
M  V30 40 1 31 23
M  V30 41 1 1 37
M  V30 42 1 1 38
M  V30 43 1 1 39
M  V30 44 1 4 40
M  V30 45 1 5 41
M  V30 46 1 12 42
M  V30 47 1 13 43
M  V30 48 1 14 44
M  V30 49 1 24 45
M  V30 50 1 24 46
M  V30 51 1 25 47
M  V30 52 1 25 48
M  V30 53 1 26 49
M  V30 54 1 28 50
M  V30 55 1 28 51
M  V30 56 1 28 52
M  V30 57 1 29 53
M  V30 58 1 29 54
M  V30 59 1 29 55
M  V30 60 1 30 56
M  V30 61 1 30 57
M  V30 62 1 31 58
M  V30 63 1 31 59
M  V30 64 1 32 60
M  V30 65 1 33 61
M  V30 66 1 35 62
M  V30 67 1 36 63
M  V30 END BOND
M  V30 END CTAB
M  END
>  <Dataset>  (694) 
ChEMBL_Kinases

>  <Ligand_Instance>  (694) 
nan

>  <PDB_ID>  (694) 
nan

>  <Standardized_SMILES>  (694) 
COc1ccc(F)c(F)c1-c1cccc(C(=O)c2nc3nc(N4CCC(N(C)C)CC4)ccc3[nH]2)c1

>  <Name>  (694) 
nan

>  <Pocket>  (694) 
nan

>  <ATP_Site>  (694) 
nan

>  <Peripheral>  (694) 
nan

>  <Num_H_Atoms_ProtBoundConf>  (694) 
nan

>  <Num_Resolved_Atoms>  (694) 
nan

>  <Num_Not_Resolved_Atoms>  (694) 
nan

$$$$
CHEMBL3660205
     RDKit          3D

  0  0  0  0  0  0  0  0  0  0999 V3000
M  V30 BEGIN CTAB
M  V30 COUNTS 57 61 0 0 0
M  V30 BEGIN ATOM
M  V30 1 C 3.353621 -3.211330 -2.516092 0
M  V30 2 C 4.174435 -2.685003 -1.395581 0
M  V30 3 N 5.001945 -3.388814 -0.577262 0
M  V30 4 N 5.565054 -2.568258 0.313901 0
M  V30 5 C 6.513397 -2.942710 1.360569 0
M  V30 6 C 5.095947 -1.306589 0.072263 0
M  V30 7 C 5.446442 -0.075015 0.815965 0
M  V30 8 C 4.208605 -1.360958 -1.013718 0
M  V30 9 C 3.537473 -0.186592 -1.535829 0
M  V30 10 C 2.303018 0.241979 -1.097088 0
M  V30 11 C 1.618800 1.346654 -1.548959 0
M  V30 12 C 0.302188 1.757161 -1.097014 0
M  V30 13 O 0.043870 2.999709 -1.194190 0
M  V30 14 C -0.767309 0.941326 -0.547334 0
M  V30 15 N -1.875271 1.462698 -0.013376 0
M  V30 16 C -2.703742 0.488108 0.390929 0
M  V30 17 N -3.922018 0.444786 0.977441 0
M  V30 18 C -4.514810 -0.742519 1.265756 0
M  V30 19 N -5.780764 -0.740661 1.886134 0
M  V30 20 C -6.437301 0.478194 2.362307 0
M  V30 21 C -6.796457 0.269834 3.818491 0
M  V30 22 N -6.295218 -0.953271 4.377256 0
M  V30 23 C -6.619053 -2.137558 3.631440 0
M  V30 24 C -6.594475 -1.910030 2.137505 0
M  V30 25 C -3.917935 -1.952506 0.981451 0
M  V30 26 C -2.679876 -1.948666 0.385569 0
M  V30 27 C -2.094284 -0.734999 0.100708 0
M  V30 28 N -0.921504 -0.410630 -0.467457 0
M  V30 29 C 2.250347 2.081673 -2.537492 0
M  V30 30 C 3.494063 1.693083 -3.014630 0
M  V30 31 C 4.162392 0.564944 -2.534979 0
M  V30 32 C 5.448593 0.209091 -3.066612 0
M  V30 33 N 6.475431 -0.080693 -3.512485 0
M  V30 34 H 2.307522 -3.439117 -2.176782 0
M  V30 35 H 3.364145 -2.546366 -3.395545 0
M  V30 36 H 3.754012 -4.189710 -2.853576 0
M  V30 37 H 6.391769 -4.040503 1.526515 0
M  V30 38 H 6.232553 -2.485957 2.345871 0
M  V30 39 H 7.539629 -2.632195 1.160579 0
M  V30 40 H 6.056135 0.647094 0.216657 0
M  V30 41 H 6.078372 -0.322116 1.695575 0
M  V30 42 H 4.544632 0.417606 1.283425 0
M  V30 43 H 1.893746 -0.381114 -0.318865 0
M  V30 44 H -5.882657 1.391161 2.150405 0
M  V30 45 H -7.398372 0.523075 1.795314 0
M  V30 46 H -7.892598 0.340901 3.987719 0
M  V30 47 H -6.324807 1.110023 4.370175 0
M  V30 48 H -5.343105 -0.928432 4.753223 0
M  V30 49 H -7.611239 -2.515917 3.923684 0
M  V30 50 H -5.885480 -2.924695 3.896302 0
M  V30 51 H -6.320387 -2.793519 1.564080 0
M  V30 52 H -7.659402 -1.677094 1.837118 0
M  V30 53 H -4.337396 -2.928736 1.184321 0
M  V30 54 H -2.143664 -2.876300 0.129186 0
M  V30 55 H -0.251223 -1.127439 -0.797402 0
M  V30 56 H 1.848485 2.973148 -2.997492 0
M  V30 57 H 4.025741 2.250014 -3.796984 0
M  V30 END ATOM
M  V30 BEGIN BOND
M  V30 1 1 1 2
M  V30 2 2 2 3
M  V30 3 1 3 4
M  V30 4 1 4 5
M  V30 5 1 4 6
M  V30 6 1 6 7
M  V30 7 2 6 8
M  V30 8 1 8 9
M  V30 9 2 9 10
M  V30 10 1 10 11
M  V30 11 1 11 12
M  V30 12 2 12 13
M  V30 13 1 12 14
M  V30 14 2 14 15
M  V30 15 1 15 16
M  V30 16 2 16 17
M  V30 17 1 17 18
M  V30 18 1 18 19
M  V30 19 1 19 20
M  V30 20 1 20 21
M  V30 21 1 21 22
M  V30 22 1 22 23
M  V30 23 1 23 24
M  V30 24 2 18 25
M  V30 25 1 25 26
M  V30 26 2 26 27
M  V30 27 1 27 28
M  V30 28 2 11 29
M  V30 29 1 29 30
M  V30 30 2 30 31
M  V30 31 1 31 32
M  V30 32 3 32 33
M  V30 33 1 8 2
M  V30 34 1 31 9
M  V30 35 1 28 14
M  V30 36 1 27 16
M  V30 37 1 24 19
M  V30 38 1 1 34
M  V30 39 1 1 35
M  V30 40 1 1 36
M  V30 41 1 5 37
M  V30 42 1 5 38
M  V30 43 1 5 39
M  V30 44 1 7 40
M  V30 45 1 7 41
M  V30 46 1 7 42
M  V30 47 1 10 43
M  V30 48 1 20 44
M  V30 49 1 20 45
M  V30 50 1 21 46
M  V30 51 1 21 47
M  V30 52 1 22 48
M  V30 53 1 23 49
M  V30 54 1 23 50
M  V30 55 1 24 51
M  V30 56 1 24 52
M  V30 57 1 25 53
M  V30 58 1 26 54
M  V30 59 1 28 55
M  V30 60 1 29 56
M  V30 61 1 30 57
M  V30 END BOND
M  V30 END CTAB
M  END
>  <Dataset>  (695) 
ChEMBL_Kinases

>  <Ligand_Instance>  (695) 
nan

>  <PDB_ID>  (695) 
nan

>  <Standardized_SMILES>  (695) 
Cc1nn(C)c(C)c1-c1cc(C(=O)c2nc3nc(N4CCNCC4)ccc3[nH]2)ccc1C#N

>  <Name>  (695) 
nan

>  <Pocket>  (695) 
nan

>  <ATP_Site>  (695) 
nan

>  <Peripheral>  (695) 
nan

>  <Num_H_Atoms_ProtBoundConf>  (695) 
nan

>  <Num_Resolved_Atoms>  (695) 
nan

>  <Num_Not_Resolved_Atoms>  (695) 
nan

$$$$
CHEMBL3660204
     RDKit          3D

  0  0  0  0  0  0  0  0  0  0999 V3000
M  V30 BEGIN CTAB
M  V30 COUNTS 58 63 0 0 0
M  V30 BEGIN ATOM
M  V30 1 O -0.789468 -0.802811 5.404782 0
M  V30 2 C -0.157533 -0.860858 4.295059 0
M  V30 3 C 1.246983 -0.505980 4.369099 0
M  V30 4 C 1.863316 -0.767329 5.586426 0
M  V30 5 C 3.200191 -0.428351 5.679581 0
M  V30 6 N 3.818249 0.110218 4.649310 0
M  V30 7 C 3.338494 0.404164 3.448539 0
M  V30 8 C 3.939263 0.991664 2.266585 0
M  V30 9 C 3.238394 1.210447 1.104621 0
M  V30 10 N 3.764767 1.750233 -0.002288 0
M  V30 11 C 5.039521 2.129381 -0.073027 0
M  V30 12 C 5.820006 1.947317 1.047608 0
M  V30 13 C 7.141452 2.335299 0.988330 0
M  V30 14 C 7.974685 2.180033 2.075103 0
M  V30 15 C 7.418613 1.616040 3.226751 0
M  V30 16 C 6.095169 1.248413 3.227279 0
M  V30 17 C 5.246144 1.390493 2.165106 0
M  V30 18 C 2.025966 0.058571 3.393519 0
M  V30 19 C -0.948693 -1.272028 3.148544 0
M  V30 20 N -2.275935 -1.446818 3.246854 0
M  V30 21 C -2.767887 -1.840480 2.042773 0
M  V30 22 C -4.056238 -2.136581 1.658523 0
M  V30 23 C -4.277107 -2.518750 0.340899 0
M  V30 24 C -3.247381 -2.609114 -0.587215 0
M  V30 25 S -3.403850 -3.069143 -2.244640 0
M  V30 26 O -4.495959 -4.119407 -2.351002 0
M  V30 27 O -2.145011 -3.756934 -2.697149 0
M  V30 28 N -3.681058 -1.755412 -3.289673 0
M  V30 29 C -4.874517 -1.016787 -3.059502 0
M  V30 30 C -6.130105 -1.702497 -3.541526 0
M  V30 31 N -5.883415 -2.592159 -4.646924 0
M  V30 32 C -4.764329 -2.185834 -5.460490 0
M  V30 33 C -3.506423 -2.026528 -4.676024 0
M  V30 34 C -1.960413 -2.298325 -0.146513 0
M  V30 35 C -1.721414 -1.918879 1.150650 0
M  V30 36 N -0.652208 -1.564082 1.879576 0
M  V30 37 H 1.426157 -1.202272 6.467054 0
M  V30 38 H 3.774480 -0.594200 6.595739 0
M  V30 39 H 2.207961 0.977600 0.954579 0
M  V30 40 H 5.485969 2.570343 -0.964321 0
M  V30 41 H 7.549569 2.768499 0.088993 0
M  V30 42 H 8.986660 2.491539 1.990195 0
M  V30 43 H 8.101031 1.512932 4.049235 0
M  V30 44 H 5.792655 0.834102 4.156442 0
M  V30 45 H 1.400466 0.208038 2.524350 0
M  V30 46 H -4.908445 -2.088427 2.325292 0
M  V30 47 H -5.262225 -2.768638 -0.041877 0
M  V30 48 H -4.993512 -0.728225 -1.986156 0
M  V30 49 H -4.779771 -0.052071 -3.620279 0
M  V30 50 H -6.564960 -2.290514 -2.717642 0
M  V30 51 H -6.881817 -0.956762 -3.878665 0
M  V30 52 H -6.711252 -2.866554 -5.170259 0
M  V30 53 H -5.068550 -1.233536 -5.945958 0
M  V30 54 H -4.648652 -2.927408 -6.279182 0
M  V30 55 H -2.978812 -1.126992 -5.107450 0
M  V30 56 H -2.791221 -2.860552 -4.837842 0
M  V30 57 H -1.119656 -2.342630 -0.793057 0
M  V30 58 H 0.296264 -1.539312 1.458525 0
M  V30 END ATOM
M  V30 BEGIN BOND
M  V30 1 2 1 2
M  V30 2 1 2 3
M  V30 3 2 3 4
M  V30 4 1 4 5
M  V30 5 2 5 6
M  V30 6 1 6 7
M  V30 7 1 7 8
M  V30 8 2 8 9
M  V30 9 1 9 10
M  V30 10 2 10 11
M  V30 11 1 11 12
M  V30 12 2 12 13
M  V30 13 1 13 14
M  V30 14 2 14 15
M  V30 15 1 15 16
M  V30 16 2 16 17
M  V30 17 2 7 18
M  V30 18 1 2 19
M  V30 19 2 19 20
M  V30 20 1 20 21
M  V30 21 2 21 22
M  V30 22 1 22 23
M  V30 23 2 23 24
M  V30 24 1 24 25
M  V30 25 2 25 26
M  V30 26 2 25 27
M  V30 27 1 25 28
M  V30 28 1 28 29
M  V30 29 1 29 30
M  V30 30 1 30 31
M  V30 31 1 31 32
M  V30 32 1 32 33
M  V30 33 1 24 34
M  V30 34 2 34 35
M  V30 35 1 35 36
M  V30 36 1 18 3
M  V30 37 1 36 19
M  V30 38 1 17 8
M  V30 39 1 35 21
M  V30 40 1 17 12
M  V30 41 1 33 28
M  V30 42 1 4 37
M  V30 43 1 5 38
M  V30 44 1 9 39
M  V30 45 1 11 40
M  V30 46 1 13 41
M  V30 47 1 14 42
M  V30 48 1 15 43
M  V30 49 1 16 44
M  V30 50 1 18 45
M  V30 51 1 22 46
M  V30 52 1 23 47
M  V30 53 1 29 48
M  V30 54 1 29 49
M  V30 55 1 30 50
M  V30 56 1 30 51
M  V30 57 1 31 52
M  V30 58 1 32 53
M  V30 59 1 32 54
M  V30 60 1 33 55
M  V30 61 1 33 56
M  V30 62 1 34 57
M  V30 63 1 36 58
M  V30 END BOND
M  V30 END CTAB
M  END
>  <Dataset>  (696) 
ChEMBL_Kinases

>  <Ligand_Instance>  (696) 
nan

>  <PDB_ID>  (696) 
nan

>  <Standardized_SMILES>  (696) 
O=C(c1ccnc(-c2cncc3ccccc23)c1)c1nc2ccc(S(=O)(=O)N3CCNCC3)cc2[nH]1

>  <Name>  (696) 
nan

>  <Pocket>  (696) 
nan

>  <ATP_Site>  (696) 
nan

>  <Peripheral>  (696) 
nan

>  <Num_H_Atoms_ProtBoundConf>  (696) 
nan

>  <Num_Resolved_Atoms>  (696) 
nan

>  <Num_Not_Resolved_Atoms>  (696) 
nan

$$$$
CHEMBL3660203
     RDKit          3D

  0  0  0  0  0  0  0  0  0  0999 V3000
M  V30 BEGIN CTAB
M  V30 COUNTS 46 48 0 0 0
M  V30 BEGIN ATOM
M  V30 1 C 0.704358 -5.096675 -1.455456 0
M  V30 2 C 0.752984 -4.470179 -0.100305 0
M  V30 3 C 1.635657 -5.271578 0.820718 0
M  V30 4 C -0.694584 -4.696739 0.477113 0
M  V30 5 O 0.966844 -3.097099 -0.072451 0
M  V30 6 C 1.948390 -2.298140 -0.550840 0
M  V30 7 O 2.552926 -3.274787 -1.029066 0
M  V30 8 N 1.862289 -0.890585 -0.329857 0
M  V30 9 C 2.812823 0.048876 -0.874091 0
M  V30 10 C 2.393734 1.484123 -0.838640 0
M  V30 11 N 1.299958 1.766518 0.033396 0
M  V30 12 C 1.093003 2.784117 1.063360 0
M  V30 13 O 2.187140 2.975500 0.567310 0
M  V30 14 C -0.140257 2.773612 1.806082 0
M  V30 15 C 0.087614 2.194097 3.053988 0
M  V30 16 C -0.934095 2.041901 4.000124 0
M  V30 17 C -2.157106 2.526689 3.548612 0
M  V30 18 N -3.338241 2.550575 4.157577 0
M  V30 19 C -4.268753 3.106480 3.360718 0
M  V30 20 N -3.662671 3.452836 2.196840 0
M  V30 21 C -2.377050 3.097842 2.316886 0
M  V30 22 C -1.367328 3.236120 1.411621 0
M  V30 23 C 0.220844 0.803080 -0.156636 0
M  V30 24 C 0.763943 -0.438772 0.516689 0
M  V30 25 H 1.684873 -5.537403 -1.790345 0
M  V30 26 H 0.022515 -6.000897 -1.399807 0
M  V30 27 H 0.252738 -4.451872 -2.245009 0
M  V30 28 H 2.340218 -5.942161 0.296872 0
M  V30 29 H 1.014800 -5.892879 1.547482 0
M  V30 30 H 2.188605 -4.569694 1.513551 0
M  V30 31 H -1.012039 -5.730016 0.302441 0
M  V30 32 H -0.671172 -4.531016 1.570915 0
M  V30 33 H -1.375996 -3.988262 0.014593 0
M  V30 34 H 3.792237 -0.034693 -0.392049 0
M  V30 35 H 2.929806 -0.238600 -1.961353 0
M  V30 36 H 3.244941 2.148263 -0.654958 0
M  V30 37 H 2.030041 1.783427 -1.875381 0
M  V30 38 H 1.049394 1.807941 3.436397 0
M  V30 39 H -0.812577 1.606835 4.966101 0
M  V30 40 H -5.312696 3.277439 3.545594 0
M  V30 41 H -4.130002 3.909399 1.372229 0
M  V30 42 H -1.391390 3.649974 0.437317 0
M  V30 43 H 0.106165 0.628433 -1.237178 0
M  V30 44 H -0.714192 1.150443 0.325572 0
M  V30 45 H 1.283372 -0.173251 1.490402 0
M  V30 46 H 0.026237 -1.225691 0.700822 0
M  V30 END ATOM
M  V30 BEGIN BOND
M  V30 1 1 1 2
M  V30 2 1 2 3
M  V30 3 1 2 4
M  V30 4 1 2 5
M  V30 5 1 5 6
M  V30 6 2 6 7
M  V30 7 1 6 8
M  V30 8 1 8 9
M  V30 9 1 9 10
M  V30 10 1 10 11
M  V30 11 1 11 12
M  V30 12 2 12 13
M  V30 13 1 12 14
M  V30 14 2 14 15
M  V30 15 1 15 16
M  V30 16 2 16 17
M  V30 17 1 17 18
M  V30 18 2 18 19
M  V30 19 1 19 20
M  V30 20 1 20 21
M  V30 21 2 21 22
M  V30 22 1 11 23
M  V30 23 1 23 24
M  V30 24 1 24 8
M  V30 25 1 22 14
M  V30 26 1 21 17
M  V30 27 1 1 25
M  V30 28 1 1 26
M  V30 29 1 1 27
M  V30 30 1 3 28
M  V30 31 1 3 29
M  V30 32 1 3 30
M  V30 33 1 4 31
M  V30 34 1 4 32
M  V30 35 1 4 33
M  V30 36 1 9 34
M  V30 37 1 9 35
M  V30 38 1 10 36
M  V30 39 1 10 37
M  V30 40 1 15 38
M  V30 41 1 16 39
M  V30 42 1 19 40
M  V30 43 1 20 41
M  V30 44 1 22 42
M  V30 45 1 23 43
M  V30 46 1 23 44
M  V30 47 1 24 45
M  V30 48 1 24 46
M  V30 END BOND
M  V30 END CTAB
M  END
>  <Dataset>  (697) 
ChEMBL_Kinases

>  <Ligand_Instance>  (697) 
nan

>  <PDB_ID>  (697) 
nan

>  <Standardized_SMILES>  (697) 
CC(C)(C)OC(=O)N1CCN(C(=O)c2ccc3nc[nH]c3c2)CC1

>  <Name>  (697) 
nan

>  <Pocket>  (697) 
nan

>  <ATP_Site>  (697) 
nan

>  <Peripheral>  (697) 
nan

>  <Num_H_Atoms_ProtBoundConf>  (697) 
nan

>  <Num_Resolved_Atoms>  (697) 
nan

>  <Num_Not_Resolved_Atoms>  (697) 
nan

$$$$
CHEMBL3660202
     RDKit          3D

  0  0  0  0  0  0  0  0  0  0999 V3000
M  V30 BEGIN CTAB
M  V30 COUNTS 52 56 0 0 0
M  V30 BEGIN ATOM
M  V30 1 C 5.006250 0.240221 4.260331 0
M  V30 2 C 5.637876 -0.069994 2.952356 0
M  V30 3 N 6.577265 -0.888659 2.449234 0
M  V30 4 N 6.724530 -0.733963 1.152095 0
M  V30 5 C 5.866075 0.215650 0.740632 0
M  V30 6 C 5.781152 0.643704 -0.699660 0
M  V30 7 C 5.177483 0.644465 1.848799 0
M  V30 8 C 4.181350 1.699428 1.646789 0
M  V30 9 C 2.859058 1.373249 1.481114 0
M  V30 10 C 1.805255 2.233518 1.277707 0
M  V30 11 C 0.407749 1.954523 1.081824 0
M  V30 12 O -0.398741 2.926763 1.330900 0
M  V30 13 C -0.294060 0.768710 0.647324 0
M  V30 14 N -1.640743 0.789829 0.485981 0
M  V30 15 C -2.031769 -0.454293 0.074773 0
M  V30 16 N -3.238010 -0.965307 -0.221328 0
M  V30 17 C -3.373154 -2.263378 -0.613061 0
M  V30 18 N -4.685225 -2.704702 -0.912333 0
M  V30 19 C -5.097056 -4.049622 -1.206530 0
M  V30 20 C -6.162528 -4.553677 -0.268070 0
M  V30 21 N -7.212920 -3.600845 -0.008731 0
M  V30 22 C -6.743636 -2.244745 0.153469 0
M  V30 23 C -5.825556 -1.813651 -0.968909 0
M  V30 24 C -2.307008 -3.127512 -0.730407 0
M  V30 25 C -1.058609 -2.584677 -0.420786 0
M  V30 26 C -0.931026 -1.271337 -0.026472 0
M  V30 27 N 0.084189 -0.475406 0.331524 0
M  V30 28 C 2.220461 3.573645 1.253305 0
M  V30 29 C 3.538064 3.915059 1.417981 0
M  V30 30 N 4.495205 3.014152 1.608663 0
M  V30 31 H 5.428103 -0.404966 5.043553 0
M  V30 32 H 3.926925 -0.059463 4.159680 0
M  V30 33 H 5.007813 1.324459 4.491537 0
M  V30 34 H 7.402626 -1.279925 0.586361 0
M  V30 35 H 4.953185 1.378489 -0.789977 0
M  V30 36 H 5.528618 -0.209639 -1.349448 0
M  V30 37 H 6.733064 1.063752 -1.041123 0
M  V30 38 H 2.628165 0.324411 1.523796 0
M  V30 39 H -5.520897 -4.020619 -2.249548 0
M  V30 40 H -4.291865 -4.795029 -1.208156 0
M  V30 41 H -5.730573 -4.937957 0.684937 0
M  V30 42 H -6.635305 -5.435524 -0.747207 0
M  V30 43 H -7.645612 -3.870736 0.907205 0
M  V30 44 H -7.626333 -1.580783 0.143476 0
M  V30 45 H -6.243079 -2.072851 1.128763 0
M  V30 46 H -5.569991 -0.750389 -0.804536 0
M  V30 47 H -6.329858 -1.936470 -1.953360 0
M  V30 48 H -2.383025 -4.158129 -1.034308 0
M  V30 49 H -0.163596 -3.180531 -0.482469 0
M  V30 50 H 1.049769 -0.845775 0.339420 0
M  V30 51 H 1.577146 4.415716 1.110169 0
M  V30 52 H 3.907142 4.944269 1.406406 0
M  V30 END ATOM
M  V30 BEGIN BOND
M  V30 1 1 1 2
M  V30 2 2 2 3
M  V30 3 1 3 4
M  V30 4 1 4 5
M  V30 5 1 5 6
M  V30 6 2 5 7
M  V30 7 1 7 8
M  V30 8 2 8 9
M  V30 9 1 9 10
M  V30 10 1 10 11
M  V30 11 2 11 12
M  V30 12 1 11 13
M  V30 13 2 13 14
M  V30 14 1 14 15
M  V30 15 2 15 16
M  V30 16 1 16 17
M  V30 17 1 17 18
M  V30 18 1 18 19
M  V30 19 1 19 20
M  V30 20 1 20 21
M  V30 21 1 21 22
M  V30 22 1 22 23
M  V30 23 2 17 24
M  V30 24 1 24 25
M  V30 25 2 25 26
M  V30 26 1 26 27
M  V30 27 2 10 28
M  V30 28 1 28 29
M  V30 29 2 29 30
M  V30 30 1 7 2
M  V30 31 1 30 8
M  V30 32 1 27 13
M  V30 33 1 26 15
M  V30 34 1 23 18
M  V30 35 1 1 31
M  V30 36 1 1 32
M  V30 37 1 1 33
M  V30 38 1 4 34
M  V30 39 1 6 35
M  V30 40 1 6 36
M  V30 41 1 6 37
M  V30 42 1 9 38
M  V30 43 1 19 39
M  V30 44 1 19 40
M  V30 45 1 20 41
M  V30 46 1 20 42
M  V30 47 1 21 43
M  V30 48 1 22 44
M  V30 49 1 22 45
M  V30 50 1 23 46
M  V30 51 1 23 47
M  V30 52 1 24 48
M  V30 53 1 25 49
M  V30 54 1 27 50
M  V30 55 1 28 51
M  V30 56 1 29 52
M  V30 END BOND
M  V30 END CTAB
M  END
>  <Dataset>  (698) 
ChEMBL_Kinases

>  <Ligand_Instance>  (698) 
nan

>  <PDB_ID>  (698) 
nan

>  <Standardized_SMILES>  (698) 
Cc1n[nH]c(C)c1-c1cc(C(=O)c2nc3nc(N4CCNCC4)ccc3[nH]2)ccn1

>  <Name>  (698) 
nan

>  <Pocket>  (698) 
nan

>  <ATP_Site>  (698) 
nan

>  <Peripheral>  (698) 
nan

>  <Num_H_Atoms_ProtBoundConf>  (698) 
nan

>  <Num_Resolved_Atoms>  (698) 
nan

>  <Num_Not_Resolved_Atoms>  (698) 
nan

$$$$
CHEMBL3660201
     RDKit          3D

  0  0  0  0  0  0  0  0  0  0999 V3000
M  V30 BEGIN CTAB
M  V30 COUNTS 61 65 0 0 0
M  V30 BEGIN ATOM
M  V30 1 C 6.409496 2.639995 2.306806 0
M  V30 2 C 6.572821 1.178702 2.535859 0
M  V30 3 N 6.996799 0.423226 3.543740 0
M  V30 4 N 6.934257 -0.870767 3.220656 0
M  V30 5 C 6.452150 -0.953001 1.958694 0
M  V30 6 C 6.298072 -2.297139 1.387048 0
M  V30 7 C 6.217730 0.330877 1.509055 0
M  V30 8 C 5.700302 0.430362 0.153939 0
M  V30 9 C 4.349319 0.517964 -0.066044 0
M  V30 10 C 3.714584 0.621061 -1.279027 0
M  V30 11 C 2.299264 0.702681 -1.581017 0
M  V30 12 O 2.025333 1.227426 -2.717064 0
M  V30 13 C 1.174501 0.274043 -0.777812 0
M  V30 14 N -0.071711 0.507925 -1.257817 0
M  V30 15 C -0.984615 0.032087 -0.369269 0
M  V30 16 N -2.326492 0.008982 -0.362785 0
M  V30 17 C -3.032610 -0.534713 0.657885 0
M  V30 18 N -4.456252 -0.532464 0.587252 0
M  V30 19 C -5.232835 -1.106009 1.642110 0
M  V30 20 C -6.610481 -1.388917 1.145503 0
M  V30 21 C -6.521409 -2.024987 -0.254029 0
M  V30 22 N -5.766412 -3.196657 -0.282051 0
M  V30 23 C -6.176688 -4.289722 0.543377 0
M  V30 24 C -4.530413 -3.310778 -0.897007 0
M  V30 25 C -6.100967 -0.930220 -1.191022 0
M  V30 26 C -5.134734 0.041439 -0.553996 0
M  V30 27 C -2.335601 -1.076457 1.715647 0
M  V30 28 C -0.955862 -1.089424 1.779397 0
M  V30 29 C -0.312630 -0.517121 0.700865 0
M  V30 30 N 0.977787 -0.340686 0.395386 0
M  V30 31 C 4.632409 0.629493 -2.337183 0
M  V30 32 C 5.994254 0.543310 -2.148178 0
M  V30 33 N 6.511190 0.445114 -0.912182 0
M  V30 34 H 6.531969 3.170514 3.255210 0
M  V30 35 H 5.360771 2.837203 1.962339 0
M  V30 36 H 7.084924 2.959444 1.498363 0
M  V30 37 H 7.254822 -1.533123 3.971377 0
M  V30 38 H 7.225078 -2.901129 1.525032 0
M  V30 39 H 5.427550 -2.807771 1.846935 0
M  V30 40 H 6.088229 -2.241507 0.299450 0
M  V30 41 H 3.727771 0.515179 0.804581 0
M  V30 42 H -4.770720 -2.005481 2.119094 0
M  V30 43 H -5.364103 -0.391502 2.508577 0
M  V30 44 H -7.101610 -0.391856 0.941536 0
M  V30 45 H -7.246734 -1.985843 1.827391 0
M  V30 46 H -7.577344 -2.282131 -0.490241 0
M  V30 47 H -6.832644 -3.924566 1.359296 0
M  V30 48 H -6.670745 -5.029880 -0.121267 0
M  V30 49 H -5.248074 -4.727626 1.005660 0
M  V30 50 H -4.113437 -2.453523 -1.405390 0
M  V30 51 H -3.693870 -3.715324 -0.251495 0
M  V30 52 H -4.609660 -4.107532 -1.698430 0
M  V30 53 H -7.004510 -0.352080 -1.472284 0
M  V30 54 H -5.690180 -1.329151 -2.137217 0
M  V30 55 H -5.663730 0.951523 -0.197763 0
M  V30 56 H -4.362364 0.400673 -1.259215 0
M  V30 57 H -2.850115 -1.516196 2.547531 0
M  V30 58 H -0.375585 -1.502689 2.588412 0
M  V30 59 H 1.745491 -0.650234 0.992631 0
M  V30 60 H 4.318732 0.705676 -3.389476 0
M  V30 61 H 6.671715 0.552692 -2.991938 0
M  V30 END ATOM
M  V30 BEGIN BOND
M  V30 1 1 1 2
M  V30 2 2 2 3
M  V30 3 1 3 4
M  V30 4 1 4 5
M  V30 5 1 5 6
M  V30 6 2 5 7
M  V30 7 1 7 8
M  V30 8 2 8 9
M  V30 9 1 9 10
M  V30 10 1 10 11
M  V30 11 2 11 12
M  V30 12 1 11 13
M  V30 13 2 13 14
M  V30 14 1 14 15
M  V30 15 2 15 16
M  V30 16 1 16 17
M  V30 17 1 17 18
M  V30 18 1 18 19
M  V30 19 1 19 20
M  V30 20 1 20 21
M  V30 21 1 21 22
M  V30 22 1 22 23
M  V30 23 1 22 24
M  V30 24 1 21 25
M  V30 25 1 25 26
M  V30 26 2 17 27
M  V30 27 1 27 28
M  V30 28 2 28 29
M  V30 29 1 29 30
M  V30 30 2 10 31
M  V30 31 1 31 32
M  V30 32 2 32 33
M  V30 33 1 7 2
M  V30 34 1 33 8
M  V30 35 1 30 13
M  V30 36 1 29 15
M  V30 37 1 26 18
M  V30 38 1 1 34
M  V30 39 1 1 35
M  V30 40 1 1 36
M  V30 41 1 4 37
M  V30 42 1 6 38
M  V30 43 1 6 39
M  V30 44 1 6 40
M  V30 45 1 9 41
M  V30 46 1 19 42
M  V30 47 1 19 43
M  V30 48 1 20 44
M  V30 49 1 20 45
M  V30 50 1 21 46
M  V30 51 1 23 47
M  V30 52 1 23 48
M  V30 53 1 23 49
M  V30 54 1 24 50
M  V30 55 1 24 51
M  V30 56 1 24 52
M  V30 57 1 25 53
M  V30 58 1 25 54
M  V30 59 1 26 55
M  V30 60 1 26 56
M  V30 61 1 27 57
M  V30 62 1 28 58
M  V30 63 1 30 59
M  V30 64 1 31 60
M  V30 65 1 32 61
M  V30 END BOND
M  V30 END CTAB
M  END
>  <Dataset>  (699) 
ChEMBL_Kinases

>  <Ligand_Instance>  (699) 
nan

>  <PDB_ID>  (699) 
nan

>  <Standardized_SMILES>  (699) 
Cc1n[nH]c(C)c1-c1cc(C(=O)c2nc3nc(N4CCC(N(C)C)CC4)ccc3[nH]2)ccn1

>  <Name>  (699) 
nan

>  <Pocket>  (699) 
nan

>  <ATP_Site>  (699) 
nan

>  <Peripheral>  (699) 
nan

>  <Num_H_Atoms_ProtBoundConf>  (699) 
nan

>  <Num_Resolved_Atoms>  (699) 
nan

>  <Num_Not_Resolved_Atoms>  (699) 
nan

$$$$
CHEMBL3660200
     RDKit          3D

  0  0  0  0  0  0  0  0  0  0999 V3000
M  V30 BEGIN CTAB
M  V30 COUNTS 54 59 0 0 0
M  V30 BEGIN ATOM
M  V30 1 O -0.071689 0.970122 -0.710491 0
M  V30 2 C 0.421993 -0.178367 -0.406885 0
M  V30 3 C 1.863255 -0.116546 -0.368969 0
M  V30 4 C 2.669102 -1.227910 -0.481293 0
M  V30 5 C 4.033203 -1.113556 -0.419917 0
M  V30 6 N 4.610740 0.074431 -0.251304 0
M  V30 7 C 3.935343 1.208281 -0.132674 0
M  V30 8 C 4.457989 2.556893 0.062318 0
M  V30 9 C 3.613538 3.670791 -0.056774 0
M  V30 10 N 4.041965 4.927026 0.119206 0
M  V30 11 C 5.298416 5.247221 0.421811 0
M  V30 12 C 6.209384 4.189552 0.559658 0
M  V30 13 C 7.535292 4.438442 0.881401 0
M  V30 14 C 8.454445 3.425081 1.033257 0
M  V30 15 C 7.977677 2.148199 0.846434 0
M  V30 16 C 6.657085 1.902611 0.525615 0
M  V30 17 C 5.745947 2.908698 0.374635 0
M  V30 18 C 2.591511 1.028171 -0.200845 0
M  V30 19 C -0.504714 -1.245793 -0.173847 0
M  V30 20 N -1.802397 -0.874249 -0.174979 0
M  V30 21 C -2.578742 -1.954684 0.041327 0
M  V30 22 N -3.898957 -2.171930 0.134054 0
M  V30 23 C -4.427343 -3.379740 0.352654 0
M  V30 24 N -5.846027 -3.343476 0.438077 0
M  V30 25 C -6.936599 -4.086931 -0.191494 0
M  V30 26 C -7.923887 -4.606195 0.786105 0
M  V30 27 N -7.954775 -4.043004 2.080236 0
M  V30 28 C -6.848152 -3.294645 2.542739 0
M  V30 29 C -6.379289 -2.385977 1.393426 0
M  V30 30 C -3.611031 -4.478843 0.494973 0
M  V30 31 C -2.263883 -4.323967 0.412378 0
M  V30 32 C -1.760726 -3.047857 0.184278 0
M  V30 33 N -0.515326 -2.565538 0.047049 0
M  V30 34 H 2.328369 -2.233685 -0.627506 0
M  V30 35 H 4.748550 -1.949589 -0.500330 0
M  V30 36 H 2.574815 3.668193 -0.298934 0
M  V30 37 H 5.639777 6.265251 0.562398 0
M  V30 38 H 7.780194 5.480979 1.000249 0
M  V30 39 H 9.449871 3.759707 1.284092 0
M  V30 40 H 8.754295 1.374808 0.979340 0
M  V30 41 H 6.479834 0.864822 0.428034 0
M  V30 42 H 1.939752 1.900542 -0.099127 0
M  V30 43 H -7.450623 -3.286197 -0.817260 0
M  V30 44 H -6.601379 -4.848279 -0.895342 0
M  V30 45 H -8.957990 -4.429085 0.349776 0
M  V30 46 H -7.902779 -5.736262 0.865795 0
M  V30 47 H -8.322296 -4.679181 2.823680 0
M  V30 48 H -5.972206 -3.973546 2.732601 0
M  V30 49 H -7.135524 -2.725024 3.429878 0
M  V30 50 H -5.624171 -1.658019 1.755577 0
M  V30 51 H -7.278203 -1.911045 0.987525 0
M  V30 52 H -4.104998 -5.416759 0.667167 0
M  V30 53 H -1.589189 -5.138523 0.517613 0
M  V30 54 H 0.341514 -3.108869 0.101317 0
M  V30 END ATOM
M  V30 BEGIN BOND
M  V30 1 2 1 2
M  V30 2 1 2 3
M  V30 3 2 3 4
M  V30 4 1 4 5
M  V30 5 2 5 6
M  V30 6 1 6 7
M  V30 7 1 7 8
M  V30 8 2 8 9
M  V30 9 1 9 10
M  V30 10 2 10 11
M  V30 11 1 11 12
M  V30 12 2 12 13
M  V30 13 1 13 14
M  V30 14 2 14 15
M  V30 15 1 15 16
M  V30 16 2 16 17
M  V30 17 2 7 18
M  V30 18 1 2 19
M  V30 19 2 19 20
M  V30 20 1 20 21
M  V30 21 2 21 22
M  V30 22 1 22 23
M  V30 23 1 23 24
M  V30 24 1 24 25
M  V30 25 1 25 26
M  V30 26 1 26 27
M  V30 27 1 27 28
M  V30 28 1 28 29
M  V30 29 2 23 30
M  V30 30 1 30 31
M  V30 31 2 31 32
M  V30 32 1 32 33
M  V30 33 1 18 3
M  V30 34 1 33 19
M  V30 35 1 17 8
M  V30 36 1 32 21
M  V30 37 1 17 12
M  V30 38 1 29 24
M  V30 39 1 4 34
M  V30 40 1 5 35
M  V30 41 1 9 36
M  V30 42 1 11 37
M  V30 43 1 13 38
M  V30 44 1 14 39
M  V30 45 1 15 40
M  V30 46 1 16 41
M  V30 47 1 18 42
M  V30 48 1 25 43
M  V30 49 1 25 44
M  V30 50 1 26 45
M  V30 51 1 26 46
M  V30 52 1 27 47
M  V30 53 1 28 48
M  V30 54 1 28 49
M  V30 55 1 29 50
M  V30 56 1 29 51
M  V30 57 1 30 52
M  V30 58 1 31 53
M  V30 59 1 33 54
M  V30 END BOND
M  V30 END CTAB
M  END
>  <Dataset>  (700) 
ChEMBL_Kinases

>  <Ligand_Instance>  (700) 
nan

>  <PDB_ID>  (700) 
nan

>  <Standardized_SMILES>  (700) 
O=C(c1ccnc(-c2cncc3ccccc23)c1)c1nc2nc(N3CCNCC3)ccc2[nH]1

>  <Name>  (700) 
nan

>  <Pocket>  (700) 
nan

>  <ATP_Site>  (700) 
nan

>  <Peripheral>  (700) 
nan

>  <Num_H_Atoms_ProtBoundConf>  (700) 
nan

>  <Num_Resolved_Atoms>  (700) 
nan

>  <Num_Not_Resolved_Atoms>  (700) 
nan

$$$$
CHEMBL3660199
     RDKit          3D

  0  0  0  0  0  0  0  0  0  0999 V3000
M  V30 BEGIN CTAB
M  V30 COUNTS 57 62 0 0 0
M  V30 BEGIN ATOM
M  V30 1 O -0.788620 0.355291 2.461827 0
M  V30 2 C 0.092229 -0.069121 1.647837 0
M  V30 3 C 1.446125 0.394995 1.902812 0
M  V30 4 C 2.548291 -0.342763 1.544567 0
M  V30 5 C 3.776067 0.203562 1.785108 0
M  V30 6 N 3.847878 1.383203 2.335921 0
M  V30 7 C 2.902617 2.215513 2.736987 0
M  V30 8 C 2.946271 3.538093 3.325168 0
M  V30 9 C 1.807970 4.200289 3.726438 0
M  V30 10 N 1.752049 5.417728 4.255813 0
M  V30 11 C 2.863224 6.141997 4.454366 0
M  V30 12 C 4.051477 5.572006 4.088041 0
M  V30 13 C 5.243522 6.235503 4.246527 0
M  V30 14 C 6.482637 5.740990 3.902635 0
M  V30 15 C 6.475393 4.473798 3.359493 0
M  V30 16 C 5.304251 3.773388 3.182148 0
M  V30 17 C 4.078098 4.283465 3.530734 0
M  V30 18 C 1.677654 1.639807 2.482980 0
M  V30 19 C -0.376680 -0.938066 0.597285 0
M  V30 20 N -1.615520 -1.442453 0.525515 0
M  V30 21 C -1.768701 -2.173267 -0.573879 0
M  V30 22 N -2.834570 -2.840887 -1.036127 0
M  V30 23 C -2.825578 -3.530800 -2.186166 0
M  V30 24 N -4.022518 -4.189953 -2.564653 0
M  V30 25 C -5.065864 -4.151608 -1.556062 0
M  V30 26 C -5.460578 -5.550704 -1.142256 0
M  V30 27 C -5.773087 -6.403442 -2.353110 0
M  V30 28 N -4.633941 -7.057924 -2.908473 0
M  V30 29 C -3.775061 -6.273521 -3.725170 0
M  V30 30 C -4.151502 -4.823920 -3.857292 0
M  V30 31 C -1.649898 -3.559018 -2.941994 0
M  V30 32 C -0.532120 -2.863714 -2.464449 0
M  V30 33 C -0.586278 -2.168172 -1.280073 0
M  V30 34 N 0.214681 -1.412329 -0.532191 0
M  V30 35 H 2.498192 -1.321668 1.099580 0
M  V30 36 H 4.658501 -0.348846 1.515172 0
M  V30 37 H 0.805882 3.813690 3.665132 0
M  V30 38 H 2.931368 7.133919 4.875400 0
M  V30 39 H 5.241454 7.240080 4.678389 0
M  V30 40 H 7.427876 6.250440 4.019919 0
M  V30 41 H 7.447038 4.049110 3.074970 0
M  V30 42 H 5.418062 2.808458 2.755599 0
M  V30 43 H 0.747524 2.138698 2.723675 0
M  V30 44 H -4.713562 -3.646967 -0.630385 0
M  V30 45 H -5.948722 -3.622135 -1.941234 0
M  V30 46 H -4.665909 -6.030369 -0.552277 0
M  V30 47 H -6.401343 -5.432551 -0.543183 0
M  V30 48 H -6.415207 -5.868758 -3.080693 0
M  V30 49 H -6.445567 -7.232175 -1.968598 0
M  V30 50 H -4.939101 -7.947617 -3.355917 0
M  V30 51 H -3.773591 -6.758380 -4.746716 0
M  V30 52 H -2.712759 -6.329820 -3.371391 0
M  V30 53 H -5.204499 -4.722369 -4.220493 0
M  V30 54 H -3.513593 -4.282208 -4.575446 0
M  V30 55 H -1.623870 -4.109503 -3.869024 0
M  V30 56 H 0.400473 -2.852303 -3.007331 0
M  V30 57 H 1.193451 -1.220444 -0.824363 0
M  V30 END ATOM
M  V30 BEGIN BOND
M  V30 1 2 1 2
M  V30 2 1 2 3
M  V30 3 2 3 4
M  V30 4 1 4 5
M  V30 5 2 5 6
M  V30 6 1 6 7
M  V30 7 1 7 8
M  V30 8 2 8 9
M  V30 9 1 9 10
M  V30 10 2 10 11
M  V30 11 1 11 12
M  V30 12 2 12 13
M  V30 13 1 13 14
M  V30 14 2 14 15
M  V30 15 1 15 16
M  V30 16 2 16 17
M  V30 17 2 7 18
M  V30 18 1 2 19
M  V30 19 2 19 20
M  V30 20 1 20 21
M  V30 21 2 21 22
M  V30 22 1 22 23
M  V30 23 1 23 24
M  V30 24 1 24 25
M  V30 25 1 25 26
M  V30 26 1 26 27
M  V30 27 1 27 28
M  V30 28 1 28 29
M  V30 29 1 29 30
M  V30 30 2 23 31
M  V30 31 1 31 32
M  V30 32 2 32 33
M  V30 33 1 33 34
M  V30 34 1 18 3
M  V30 35 1 34 19
M  V30 36 1 17 8
M  V30 37 1 33 21
M  V30 38 1 17 12
M  V30 39 1 30 24
M  V30 40 1 4 35
M  V30 41 1 5 36
M  V30 42 1 9 37
M  V30 43 1 11 38
M  V30 44 1 13 39
M  V30 45 1 14 40
M  V30 46 1 15 41
M  V30 47 1 16 42
M  V30 48 1 18 43
M  V30 49 1 25 44
M  V30 50 1 25 45
M  V30 51 1 26 46
M  V30 52 1 26 47
M  V30 53 1 27 48
M  V30 54 1 27 49
M  V30 55 1 28 50
M  V30 56 1 29 51
M  V30 57 1 29 52
M  V30 58 1 30 53
M  V30 59 1 30 54
M  V30 60 1 31 55
M  V30 61 1 32 56
M  V30 62 1 34 57
M  V30 END BOND
M  V30 END CTAB
M  END
>  <Dataset>  (701) 
ChEMBL_Kinases

>  <Ligand_Instance>  (701) 
nan

>  <PDB_ID>  (701) 
nan

>  <Standardized_SMILES>  (701) 
O=C(c1ccnc(-c2cncc3ccccc23)c1)c1nc2nc(N3CCCNCC3)ccc2[nH]1

>  <Name>  (701) 
nan

>  <Pocket>  (701) 
nan

>  <ATP_Site>  (701) 
nan

>  <Peripheral>  (701) 
nan

>  <Num_H_Atoms_ProtBoundConf>  (701) 
nan

>  <Num_Resolved_Atoms>  (701) 
nan

>  <Num_Not_Resolved_Atoms>  (701) 
nan

$$$$
CHEMBL3660198
     RDKit          3D

  0  0  0  0  0  0  0  0  0  0999 V3000
M  V30 BEGIN CTAB
M  V30 COUNTS 63 68 0 0 0
M  V30 BEGIN ATOM
M  V30 1 C 1.377770 -0.054657 6.220634 0
M  V30 2 N 2.752476 -0.377621 5.903048 0
M  V30 3 C 3.650366 0.406123 6.692279 0
M  V30 4 C 2.915424 -0.200188 4.480299 0
M  V30 5 C 4.315077 -0.506234 3.991483 0
M  V30 6 C 4.394209 0.067396 2.570749 0
M  V30 7 N 3.168461 -0.267112 1.907466 0
M  V30 8 C 2.612201 0.480996 0.836831 0
M  V30 9 C 3.215079 1.615565 0.345353 0
M  V30 10 C 2.657764 2.339815 -0.705852 0
M  V30 11 C 1.458509 1.917910 -1.286292 0
M  V30 12 N 0.665041 2.378584 -2.297872 0
M  V30 13 C -0.375222 1.531184 -2.392120 0
M  V30 14 C -1.427558 1.730258 -3.381909 0
M  V30 15 O -1.349770 2.723977 -4.156813 0
M  V30 16 C -2.583271 0.861236 -3.554028 0
M  V30 17 C -3.722741 1.410062 -4.110350 0
M  V30 18 C -4.828777 0.591760 -4.279484 0
M  V30 19 C -4.813328 -0.754634 -3.904310 0
M  V30 20 C -5.970978 -1.595370 -4.085402 0
M  V30 21 N -6.885366 -2.279679 -4.231089 0
M  V30 22 C -3.667657 -1.321633 -3.340871 0
M  V30 23 C -3.626836 -2.707849 -2.945390 0
M  V30 24 C -3.208533 -3.627352 -3.907888 0
M  V30 25 N -3.128341 -4.951114 -3.660552 0
M  V30 26 C -3.450297 -5.477216 -2.455189 0
M  V30 27 C -3.866197 -4.585437 -1.489704 0
M  V30 28 N -4.263128 -4.731147 -0.192657 0
M  V30 29 C -4.582759 -3.541616 0.360084 0
M  V30 30 C -4.400503 -2.544183 -0.585364 0
M  V30 31 C -3.962174 -3.226266 -1.700973 0
M  V30 32 C -2.574370 -0.487102 -3.180694 0
M  V30 33 N -0.241702 0.573618 -1.475014 0
M  V30 34 C 0.890559 0.766088 -0.752830 0
M  V30 35 N 1.464180 0.094837 0.266140 0
M  V30 36 C 2.488116 -1.447950 2.391214 0
M  V30 37 C 1.951102 -1.160357 3.790383 0
M  V30 38 H 1.101645 0.876817 5.692488 0
M  V30 39 H 1.310299 0.029647 7.326001 0
M  V30 40 H 0.669369 -0.836444 5.895866 0
M  V30 41 H 4.144031 1.155739 6.018820 0
M  V30 42 H 4.442630 -0.205856 7.170193 0
M  V30 43 H 3.070800 0.907524 7.494390 0
M  V30 44 H 2.674094 0.843592 4.170211 0
M  V30 45 H 4.430624 -1.604901 3.937260 0
M  V30 46 H 5.065420 -0.024600 4.633852 0
M  V30 47 H 5.213871 -0.457802 2.005525 0
M  V30 48 H 4.601937 1.139746 2.670169 0
M  V30 49 H 4.139313 1.932539 0.799490 0
M  V30 50 H 3.132119 3.233399 -1.093786 0
M  V30 51 H 0.914997 3.252327 -2.843977 0
M  V30 52 H -3.842248 2.428576 -4.432479 0
M  V30 53 H -5.746769 0.976623 -4.712157 0
M  V30 54 H -2.914522 -3.349598 -4.932201 0
M  V30 55 H -3.389703 -6.542728 -2.243925 0
M  V30 56 H -4.284311 -5.701945 0.239005 0
M  V30 57 H -4.925593 -3.404144 1.380979 0
M  V30 58 H -4.560339 -1.478099 -0.485130 0
M  V30 59 H -1.651032 -0.881710 -2.744075 0
M  V30 60 H 1.645875 -1.747618 1.725105 0
M  V30 61 H 3.170479 -2.314235 2.498979 0
M  V30 62 H 0.957125 -0.705952 3.749634 0
M  V30 63 H 1.927598 -2.098155 4.416740 0
M  V30 END ATOM
M  V30 BEGIN BOND
M  V30 1 1 1 2
M  V30 2 1 2 3
M  V30 3 1 2 4
M  V30 4 1 4 5
M  V30 5 1 5 6
M  V30 6 1 6 7
M  V30 7 1 7 8
M  V30 8 2 8 9
M  V30 9 1 9 10
M  V30 10 2 10 11
M  V30 11 1 11 12
M  V30 12 1 12 13
M  V30 13 1 13 14
M  V30 14 2 14 15
M  V30 15 1 14 16
M  V30 16 2 16 17
M  V30 17 1 17 18
M  V30 18 2 18 19
M  V30 19 1 19 20
M  V30 20 3 20 21
M  V30 21 1 19 22
M  V30 22 1 22 23
M  V30 23 2 23 24
M  V30 24 1 24 25
M  V30 25 2 25 26
M  V30 26 1 26 27
M  V30 27 1 27 28
M  V30 28 1 28 29
M  V30 29 2 29 30
M  V30 30 1 30 31
M  V30 31 2 22 32
M  V30 32 2 13 33
M  V30 33 1 33 34
M  V30 34 2 34 35
M  V30 35 1 7 36
M  V30 36 1 36 37
M  V30 37 1 37 4
M  V30 38 1 35 8
M  V30 39 1 34 11
M  V30 40 1 32 16
M  V30 41 1 31 23
M  V30 42 2 31 27
M  V30 43 1 1 38
M  V30 44 1 1 39
M  V30 45 1 1 40
M  V30 46 1 3 41
M  V30 47 1 3 42
M  V30 48 1 3 43
M  V30 49 1 4 44
M  V30 50 1 5 45
M  V30 51 1 5 46
M  V30 52 1 6 47
M  V30 53 1 6 48
M  V30 54 1 9 49
M  V30 55 1 10 50
M  V30 56 1 12 51
M  V30 57 1 17 52
M  V30 58 1 18 53
M  V30 59 1 24 54
M  V30 60 1 26 55
M  V30 61 1 28 56
M  V30 62 1 29 57
M  V30 63 1 30 58
M  V30 64 1 32 59
M  V30 65 1 36 60
M  V30 66 1 36 61
M  V30 67 1 37 62
M  V30 68 1 37 63
M  V30 END BOND
M  V30 END CTAB
M  END
>  <Dataset>  (702) 
ChEMBL_Kinases

>  <Ligand_Instance>  (702) 
nan

>  <PDB_ID>  (702) 
nan

>  <Standardized_SMILES>  (702) 
CN(C)C1CCN(c2ccc3[nH]c(C(=O)c4ccc(C#N)c(-c5cncc6[nH]ccc56)c4)nc3n2)CC1

>  <Name>  (702) 
nan

>  <Pocket>  (702) 
nan

>  <ATP_Site>  (702) 
nan

>  <Peripheral>  (702) 
nan

>  <Num_H_Atoms_ProtBoundConf>  (702) 
nan

>  <Num_Resolved_Atoms>  (702) 
nan

>  <Num_Not_Resolved_Atoms>  (702) 
nan

$$$$
CHEMBL3660197
     RDKit          3D

  0  0  0  0  0  0  0  0  0  0999 V3000
M  V30 BEGIN CTAB
M  V30 COUNTS 63 67 0 0 0
M  V30 BEGIN ATOM
M  V30 1 C 4.526761 -0.803808 -1.694703 0
M  V30 2 O 4.425596 0.349733 -0.912005 0
M  V30 3 C 4.992174 0.563860 0.315475 0
M  V30 4 C 5.785700 -0.305828 1.050344 0
M  V30 5 C 6.300907 0.029791 2.285232 0
M  V30 6 C 6.044868 1.247196 2.836347 0
M  V30 7 F 6.582248 1.522869 4.060499 0
M  V30 8 C 5.266139 2.146826 2.154023 0
M  V30 9 F 5.038661 3.351194 2.743152 0
M  V30 10 C 4.758751 1.797987 0.922386 0
M  V30 11 C 3.945695 2.850296 0.299222 0
M  V30 12 C 2.586507 2.840565 0.497660 0
M  V30 13 C 1.688201 3.725721 -0.005576 0
M  V30 14 C 0.244127 3.796921 0.107402 0
M  V30 15 O -0.275027 4.939974 -0.060470 0
M  V30 16 C -0.690273 2.723076 0.387603 0
M  V30 17 N -2.007371 2.980130 0.494114 0
M  V30 18 C -2.673192 1.824045 0.747389 0
M  V30 19 C -4.000024 1.503770 0.941602 0
M  V30 20 C -4.372793 0.174546 1.186937 0
M  V30 21 C -3.441152 -0.843316 1.242313 0
M  V30 22 N -3.828790 -2.201717 1.480748 0
M  V30 23 C -5.127859 -2.782207 1.269821 0
M  V30 24 C -5.110166 -3.868177 0.226873 0
M  V30 25 C -3.962856 -4.802761 0.308029 0
M  V30 26 N -3.531356 -5.216375 -1.013032 0
M  V30 27 C -2.410180 -6.136473 -0.947935 0
M  V30 28 C -3.236305 -4.144842 -1.902404 0
M  V30 29 C -2.845235 -4.461891 1.218857 0
M  V30 30 C -2.942572 -3.214408 2.006969 0
M  V30 31 C -2.109574 -0.530447 1.048583 0
M  V30 32 C -1.749560 0.777651 0.807340 0
M  V30 33 N -0.583817 1.401092 0.580580 0
M  V30 34 C 2.321150 4.704088 -0.788709 0
M  V30 35 C 3.673011 4.771766 -1.026392 0
M  V30 36 N 4.428121 3.831154 -0.465115 0
M  V30 37 H 5.000831 -0.557589 -2.671778 0
M  V30 38 H 3.483626 -1.139375 -1.949060 0
M  V30 39 H 5.054028 -1.613532 -1.169918 0
M  V30 40 H 5.975944 -1.254036 0.604939 0
M  V30 41 H 6.909431 -0.691034 2.803238 0
M  V30 42 H 2.186870 2.065630 1.121889 0
M  V30 43 H -4.765042 2.292842 0.903856 0
M  V30 44 H -5.423774 -0.013453 1.331349 0
M  V30 45 H -5.475133 -3.178916 2.246031 0
M  V30 46 H -5.838150 -1.974201 0.988211 0
M  V30 47 H -6.124532 -4.367345 0.258689 0
M  V30 48 H -5.098212 -3.348489 -0.773204 0
M  V30 49 H -4.413353 -5.759481 0.711262 0
M  V30 50 H -1.461859 -5.572524 -1.031233 0
M  V30 51 H -2.459739 -6.613731 0.053275 0
M  V30 52 H -2.546193 -6.885127 -1.754278 0
M  V30 53 H -3.940453 -4.190809 -2.763378 0
M  V30 54 H -2.234085 -4.310483 -2.348943 0
M  V30 55 H -3.191397 -3.133917 -1.462825 0
M  V30 56 H -1.914491 -4.418327 0.578703 0
M  V30 57 H -2.598734 -5.276975 1.943425 0
M  V30 58 H -1.934859 -2.784146 2.218202 0
M  V30 59 H -3.348465 -3.414901 3.048243 0
M  V30 60 H -1.326807 -1.242621 1.070188 0
M  V30 61 H 0.309906 0.871436 0.555747 0
M  V30 62 H 1.723627 5.487009 -1.259704 0
M  V30 63 H 4.085033 5.549525 -1.635795 0
M  V30 END ATOM
M  V30 BEGIN BOND
M  V30 1 1 1 2
M  V30 2 1 2 3
M  V30 3 2 3 4
M  V30 4 1 4 5
M  V30 5 2 5 6
M  V30 6 1 6 7
M  V30 7 1 6 8
M  V30 8 1 8 9
M  V30 9 2 8 10
M  V30 10 1 10 11
M  V30 11 2 11 12
M  V30 12 1 12 13
M  V30 13 1 13 14
M  V30 14 2 14 15
M  V30 15 1 14 16
M  V30 16 2 16 17
M  V30 17 1 17 18
M  V30 18 2 18 19
M  V30 19 1 19 20
M  V30 20 2 20 21
M  V30 21 1 21 22
M  V30 22 1 22 23
M  V30 23 1 23 24
M  V30 24 1 24 25
M  V30 25 1 25 26
M  V30 26 1 26 27
M  V30 27 1 26 28
M  V30 28 1 25 29
M  V30 29 1 29 30
M  V30 30 1 21 31
M  V30 31 2 31 32
M  V30 32 1 32 33
M  V30 33 2 13 34
M  V30 34 1 34 35
M  V30 35 2 35 36
M  V30 36 1 10 3
M  V30 37 1 36 11
M  V30 38 1 33 16
M  V30 39 1 32 18
M  V30 40 1 30 22
M  V30 41 1 1 37
M  V30 42 1 1 38
M  V30 43 1 1 39
M  V30 44 1 4 40
M  V30 45 1 5 41
M  V30 46 1 12 42
M  V30 47 1 19 43
M  V30 48 1 20 44
M  V30 49 1 23 45
M  V30 50 1 23 46
M  V30 51 1 24 47
M  V30 52 1 24 48
M  V30 53 1 25 49
M  V30 54 1 27 50
M  V30 55 1 27 51
M  V30 56 1 27 52
M  V30 57 1 28 53
M  V30 58 1 28 54
M  V30 59 1 28 55
M  V30 60 1 29 56
M  V30 61 1 29 57
M  V30 62 1 30 58
M  V30 63 1 30 59
M  V30 64 1 31 60
M  V30 65 1 33 61
M  V30 66 1 34 62
M  V30 67 1 35 63
M  V30 END BOND
M  V30 END CTAB
M  END
>  <Dataset>  (703) 
ChEMBL_Kinases

>  <Ligand_Instance>  (703) 
nan

>  <PDB_ID>  (703) 
nan

>  <Standardized_SMILES>  (703) 
COc1ccc(F)c(F)c1-c1cc(C(=O)c2nc3ccc(N4CCC(N(C)C)CC4)cc3[nH]2)ccn1

>  <Name>  (703) 
nan

>  <Pocket>  (703) 
nan

>  <ATP_Site>  (703) 
nan

>  <Peripheral>  (703) 
nan

>  <Num_H_Atoms_ProtBoundConf>  (703) 
nan

>  <Num_Resolved_Atoms>  (703) 
nan

>  <Num_Not_Resolved_Atoms>  (703) 
nan

$$$$
CHEMBL3660079
     RDKit          3D

  0  0  0  0  0  0  0  0  0  0999 V3000
M  V30 BEGIN CTAB
M  V30 COUNTS 55 59 0 0 0
M  V30 BEGIN ATOM
M  V30 1 N 0.908925 -4.110355 1.584209 0
M  V30 2 C 2.247459 -3.942249 1.212576 0
M  V30 3 O 2.428206 -5.179046 1.469053 0
M  V30 4 C 3.183837 -2.955860 0.744719 0
M  V30 5 N 2.680871 -1.613737 0.485787 0
M  V30 6 C 3.873196 -0.710873 0.452567 0
M  V30 7 C 3.175032 0.648343 0.592541 0
M  V30 8 C 2.678939 1.041509 -0.800121 0
M  V30 9 F 3.750722 1.543195 -1.490412 0
M  V30 10 C 1.608488 2.065770 -0.587914 0
M  V30 11 O 0.522563 1.444890 0.056041 0
M  V30 12 C -0.565647 2.150964 0.547271 0
M  V30 13 C -0.504807 3.534268 0.464139 0
M  V30 14 C -1.492421 4.383760 0.930112 0
M  V30 15 C -2.623752 3.846283 1.520196 0
M  V30 16 C -2.714489 2.473747 1.612892 0
M  V30 17 C -3.854332 1.901545 2.146545 0
M  V30 18 C -3.943205 0.516013 2.170297 0
M  V30 19 C -2.902014 -0.266419 1.663968 0
M  V30 20 C -3.320890 -1.660242 1.656922 0
M  V30 21 N -4.287429 -2.381621 2.232862 0
M  V30 22 N -4.312578 -3.609365 1.798287 0
M  V30 23 C -3.321583 -3.700045 0.896283 0
M  V30 24 C -3.005556 -4.804065 0.168470 0
M  V30 25 C -1.989531 -4.758822 -0.750310 0
M  V30 26 C -1.319522 -3.537357 -0.884731 0
M  V30 27 C -1.721363 -2.472213 -0.091047 0
M  V30 28 N -2.711961 -2.509462 0.807732 0
M  V30 29 N -1.798673 0.304705 1.155671 0
M  V30 30 C -1.709584 1.668815 1.134456 0
M  V30 31 C 2.060809 -0.167635 -1.453741 0
M  V30 32 C 2.146162 -1.476718 -0.834490 0
M  V30 33 H 0.397846 -4.046628 2.516053 0
M  V30 34 H -0.091912 -4.292868 1.475034 0
M  V30 35 H 3.982717 -2.811966 1.526405 0
M  V30 36 H 3.688061 -3.303129 -0.183242 0
M  V30 37 H 4.336630 -0.738792 -0.529332 0
M  V30 38 H 4.514487 -0.853120 1.315248 0
M  V30 39 H 2.355237 0.527597 1.304646 0
M  V30 40 H 3.871683 1.404698 0.972652 0
M  V30 41 H 2.003871 2.827323 0.144631 0
M  V30 42 H 1.300398 2.568561 -1.534691 0
M  V30 43 H 0.317175 4.108313 0.026452 0
M  V30 44 H -1.466573 5.458378 0.878893 0
M  V30 45 H -3.437279 4.460753 1.911411 0
M  V30 46 H -4.612047 2.571510 2.515658 0
M  V30 47 H -4.877140 0.189060 2.611875 0
M  V30 48 H -3.524192 -5.766285 0.266560 0
M  V30 49 H -1.689397 -5.599940 -1.359006 0
M  V30 50 H -0.525848 -3.506570 -1.605607 0
M  V30 51 H -1.177324 -1.538412 -0.224161 0
M  V30 52 H 2.544127 -0.203781 -2.482232 0
M  V30 53 H 0.981104 0.048142 -1.736417 0
M  V30 54 H 1.111698 -1.960631 -0.814250 0
M  V30 55 H 2.775885 -2.150871 -1.500165 0
M  V30 END ATOM
M  V30 BEGIN BOND
M  V30 1 1 1 2
M  V30 2 2 2 3
M  V30 3 1 2 4
M  V30 4 1 4 5
M  V30 5 1 5 6
M  V30 6 1 6 7
M  V30 7 1 7 8
M  V30 8 1 8 9
M  V30 9 1 8 10
M  V30 10 1 10 11
M  V30 11 1 11 12
M  V30 12 2 12 13
M  V30 13 1 13 14
M  V30 14 2 14 15
M  V30 15 1 15 16
M  V30 16 2 16 17
M  V30 17 1 17 18
M  V30 18 2 18 19
M  V30 19 1 19 20
M  V30 20 2 20 21
M  V30 21 1 21 22
M  V30 22 2 22 23
M  V30 23 1 23 24
M  V30 24 2 24 25
M  V30 25 1 25 26
M  V30 26 2 26 27
M  V30 27 1 27 28
M  V30 28 1 19 29
M  V30 29 2 29 30
M  V30 30 1 8 31
M  V30 31 1 31 32
M  V30 32 1 32 5
M  V30 33 1 30 12
M  V30 34 1 30 16
M  V30 35 1 28 20
M  V30 36 1 28 23
M  V30 37 1 1 33
M  V30 38 1 1 34
M  V30 39 1 4 35
M  V30 40 1 4 36
M  V30 41 1 6 37
M  V30 42 1 6 38
M  V30 43 1 7 39
M  V30 44 1 7 40
M  V30 45 1 10 41
M  V30 46 1 10 42
M  V30 47 1 13 43
M  V30 48 1 14 44
M  V30 49 1 15 45
M  V30 50 1 17 46
M  V30 51 1 18 47
M  V30 52 1 24 48
M  V30 53 1 25 49
M  V30 54 1 26 50
M  V30 55 1 27 51
M  V30 56 1 31 52
M  V30 57 1 31 53
M  V30 58 1 32 54
M  V30 59 1 32 55
M  V30 END BOND
M  V30 END CTAB
M  END
>  <Dataset>  (704) 
ChEMBL_Kinases

>  <Ligand_Instance>  (704) 
nan

>  <PDB_ID>  (704) 
nan

>  <Standardized_SMILES>  (704) 
NC(=O)CN1CCC(F)(COc2cccc3ccc(-c4nnc5ccccn45)nc23)CC1

>  <Name>  (704) 
nan

>  <Pocket>  (704) 
nan

>  <ATP_Site>  (704) 
nan

>  <Peripheral>  (704) 
nan

>  <Num_H_Atoms_ProtBoundConf>  (704) 
nan

>  <Num_Resolved_Atoms>  (704) 
nan

>  <Num_Not_Resolved_Atoms>  (704) 
nan

$$$$
CHEMBL3660080
     RDKit          3D

  0  0  0  0  0  0  0  0  0  0999 V3000
M  V30 BEGIN CTAB
M  V30 COUNTS 51 55 0 0 0
M  V30 BEGIN ATOM
M  V30 1 C -1.831669 -4.714494 1.115665 0
M  V30 2 N -0.451858 -4.533383 0.743387 0
M  V30 3 C -0.299942 -3.383634 -0.133912 0
M  V30 4 C 1.107002 -3.227660 -0.620157 0
M  V30 5 C 2.068126 -3.087750 0.533000 0
M  V30 6 F 2.970464 -4.126605 0.469250 0
M  V30 7 C 2.864426 -1.803111 0.442926 0
M  V30 8 O 1.997350 -0.690426 0.460811 0
M  V30 9 C 2.448578 0.619342 0.390981 0
M  V30 10 C 3.810837 0.816341 0.300424 0
M  V30 11 C 4.346226 2.087834 0.226595 0
M  V30 12 C 3.546643 3.223143 0.239687 0
M  V30 13 C 2.188462 2.998290 0.330874 0
M  V30 14 C 1.324316 4.092658 0.349385 0
M  V30 15 C -0.033390 3.849212 0.441276 0
M  V30 16 C -0.558984 2.577352 0.514539 0
M  V30 17 C -2.003946 2.407099 0.609807 0
M  V30 18 N -2.935818 3.404419 0.635392 0
M  V30 19 N -4.138696 2.868468 0.727573 0
M  V30 20 C -4.003790 1.531125 0.762573 0
M  V30 21 C -5.016927 0.603840 0.855682 0
M  V30 22 C -4.643271 -0.733431 0.875848 0
M  V30 23 C -3.283837 -1.025010 0.800776 0
M  V30 24 C -2.317622 -0.020306 0.708079 0
M  V30 25 N -2.688041 1.253460 0.689768 0
M  V30 26 N 0.313695 1.554193 0.493218 0
M  V30 27 C 1.645053 1.740777 0.404761 0
M  V30 28 C 1.266989 -3.152579 1.814119 0
M  V30 29 C 0.410462 -4.371142 1.899442 0
M  V30 30 H -2.105041 -4.070864 1.986011 0
M  V30 31 H -2.525589 -4.423943 0.306070 0
M  V30 32 H -2.046053 -5.766840 1.381208 0
M  V30 33 H -0.988313 -3.430452 -0.996581 0
M  V30 34 H -0.575552 -2.508320 0.454765 0
M  V30 35 H 1.129619 -2.251596 -1.180471 0
M  V30 36 H 1.405949 -4.060916 -1.287658 0
M  V30 37 H 3.560866 -1.775627 1.305355 0
M  V30 38 H 3.503958 -1.835904 -0.462258 0
M  V30 39 H 4.476017 -0.037345 0.286587 0
M  V30 40 H 5.407060 2.176730 0.158148 0
M  V30 41 H 3.995854 4.203899 0.180544 0
M  V30 42 H 1.748882 5.067601 0.291882 0
M  V30 43 H -0.682841 4.719089 0.453651 0
M  V30 44 H -6.054924 0.880207 0.911263 0
M  V30 45 H -5.397948 -1.495412 0.947483 0
M  V30 46 H -2.976190 -2.053153 0.815089 0
M  V30 47 H -1.266738 -0.218360 0.649168 0
M  V30 48 H 0.713699 -2.218111 2.007945 0
M  V30 49 H 2.022964 -3.242845 2.646151 0
M  V30 50 H 1.026904 -5.277965 1.979270 0
M  V30 51 H -0.225717 -4.264600 2.809270 0
M  V30 END ATOM
M  V30 BEGIN BOND
M  V30 1 1 1 2
M  V30 2 1 2 3
M  V30 3 1 3 4
M  V30 4 1 4 5
M  V30 5 1 5 6
M  V30 6 1 5 7
M  V30 7 1 7 8
M  V30 8 1 8 9
M  V30 9 2 9 10
M  V30 10 1 10 11
M  V30 11 2 11 12
M  V30 12 1 12 13
M  V30 13 2 13 14
M  V30 14 1 14 15
M  V30 15 2 15 16
M  V30 16 1 16 17
M  V30 17 2 17 18
M  V30 18 1 18 19
M  V30 19 2 19 20
M  V30 20 1 20 21
M  V30 21 2 21 22
M  V30 22 1 22 23
M  V30 23 2 23 24
M  V30 24 1 24 25
M  V30 25 1 16 26
M  V30 26 2 26 27
M  V30 27 1 5 28
M  V30 28 1 28 29
M  V30 29 1 29 2
M  V30 30 1 27 9
M  V30 31 1 27 13
M  V30 32 1 25 17
M  V30 33 1 25 20
M  V30 34 1 1 30
M  V30 35 1 1 31
M  V30 36 1 1 32
M  V30 37 1 3 33
M  V30 38 1 3 34
M  V30 39 1 4 35
M  V30 40 1 4 36
M  V30 41 1 7 37
M  V30 42 1 7 38
M  V30 43 1 10 39
M  V30 44 1 11 40
M  V30 45 1 12 41
M  V30 46 1 14 42
M  V30 47 1 15 43
M  V30 48 1 21 44
M  V30 49 1 22 45
M  V30 50 1 23 46
M  V30 51 1 24 47
M  V30 52 1 28 48
M  V30 53 1 28 49
M  V30 54 1 29 50
M  V30 55 1 29 51
M  V30 END BOND
M  V30 END CTAB
M  END
>  <Dataset>  (705) 
ChEMBL_Kinases

>  <Ligand_Instance>  (705) 
nan

>  <PDB_ID>  (705) 
nan

>  <Standardized_SMILES>  (705) 
CN1CCC(F)(COc2cccc3ccc(-c4nnc5ccccn45)nc23)CC1

>  <Name>  (705) 
nan

>  <Pocket>  (705) 
nan

>  <ATP_Site>  (705) 
nan

>  <Peripheral>  (705) 
nan

>  <Num_H_Atoms_ProtBoundConf>  (705) 
nan

>  <Num_Resolved_Atoms>  (705) 
nan

>  <Num_Not_Resolved_Atoms>  (705) 
nan

$$$$
CHEMBL3660081
     RDKit          3D

  0  0  0  0  0  0  0  0  0  0999 V3000
M  V30 BEGIN CTAB
M  V30 COUNTS 55 59 0 0 0
M  V30 BEGIN ATOM
M  V30 1 O 1.187934 -5.419012 0.381579 0
M  V30 2 C 2.381437 -5.296814 1.106737 0
M  V30 3 C 3.345720 -4.379535 0.393938 0
M  V30 4 N 2.808777 -3.064319 0.223910 0
M  V30 5 C 2.653273 -2.328726 1.449450 0
M  V30 6 C 1.753086 -1.142038 1.200242 0
M  V30 7 C 2.132464 -0.467930 -0.093962 0
M  V30 8 F 1.371978 -1.119492 -1.073895 0
M  V30 9 C 1.871385 1.015733 -0.111533 0
M  V30 10 O 0.504860 1.222294 0.090644 0
M  V30 11 C -0.096194 2.474478 0.134069 0
M  V30 12 C 0.600025 3.669466 -0.016895 0
M  V30 13 C -0.043770 4.900276 0.034535 0
M  V30 14 C -1.409719 4.969368 0.239580 0
M  V30 15 C -2.128678 3.805219 0.392689 0
M  V30 16 C -3.506090 3.775591 0.601014 0
M  V30 17 C -4.197379 2.575970 0.748968 0
M  V30 18 C -3.469465 1.417162 0.681978 0
M  V30 19 C -4.176196 0.143982 0.832169 0
M  V30 20 N -5.494487 -0.059377 1.039818 0
M  V30 21 N -5.761611 -1.352003 1.122301 0
M  V30 22 C -4.592353 -2.022976 0.965523 0
M  V30 23 C -4.341072 -3.399498 0.971230 0
M  V30 24 C -3.026420 -3.841568 0.784389 0
M  V30 25 C -2.101505 -2.837379 0.610764 0
M  V30 26 C -2.362580 -1.485284 0.607427 0
M  V30 27 N -3.641785 -1.088657 0.790310 0
M  V30 28 N -2.140864 1.452414 0.481121 0
M  V30 29 C -1.469377 2.596230 0.338060 0
M  V30 30 C 3.565414 -0.835267 -0.402320 0
M  V30 31 C 3.517017 -2.320904 -0.790980 0
M  V30 32 H 0.383144 -5.330138 0.943279 0
M  V30 33 H 2.849833 -6.303326 1.108772 0
M  V30 34 H 2.205055 -5.042863 2.155931 0
M  V30 35 H 3.470430 -4.806547 -0.626753 0
M  V30 36 H 4.342399 -4.431023 0.858292 0
M  V30 37 H 3.571330 -2.084614 1.981629 0
M  V30 38 H 2.059287 -2.989611 2.148803 0
M  V30 39 H 1.925269 -0.405842 2.009456 0
M  V30 40 H 0.668936 -1.458003 1.175062 0
M  V30 41 H 2.270435 1.406558 -1.052493 0
M  V30 42 H 2.475612 1.439001 0.722207 0
M  V30 43 H 1.678331 3.558156 -0.176382 0
M  V30 44 H 0.561707 5.787646 -0.091116 0
M  V30 45 H -1.927594 5.921218 0.282299 0
M  V30 46 H -4.048720 4.727052 0.647487 0
M  V30 47 H -5.273083 2.605315 0.910007 0
M  V30 48 H -5.142595 -4.106750 1.115922 0
M  V30 49 H -2.773751 -4.880726 0.778935 0
M  V30 50 H -1.077744 -3.190502 0.465439 0
M  V30 51 H -1.529389 -0.834733 0.459007 0
M  V30 52 H 4.137682 -0.765500 0.542409 0
M  V30 53 H 3.995843 -0.231673 -1.215874 0
M  V30 54 H 2.888261 -2.364055 -1.708550 0
M  V30 55 H 4.500578 -2.717381 -1.059380 0
M  V30 END ATOM
M  V30 BEGIN BOND
M  V30 1 1 1 2
M  V30 2 1 2 3
M  V30 3 1 3 4
M  V30 4 1 4 5
M  V30 5 1 5 6
M  V30 6 1 6 7
M  V30 7 1 7 8
M  V30 8 1 7 9
M  V30 9 1 9 10
M  V30 10 1 10 11
M  V30 11 2 11 12
M  V30 12 1 12 13
M  V30 13 2 13 14
M  V30 14 1 14 15
M  V30 15 2 15 16
M  V30 16 1 16 17
M  V30 17 2 17 18
M  V30 18 1 18 19
M  V30 19 2 19 20
M  V30 20 1 20 21
M  V30 21 2 21 22
M  V30 22 1 22 23
M  V30 23 2 23 24
M  V30 24 1 24 25
M  V30 25 2 25 26
M  V30 26 1 26 27
M  V30 27 1 18 28
M  V30 28 2 28 29
M  V30 29 1 7 30
M  V30 30 1 30 31
M  V30 31 1 31 4
M  V30 32 1 29 11
M  V30 33 1 29 15
M  V30 34 1 27 19
M  V30 35 1 27 22
M  V30 36 1 1 32
M  V30 37 1 2 33
M  V30 38 1 2 34
M  V30 39 1 3 35
M  V30 40 1 3 36
M  V30 41 1 5 37
M  V30 42 1 5 38
M  V30 43 1 6 39
M  V30 44 1 6 40
M  V30 45 1 9 41
M  V30 46 1 9 42
M  V30 47 1 12 43
M  V30 48 1 13 44
M  V30 49 1 14 45
M  V30 50 1 16 46
M  V30 51 1 17 47
M  V30 52 1 23 48
M  V30 53 1 24 49
M  V30 54 1 25 50
M  V30 55 1 26 51
M  V30 56 1 30 52
M  V30 57 1 30 53
M  V30 58 1 31 54
M  V30 59 1 31 55
M  V30 END BOND
M  V30 END CTAB
M  END
>  <Dataset>  (706) 
ChEMBL_Kinases

>  <Ligand_Instance>  (706) 
nan

>  <PDB_ID>  (706) 
nan

>  <Standardized_SMILES>  (706) 
OCCN1CCC(F)(COc2cccc3ccc(-c4nnc5ccccn45)nc23)CC1

>  <Name>  (706) 
nan

>  <Pocket>  (706) 
nan

>  <ATP_Site>  (706) 
nan

>  <Peripheral>  (706) 
nan

>  <Num_H_Atoms_ProtBoundConf>  (706) 
nan

>  <Num_Resolved_Atoms>  (706) 
nan

>  <Num_Not_Resolved_Atoms>  (706) 
nan

$$$$
CHEMBL3660083
     RDKit          3D

  0  0  0  0  0  0  0  0  0  0999 V3000
M  V30 BEGIN CTAB
M  V30 COUNTS 48 52 0 0 0
M  V30 BEGIN ATOM
M  V30 1 C 1.714504 -6.821766 2.657022 0
M  V30 2 O 1.242463 -5.506919 2.504505 0
M  V30 3 C 1.143951 -4.830071 1.313117 0
M  V30 4 O 1.530791 -5.514752 0.306250 0
M  V30 5 C 0.621930 -3.453991 1.369105 0 CFG=2
M  V30 6 C 1.577441 -2.431160 0.790334 0
M  V30 7 C 1.100929 -1.167416 1.540828 0 CFG=2
M  V30 8 O 1.984786 -0.149189 1.452943 0
M  V30 9 C 2.106901 1.090706 1.028529 0
M  V30 10 C 3.405479 1.525709 1.297943 0
M  V30 11 C 3.890297 2.802068 0.980685 0
M  V30 12 C 3.000557 3.653384 0.364966 0
M  V30 13 C 1.729499 3.216954 0.105252 0
M  V30 14 C 0.846790 4.072518 -0.509790 0
M  V30 15 C -0.418959 3.602033 -0.755035 0
M  V30 16 C -0.892534 2.321783 -0.432587 0
M  V30 17 C -2.275617 2.078501 -0.802361 0
M  V30 18 N -3.099018 2.954646 -1.405026 0
M  V30 19 N -4.281685 2.430620 -1.602918 0
M  V30 20 C -4.308705 1.177551 -1.142510 0
M  V30 21 C -5.272144 0.193791 -1.095143 0
M  V30 22 C -5.001794 -1.040383 -0.542740 0
M  V30 23 C -3.724500 -1.213257 -0.052251 0
M  V30 24 C -2.816644 -0.191354 -0.132432 0
M  V30 25 N -3.065952 1.007148 -0.664455 0
M  V30 26 N 0.001038 1.488839 0.177600 0
M  V30 27 C 1.252556 1.966409 0.415449 0
M  V30 28 C 1.001227 -1.782921 2.941879 0
M  V30 29 N 0.285363 -3.019651 2.709498 0
M  V30 30 H 2.674392 -6.893829 3.219636 0
M  V30 31 H 1.827099 -7.377027 1.703713 0
M  V30 32 H 0.929361 -7.375244 3.244049 0
M  V30 33 H -0.283248 -3.426965 0.695660 0
M  V30 34 H 2.618131 -2.673855 1.100358 0
M  V30 35 H 1.503501 -2.324166 -0.291550 0
M  V30 36 H 0.109273 -0.970102 1.138308 0
M  V30 37 H 4.213302 0.961247 1.778773 0
M  V30 38 H 4.875317 3.186597 1.164583 0
M  V30 39 H 3.270908 4.658289 0.078095 0
M  V30 40 H 1.167549 5.064402 -0.774988 0
M  V30 41 H -1.049608 4.358800 -1.249032 0
M  V30 42 H -6.252061 0.454063 -1.519251 0
M  V30 43 H -5.818831 -1.745808 -0.550830 0
M  V30 44 H -3.520290 -2.192925 0.382772 0
M  V30 45 H -1.865903 -0.406182 0.264866 0
M  V30 46 H 2.035691 -2.039046 3.236340 0
M  V30 47 H 0.496615 -1.132695 3.658124 0
M  V30 48 H 0.533877 -3.752599 3.396442 0
M  V30 END ATOM
M  V30 BEGIN BOND
M  V30 1 1 1 2
M  V30 2 1 2 3
M  V30 3 2 3 4
M  V30 4 1 3 5
M  V30 5 1 5 6
M  V30 6 1 6 7
M  V30 7 1 7 8
M  V30 8 1 8 9
M  V30 9 2 9 10
M  V30 10 1 10 11
M  V30 11 2 11 12
M  V30 12 1 12 13
M  V30 13 2 13 14
M  V30 14 1 14 15
M  V30 15 2 15 16
M  V30 16 1 16 17
M  V30 17 2 17 18
M  V30 18 1 18 19
M  V30 19 2 19 20
M  V30 20 1 20 21
M  V30 21 2 21 22
M  V30 22 1 22 23
M  V30 23 2 23 24
M  V30 24 1 24 25
M  V30 25 1 16 26
M  V30 26 2 26 27
M  V30 27 1 7 28
M  V30 28 1 28 29
M  V30 29 1 29 5
M  V30 30 1 27 9
M  V30 31 1 27 13
M  V30 32 1 25 17
M  V30 33 1 25 20
M  V30 34 1 1 30
M  V30 35 1 1 31
M  V30 36 1 1 32
M  V30 37 1 5 33 CFG=3
M  V30 38 1 6 34
M  V30 39 1 6 35
M  V30 40 1 7 36 CFG=3
M  V30 41 1 10 37
M  V30 42 1 11 38
M  V30 43 1 12 39
M  V30 44 1 14 40
M  V30 45 1 15 41
M  V30 46 1 21 42
M  V30 47 1 22 43
M  V30 48 1 23 44
M  V30 49 1 24 45
M  V30 50 1 28 46
M  V30 51 1 28 47
M  V30 52 1 29 48
M  V30 END BOND
M  V30 END CTAB
M  END
>  <Dataset>  (707) 
ChEMBL_Kinases

>  <Ligand_Instance>  (707) 
nan

>  <PDB_ID>  (707) 
nan

>  <Standardized_SMILES>  (707) 
COC(=O)[C@@H]1C[C@H](Oc2cccc3ccc(-c4nnc5ccccn45)nc23)CN1

>  <Name>  (707) 
nan

>  <Pocket>  (707) 
nan

>  <ATP_Site>  (707) 
nan

>  <Peripheral>  (707) 
nan

>  <Num_H_Atoms_ProtBoundConf>  (707) 
nan

>  <Num_Resolved_Atoms>  (707) 
nan

>  <Num_Not_Resolved_Atoms>  (707) 
nan

$$$$
CHEMBL3660087
     RDKit          3D

  0  0  0  0  0  0  0  0  0  0999 V3000
M  V30 BEGIN CTAB
M  V30 COUNTS 45 49 0 0 0
M  V30 BEGIN ATOM
M  V30 1 F 1.879131 1.180078 6.209380 0
M  V30 2 C 1.265567 0.721645 5.097223 0
M  V30 3 C 1.789424 0.716050 3.798247 0
M  V30 4 C 1.101642 0.224581 2.678552 0
M  V30 5 O 1.876431 0.369876 1.627273 0
M  V30 6 C 1.960032 0.170120 0.297692 0
M  V30 7 C 3.228955 -0.675172 0.043016 0
M  V30 8 C 4.428691 0.252051 0.223667 0
M  V30 9 N 4.577654 0.992145 -1.016750 0
M  V30 10 C 3.257933 1.201952 -1.582509 0
M  V30 11 C 2.224882 1.454545 -0.506214 0
M  V30 12 F 2.704923 2.445327 0.318974 0
M  V30 13 F 1.084501 1.909053 -1.130024 0
M  V30 14 C -0.158123 -0.280239 2.866851 0
M  V30 15 N -0.768650 -0.738747 1.746095 0
M  V30 16 C -2.021014 -1.248501 1.887574 0
M  V30 17 C -2.896914 -1.802288 0.867630 0
M  V30 18 N -4.131842 -2.295971 1.059723 0
M  V30 19 N -4.668244 -2.722149 -0.059314 0
M  V30 20 C -3.796929 -2.526323 -1.060880 0
M  V30 21 C -3.826662 -2.777555 -2.415603 0
M  V30 22 C -2.756774 -2.463318 -3.226698 0
M  V30 23 C -1.646791 -1.880500 -2.609672 0
M  V30 24 C -1.718831 -1.672734 -1.254852 0
M  V30 25 N -2.738435 -1.967184 -0.453313 0
M  V30 26 C -2.564030 -1.251824 3.182366 0
M  V30 27 C -1.928024 -0.782085 4.305166 0
M  V30 28 C -0.666354 -0.271709 4.144633 0
M  V30 29 C 0.001173 0.207768 5.245498 0
M  V30 30 H 2.796827 1.151389 3.826843 0
M  V30 31 H 1.097239 -0.288863 -0.195580 0
M  V30 32 H 3.200754 -1.169699 -0.928055 0
M  V30 33 H 3.265971 -1.401875 0.878094 0
M  V30 34 H 4.240967 0.909947 1.072465 0
M  V30 35 H 5.337677 -0.342269 0.422766 0
M  V30 36 H 5.144414 1.841748 -0.923299 0
M  V30 37 H 3.324019 2.091767 -2.209610 0
M  V30 38 H 2.933009 0.374554 -2.233746 0
M  V30 39 H -4.729131 -3.231170 -2.802213 0
M  V30 40 H -2.823007 -2.677743 -4.283889 0
M  V30 41 H -0.795251 -1.624063 -3.219056 0
M  V30 42 H -0.842625 -1.225069 -0.838773 0
M  V30 43 H -3.563942 -1.640548 3.398664 0
M  V30 44 H -2.363245 -0.797084 5.272806 0
M  V30 45 H -0.488166 0.167077 6.198999 0
M  V30 END ATOM
M  V30 BEGIN BOND
M  V30 1 1 1 2
M  V30 2 2 2 3
M  V30 3 1 3 4
M  V30 4 1 4 5
M  V30 5 1 5 6
M  V30 6 1 6 7
M  V30 7 1 7 8
M  V30 8 1 8 9
M  V30 9 1 9 10
M  V30 10 1 10 11
M  V30 11 1 11 12
M  V30 12 1 11 13
M  V30 13 2 4 14
M  V30 14 1 14 15
M  V30 15 2 15 16
M  V30 16 1 16 17
M  V30 17 2 17 18
M  V30 18 1 18 19
M  V30 19 2 19 20
M  V30 20 1 20 21
M  V30 21 2 21 22
M  V30 22 1 22 23
M  V30 23 2 23 24
M  V30 24 1 24 25
M  V30 25 1 16 26
M  V30 26 2 26 27
M  V30 27 1 27 28
M  V30 28 2 28 29
M  V30 29 1 29 2
M  V30 30 1 11 6
M  V30 31 1 28 14
M  V30 32 1 25 17
M  V30 33 1 25 20
M  V30 34 1 3 30
M  V30 35 1 6 31
M  V30 36 1 7 32
M  V30 37 1 7 33
M  V30 38 1 8 34
M  V30 39 1 8 35
M  V30 40 1 9 36
M  V30 41 1 10 37
M  V30 42 1 10 38
M  V30 43 1 21 39
M  V30 44 1 22 40
M  V30 45 1 23 41
M  V30 46 1 24 42
M  V30 47 1 26 43
M  V30 48 1 27 44
M  V30 49 1 29 45
M  V30 END BOND
M  V30 END CTAB
M  END
>  <Dataset>  (708) 
ChEMBL_Kinases

>  <Ligand_Instance>  (708) 
nan

>  <PDB_ID>  (708) 
nan

>  <Standardized_SMILES>  (708) 
Fc1cc(OC2CCNCC2(F)F)c2nc(-c3nnc4ccccn34)ccc2c1

>  <Name>  (708) 
nan

>  <Pocket>  (708) 
nan

>  <ATP_Site>  (708) 
nan

>  <Peripheral>  (708) 
nan

>  <Num_H_Atoms_ProtBoundConf>  (708) 
nan

>  <Num_Resolved_Atoms>  (708) 
nan

>  <Num_Not_Resolved_Atoms>  (708) 
nan

$$$$
CHEMBL3660088
     RDKit          3D

  0  0  0  0  0  0  0  0  0  0999 V3000
M  V30 BEGIN CTAB
M  V30 COUNTS 45 49 0 0 0
M  V30 BEGIN ATOM
M  V30 1 F 3.134716 -3.531579 -0.967588 0
M  V30 2 C 2.155960 -2.755148 -0.384847 0
M  V30 3 C 0.853079 -3.508581 -0.493747 0
M  V30 4 N 0.578686 -3.880707 -1.876123 0
M  V30 5 C 1.108205 -2.905739 -2.783192 0
M  V30 6 C 1.133138 -1.505970 -2.252863 0
M  V30 7 C 2.051806 -1.383243 -1.062792 0
M  V30 8 O 1.572960 -0.507090 -0.095029 0
M  V30 9 C 2.183400 0.600136 0.425558 0
M  V30 10 C 3.425545 1.111669 0.111274 0
M  V30 11 C 3.916701 2.246373 0.722463 0
M  V30 12 C 3.210535 2.925756 1.666369 0
M  V30 13 C 1.976052 2.426621 1.986003 0
M  V30 14 C 1.239998 3.113265 2.952903 0
M  V30 15 C -0.004617 2.658770 3.313596 0
M  V30 16 C -0.496491 1.523846 2.702653 0
M  V30 17 C -1.818637 1.040026 3.084975 0
M  V30 18 N -2.653479 1.578266 3.991894 0
M  V30 19 N -3.769814 0.873511 4.081005 0
M  V30 20 C -3.684701 -0.161766 3.215221 0
M  V30 21 C -4.545733 -1.206689 2.888507 0
M  V30 22 C -4.191830 -2.147046 1.942295 0
M  V30 23 C -2.956560 -1.997470 1.346549 0
M  V30 24 C -2.112048 -0.958507 1.678106 0
M  V30 25 N -2.472185 -0.036613 2.613359 0
M  V30 26 N 0.239292 0.885984 1.774389 0
M  V30 27 C 1.450116 1.284877 1.389363 0
M  V30 28 H 2.400723 -2.673870 0.681650 0
M  V30 29 H 0.006056 -2.969066 -0.026259 0
M  V30 30 H 1.001079 -4.451388 0.078707 0
M  V30 31 H -0.451158 -4.032797 -1.940958 0
M  V30 32 H 2.086498 -3.203593 -3.244633 0
M  V30 33 H 0.399884 -2.894594 -3.663041 0
M  V30 34 H 0.099942 -1.246412 -1.948454 0
M  V30 35 H 1.462058 -0.840413 -3.062853 0
M  V30 36 H 3.050232 -1.076943 -1.398047 0
M  V30 37 H 3.974899 0.572162 -0.631700 0
M  V30 38 H 4.905989 2.569979 0.406062 0
M  V30 39 H 3.584268 3.816059 2.152634 0
M  V30 40 H 1.638822 3.989781 3.413799 0
M  V30 41 H -0.585876 3.186929 4.066047 0
M  V30 42 H -5.520435 -1.291879 3.384479 0
M  V30 43 H -4.881962 -2.947859 1.709385 0
M  V30 44 H -2.690675 -2.734592 0.611508 0
M  V30 45 H -1.175607 -0.927464 1.161519 0
M  V30 END ATOM
M  V30 BEGIN BOND
M  V30 1 1 1 2
M  V30 2 1 2 3
M  V30 3 1 3 4
M  V30 4 1 4 5
M  V30 5 1 5 6
M  V30 6 1 6 7
M  V30 7 1 7 8
M  V30 8 1 8 9
M  V30 9 2 9 10
M  V30 10 1 10 11
M  V30 11 2 11 12
M  V30 12 1 12 13
M  V30 13 2 13 14
M  V30 14 1 14 15
M  V30 15 2 15 16
M  V30 16 1 16 17
M  V30 17 2 17 18
M  V30 18 1 18 19
M  V30 19 2 19 20
M  V30 20 1 20 21
M  V30 21 2 21 22
M  V30 22 1 22 23
M  V30 23 2 23 24
M  V30 24 1 24 25
M  V30 25 1 16 26
M  V30 26 2 26 27
M  V30 27 1 7 2
M  V30 28 1 27 9
M  V30 29 1 27 13
M  V30 30 1 25 17
M  V30 31 1 25 20
M  V30 32 1 2 28
M  V30 33 1 3 29
M  V30 34 1 3 30
M  V30 35 1 4 31
M  V30 36 1 5 32
M  V30 37 1 5 33
M  V30 38 1 6 34
M  V30 39 1 6 35
M  V30 40 1 7 36
M  V30 41 1 10 37
M  V30 42 1 11 38
M  V30 43 1 12 39
M  V30 44 1 14 40
M  V30 45 1 15 41
M  V30 46 1 21 42
M  V30 47 1 22 43
M  V30 48 1 23 44
M  V30 49 1 24 45
M  V30 END BOND
M  V30 END CTAB
M  END
>  <Dataset>  (709) 
ChEMBL_Kinases

>  <Ligand_Instance>  (709) 
nan

>  <PDB_ID>  (709) 
nan

>  <Standardized_SMILES>  (709) 
FC1CNCCC1Oc1cccc2ccc(-c3nnc4ccccn34)nc12

>  <Name>  (709) 
nan

>  <Pocket>  (709) 
nan

>  <ATP_Site>  (709) 
nan

>  <Peripheral>  (709) 
nan

>  <Num_H_Atoms_ProtBoundConf>  (709) 
nan

>  <Num_Resolved_Atoms>  (709) 
nan

>  <Num_Not_Resolved_Atoms>  (709) 
nan

$$$$
CHEMBL3660089
     RDKit          3D

  0  0  0  0  0  0  0  0  0  0999 V3000
M  V30 BEGIN CTAB
M  V30 COUNTS 55 60 0 0 0
M  V30 BEGIN ATOM
M  V30 1 F 1.530370 -2.156928 -1.688477 0
M  V30 2 C 1.592283 -0.787781 -1.565200 0
M  V30 3 C 2.724997 -0.149271 -2.277126 0
M  V30 4 C 4.030459 -0.192344 -1.528133 0
M  V30 5 N 4.274944 -1.438249 -0.880061 0
M  V30 6 C 3.454673 -1.763963 0.232811 0
M  V30 7 C 2.567880 -0.698469 0.759485 0
M  V30 8 C 1.421164 -0.297317 -0.139678 0
M  V30 9 O 1.226965 1.050331 -0.172949 0
M  V30 10 C 0.368366 1.997950 0.093078 0
M  V30 11 C 0.941262 3.228994 -0.255814 0
M  V30 12 C 0.303357 4.467984 -0.107846 0
M  V30 13 C -0.968634 4.428795 0.418391 0
M  V30 14 C -1.520577 3.215803 0.757162 0
M  V30 15 C -2.788608 3.181275 1.283594 0
M  V30 16 C -3.309341 1.957638 1.613036 0
M  V30 17 C -2.667220 0.718277 1.464233 0
M  V30 18 C -3.438637 -0.413619 1.897957 0
M  V30 19 N -4.685437 -0.387754 2.399822 0
M  V30 20 N -5.118708 -1.562102 2.707172 0
M  V30 21 C -4.168178 -2.460563 2.423263 0
M  V30 22 C -4.215695 -3.806168 2.595374 0
M  V30 23 C -3.065971 -4.503181 2.210248 0
M  V30 24 C -1.990724 -3.771813 1.692873 0
M  V30 25 C -0.803317 -4.578931 1.306081 0
M  V30 26 C -0.309521 -4.221565 -0.107490 0
M  V30 27 C 0.520128 -3.982446 1.116565 0
M  V30 28 C -2.070189 -2.403092 1.569365 0
M  V30 29 N -3.158776 -1.725333 1.931970 0
M  V30 30 N -1.422542 0.798981 0.942621 0
M  V30 31 C -0.895749 2.001941 0.612435 0
M  V30 32 H 0.649291 -0.429176 -2.080574 0
M  V30 33 H 2.879730 -0.719623 -3.229375 0
M  V30 34 H 2.492237 0.889438 -2.531272 0
M  V30 35 H 4.110420 0.703827 -0.868395 0
M  V30 36 H 4.838705 -0.069745 -2.287969 0
M  V30 37 H 5.292054 -1.480037 -0.648580 0
M  V30 38 H 4.137198 -2.049115 1.094772 0
M  V30 39 H 2.882631 -2.701835 0.055011 0
M  V30 40 H 2.158062 -1.033403 1.734317 0
M  V30 41 H 3.183582 0.205582 1.048371 0
M  V30 42 H 0.520097 -0.815341 0.231638 0
M  V30 43 H 1.938141 3.397613 -0.680795 0
M  V30 44 H 0.685055 5.434286 -0.353766 0
M  V30 45 H -1.552864 5.310067 0.576944 0
M  V30 46 H -3.327979 4.102182 1.419880 0
M  V30 47 H -4.320365 2.038449 2.022835 0
M  V30 48 H -5.093784 -4.304826 3.006340 0
M  V30 49 H -3.081813 -5.587363 2.339984 0
M  V30 50 H -0.904502 -5.660383 1.523892 0
M  V30 51 H -0.686544 -3.312409 -0.592499 0
M  V30 52 H -0.124938 -5.077899 -0.758915 0
M  V30 53 H 0.768912 -2.955089 1.393522 0
M  V30 54 H 1.384070 -4.688972 1.209995 0
M  V30 55 H -1.241339 -1.884241 1.177126 0
M  V30 END ATOM
M  V30 BEGIN BOND
M  V30 1 1 1 2
M  V30 2 1 2 3
M  V30 3 1 3 4
M  V30 4 1 4 5
M  V30 5 1 5 6
M  V30 6 1 6 7
M  V30 7 1 7 8
M  V30 8 1 8 9
M  V30 9 1 9 10
M  V30 10 2 10 11
M  V30 11 1 11 12
M  V30 12 2 12 13
M  V30 13 1 13 14
M  V30 14 2 14 15
M  V30 15 1 15 16
M  V30 16 2 16 17
M  V30 17 1 17 18
M  V30 18 2 18 19
M  V30 19 1 19 20
M  V30 20 2 20 21
M  V30 21 1 21 22
M  V30 22 2 22 23
M  V30 23 1 23 24
M  V30 24 1 24 25
M  V30 25 1 25 26
M  V30 26 1 26 27
M  V30 27 2 24 28
M  V30 28 1 28 29
M  V30 29 1 17 30
M  V30 30 2 30 31
M  V30 31 1 8 2
M  V30 32 1 31 10
M  V30 33 1 31 14
M  V30 34 1 29 18
M  V30 35 1 29 21
M  V30 36 1 27 25
M  V30 37 1 2 32
M  V30 38 1 3 33
M  V30 39 1 3 34
M  V30 40 1 4 35
M  V30 41 1 4 36
M  V30 42 1 5 37
M  V30 43 1 6 38
M  V30 44 1 6 39
M  V30 45 1 7 40
M  V30 46 1 7 41
M  V30 47 1 8 42
M  V30 48 1 11 43
M  V30 49 1 12 44
M  V30 50 1 13 45
M  V30 51 1 15 46
M  V30 52 1 16 47
M  V30 53 1 22 48
M  V30 54 1 23 49
M  V30 55 1 25 50
M  V30 56 1 26 51
M  V30 57 1 26 52
M  V30 58 1 27 53
M  V30 59 1 27 54
M  V30 60 1 28 55
M  V30 END BOND
M  V30 END CTAB
M  END
>  <Dataset>  (710) 
ChEMBL_Kinases

>  <Ligand_Instance>  (710) 
nan

>  <PDB_ID>  (710) 
nan

>  <Standardized_SMILES>  (710) 
FC1CCNCCC1Oc1cccc2ccc(-c3nnc4ccc(C5CC5)cn34)nc12

>  <Name>  (710) 
nan

>  <Pocket>  (710) 
nan

>  <ATP_Site>  (710) 
nan

>  <Peripheral>  (710) 
nan

>  <Num_H_Atoms_ProtBoundConf>  (710) 
nan

>  <Num_Resolved_Atoms>  (710) 
nan

>  <Num_Not_Resolved_Atoms>  (710) 
nan

$$$$
CHEMBL3660091
     RDKit          3D

  0  0  0  0  0  0  0  0  0  0999 V3000
M  V30 BEGIN CTAB
M  V30 COUNTS 49 53 0 0 0
M  V30 BEGIN ATOM
M  V30 1 C -1.656008 -4.457322 -0.838952 0 CHG=-1 VAL=3
M  V30 2 N -0.557100 -4.213473 -1.087055 0 CHG=1 VAL=4
M  V30 3 C 0.772278 -3.926489 -1.363983 0
M  V30 4 C 1.451557 -4.871265 -2.105307 0
M  V30 5 C 2.777685 -4.666563 -2.426248 0
M  V30 6 C 3.340810 -3.486873 -1.961887 0
M  V30 7 N 4.618241 -3.035350 -2.131169 0
M  V30 8 N 4.730488 -1.864918 -1.524513 0
M  V30 9 C 3.553660 -1.538129 -0.960287 0
M  V30 10 C 3.266517 -0.324245 -0.199157 0
M  V30 11 C 4.263466 0.610385 -0.010793 0
M  V30 12 C 4.045176 1.788768 0.708381 0
M  V30 13 C 2.761308 1.938909 1.210099 0
M  V30 14 C 2.557342 3.108079 1.919441 0
M  V30 15 C 1.299046 3.318260 2.445748 0
M  V30 16 C 0.297585 2.391447 2.263154 0
M  V30 17 C 0.479014 1.218878 1.559297 0
M  V30 18 O -0.429154 0.225755 1.309788 0
M  V30 19 C -1.763386 0.174019 1.716654 0
M  V30 20 C -2.732218 0.083593 0.547557 0
M  V30 21 C -4.032783 0.731958 0.946495 0
M  V30 22 N -4.992774 -0.149059 1.528613 0
M  V30 23 C -4.438111 -1.358883 2.068638 0
M  V30 24 C -3.372328 -1.151398 3.094746 0
M  V30 25 C -1.976598 -1.090303 2.521099 0
M  V30 26 F -1.789698 -2.159648 1.692935 0
M  V30 27 C 1.754942 1.009973 1.027930 0
M  V30 28 N 2.044170 -0.105319 0.320304 0
M  V30 29 N 2.692875 -2.537015 -1.228018 0
M  V30 30 C 1.403598 -2.759699 -0.929011 0
M  V30 31 H 1.022383 -5.794423 -2.472478 0
M  V30 32 H 3.389619 -5.349325 -3.001569 0
M  V30 33 H 5.246401 0.449060 -0.420359 0
M  V30 34 H 4.836706 2.497563 0.839672 0
M  V30 35 H 3.298448 3.874886 2.099103 0
M  V30 36 H 1.079877 4.223697 3.015067 0
M  V30 37 H -0.693799 2.535562 2.666008 0
M  V30 38 H -2.047737 1.061084 2.296057 0
M  V30 39 H -2.341101 0.709121 -0.306852 0
M  V30 40 H -2.845989 -0.929530 0.165521 0
M  V30 41 H -3.826520 1.616578 1.586800 0
M  V30 42 H -4.530165 1.170774 0.034628 0
M  V30 43 H -5.512769 0.386433 2.255743 0
M  V30 44 H -4.143531 -2.057401 1.262879 0
M  V30 45 H -5.284216 -1.893062 2.591036 0
M  V30 46 H -3.384171 -2.024024 3.806145 0
M  V30 47 H -3.626090 -0.277022 3.716881 0
M  V30 48 H -1.259580 -1.164380 3.351741 0
M  V30 49 H 0.845534 -2.047114 -0.354918 0
M  V30 END ATOM
M  V30 BEGIN BOND
M  V30 1 3 1 2
M  V30 2 1 2 3
M  V30 3 1 3 4
M  V30 4 2 4 5
M  V30 5 1 5 6
M  V30 6 2 6 7
M  V30 7 1 7 8
M  V30 8 2 8 9
M  V30 9 1 9 10
M  V30 10 2 10 11
M  V30 11 1 11 12
M  V30 12 2 12 13
M  V30 13 1 13 14
M  V30 14 2 14 15
M  V30 15 1 15 16
M  V30 16 2 16 17
M  V30 17 1 17 18
M  V30 18 1 18 19
M  V30 19 1 19 20
M  V30 20 1 20 21
M  V30 21 1 21 22
M  V30 22 1 22 23
M  V30 23 1 23 24
M  V30 24 1 24 25
M  V30 25 1 25 26
M  V30 26 1 17 27
M  V30 27 2 27 28
M  V30 28 1 9 29
M  V30 29 1 29 30
M  V30 30 2 30 3
M  V30 31 1 29 6
M  V30 32 1 28 10
M  V30 33 1 27 13
M  V30 34 1 25 19
M  V30 35 1 4 31
M  V30 36 1 5 32
M  V30 37 1 11 33
M  V30 38 1 12 34
M  V30 39 1 14 35
M  V30 40 1 15 36
M  V30 41 1 16 37
M  V30 42 1 19 38
M  V30 43 1 20 39
M  V30 44 1 20 40
M  V30 45 1 21 41
M  V30 46 1 21 42
M  V30 47 1 22 43
M  V30 48 1 23 44
M  V30 49 1 23 45
M  V30 50 1 24 46
M  V30 51 1 24 47
M  V30 52 1 25 48
M  V30 53 1 30 49
M  V30 END BOND
M  V30 END CTAB
M  END
>  <Dataset>  (711) 
ChEMBL_Kinases

>  <Ligand_Instance>  (711) 
nan

>  <PDB_ID>  (711) 
nan

>  <Standardized_SMILES>  (711) 
[C-]#[N+]c1ccc2nnc(-c3ccc4cccc(OC5CCNCCC5F)c4n3)n2c1

>  <Name>  (711) 
nan

>  <Pocket>  (711) 
nan

>  <ATP_Site>  (711) 
nan

>  <Peripheral>  (711) 
nan

>  <Num_H_Atoms_ProtBoundConf>  (711) 
nan

>  <Num_Resolved_Atoms>  (711) 
nan

>  <Num_Not_Resolved_Atoms>  (711) 
nan

$$$$
CHEMBL3660196
     RDKit          3D

  0  0  0  0  0  0  0  0  0  0999 V3000
M  V30 BEGIN CTAB
M  V30 COUNTS 63 68 0 0 0
M  V30 BEGIN ATOM
M  V30 1 C 4.230685 -2.536734 4.100966 0
M  V30 2 N 5.537396 -2.895667 3.644981 0
M  V30 3 C 6.605483 -2.070771 4.109263 0
M  V30 4 C 6.437789 -0.669431 3.580218 0
M  V30 5 C 6.503522 -0.725000 2.074277 0
M  V30 6 N 5.278412 -0.192013 1.472973 0
M  V30 7 C 5.137618 1.015993 0.741676 0
M  V30 8 O 6.173144 1.710844 0.591430 0
M  V30 9 C 3.865028 1.452955 0.182872 0
M  V30 10 C 3.782833 2.694028 -0.415617 0
M  V30 11 C 2.566780 3.076650 -0.939313 0
M  V30 12 C 1.434130 2.296889 -0.901147 0
M  V30 13 N 0.161601 2.493358 -1.356720 0
M  V30 14 C -0.556930 1.370146 -1.043699 0
M  V30 15 C -1.951574 1.330893 -1.404622 0
M  V30 16 O -2.508353 2.410122 -1.793073 0
M  V30 17 C -2.855887 0.199005 -1.390611 0
M  V30 18 C -2.312296 -1.054288 -1.531741 0
M  V30 19 C -3.209645 -2.089669 -1.493783 0
M  V30 20 N -4.504622 -1.900952 -1.333495 0
M  V30 21 C -5.114792 -0.735302 -1.190449 0
M  V30 22 C -6.510585 -0.392922 -1.026367 0
M  V30 23 C -6.947076 0.885098 -0.771541 0
M  V30 24 N -8.229373 1.237538 -0.624581 0
M  V30 25 C -9.236550 0.363133 -0.712856 0
M  V30 26 C -8.898248 -0.942800 -0.966414 0
M  V30 27 C -9.912457 -1.869294 -1.069479 0
M  V30 28 C -9.642092 -3.199786 -1.329612 0
M  V30 29 C -8.300249 -3.563116 -1.482942 0
M  V30 30 C -7.331623 -2.600748 -1.370195 0
M  V30 31 C -7.563699 -1.272077 -1.112604 0
M  V30 32 C -4.221208 0.310611 -1.227263 0
M  V30 33 N 0.297736 0.552532 -0.419848 0
M  V30 34 C 1.535627 1.047643 -0.293774 0
M  V30 35 C 2.741463 0.647290 0.235732 0
M  V30 36 C 6.637412 -2.133363 1.588200 0
M  V30 37 C 5.660617 -3.080097 2.232525 0
M  V30 38 H 3.760007 -3.406511 4.648035 0
M  V30 39 H 4.283629 -1.719439 4.829785 0
M  V30 40 H 3.513946 -2.329460 3.256222 0
M  V30 41 H 6.607725 -1.963493 5.230727 0
M  V30 42 H 7.556589 -2.539105 3.797557 0
M  V30 43 H 7.286133 -0.087450 3.979061 0
M  V30 44 H 5.456180 -0.300348 3.958271 0
M  V30 45 H 7.299561 -0.047099 1.757959 0
M  V30 46 H 4.466353 -0.822442 1.643745 0
M  V30 47 H 4.643505 3.347596 -0.474151 0
M  V30 48 H 2.517150 4.053499 -1.405534 0
M  V30 49 H -1.293927 -1.362411 -1.678811 0
M  V30 50 H -2.908710 -3.139217 -1.593930 0
M  V30 51 H -6.325325 1.734548 -0.658863 0
M  V30 52 H -10.282143 0.618006 -0.597576 0
M  V30 53 H -10.964436 -1.569108 -0.945795 0
M  V30 54 H -10.453201 -3.909194 -1.406140 0
M  V30 55 H -8.114948 -4.610773 -1.685385 0
M  V30 56 H -6.350045 -2.986982 -1.508567 0
M  V30 57 H -4.504490 1.342460 -1.132034 0
M  V30 58 H 0.034117 -0.378868 -0.055051 0
M  V30 59 H 2.746209 -0.329843 0.689707 0
M  V30 60 H 6.441275 -2.165705 0.495768 0
M  V30 61 H 7.641754 -2.551711 1.731141 0
M  V30 62 H 5.855897 -4.130220 2.000256 0
M  V30 63 H 4.651718 -2.849998 1.790527 0
M  V30 END ATOM
M  V30 BEGIN BOND
M  V30 1 1 1 2
M  V30 2 1 2 3
M  V30 3 1 3 4
M  V30 4 1 4 5
M  V30 5 1 5 6
M  V30 6 1 6 7
M  V30 7 2 7 8
M  V30 8 1 7 9
M  V30 9 2 9 10
M  V30 10 1 10 11
M  V30 11 2 11 12
M  V30 12 1 12 13
M  V30 13 2 13 14
M  V30 14 1 14 15
M  V30 15 2 15 16
M  V30 16 1 15 17
M  V30 17 2 17 18
M  V30 18 1 18 19
M  V30 19 2 19 20
M  V30 20 1 20 21
M  V30 21 1 21 22
M  V30 22 2 22 23
M  V30 23 1 23 24
M  V30 24 2 24 25
M  V30 25 1 25 26
M  V30 26 2 26 27
M  V30 27 1 27 28
M  V30 28 2 28 29
M  V30 29 1 29 30
M  V30 30 2 30 31
M  V30 31 2 21 32
M  V30 32 1 14 33
M  V30 33 1 33 34
M  V30 34 2 34 35
M  V30 35 1 5 36
M  V30 36 1 36 37
M  V30 37 1 37 2
M  V30 38 1 35 9
M  V30 39 1 34 12
M  V30 40 1 32 17
M  V30 41 1 31 22
M  V30 42 1 31 26
M  V30 43 1 1 38
M  V30 44 1 1 39
M  V30 45 1 1 40
M  V30 46 1 3 41
M  V30 47 1 3 42
M  V30 48 1 4 43
M  V30 49 1 4 44
M  V30 50 1 5 45
M  V30 51 1 6 46
M  V30 52 1 10 47
M  V30 53 1 11 48
M  V30 54 1 18 49
M  V30 55 1 19 50
M  V30 56 1 23 51
M  V30 57 1 25 52
M  V30 58 1 27 53
M  V30 59 1 28 54
M  V30 60 1 29 55
M  V30 61 1 30 56
M  V30 62 1 32 57
M  V30 63 1 33 58
M  V30 64 1 35 59
M  V30 65 1 36 60
M  V30 66 1 36 61
M  V30 67 1 37 62
M  V30 68 1 37 63
M  V30 END BOND
M  V30 END CTAB
M  END
>  <Dataset>  (712) 
ChEMBL_Kinases

>  <Ligand_Instance>  (712) 
nan

>  <PDB_ID>  (712) 
nan

>  <Standardized_SMILES>  (712) 
CN1CCC(NC(=O)c2ccc3nc(C(=O)c4ccnc(-c5cncc6ccccc56)c4)[nH]c3c2)CC1

>  <Name>  (712) 
nan

>  <Pocket>  (712) 
nan

>  <ATP_Site>  (712) 
nan

>  <Peripheral>  (712) 
nan

>  <Num_H_Atoms_ProtBoundConf>  (712) 
nan

>  <Num_Resolved_Atoms>  (712) 
nan

>  <Num_Not_Resolved_Atoms>  (712) 
nan

$$$$
CHEMBL3660093
     RDKit          3D

  0  0  0  0  0  0  0  0  0  0999 V3000
M  V30 BEGIN CTAB
M  V30 COUNTS 48 52 0 0 0
M  V30 BEGIN ATOM
M  V30 1 F -0.316975 -4.454839 1.926522 0
M  V30 2 C 0.651990 -4.328543 0.989799 0
M  V30 3 C 1.284132 -5.511960 0.694577 0
M  V30 4 C 2.299399 -5.484940 -0.261803 0
M  V30 5 C 2.558220 -4.249390 -0.813006 0
M  V30 6 N 3.480499 -3.965795 -1.748022 0
M  V30 7 N 3.438414 -2.693091 -2.027878 0
M  V30 8 C 2.476668 -2.100965 -1.275545 0
M  V30 9 C 2.112526 -0.691599 -1.291048 0
M  V30 10 C 2.799566 0.153455 -2.160584 0
M  V30 11 C 2.596099 1.507583 -2.318643 0
M  V30 12 C 1.612677 2.065333 -1.531738 0
M  V30 13 C 1.376426 3.412956 -1.658383 0
M  V30 14 C 0.400611 4.000563 -0.887659 0
M  V30 15 C -0.290919 3.186965 -0.021714 0
M  V30 16 C -0.057051 1.813488 0.113985 0
M  V30 17 O -0.837368 1.123638 1.032622 0
M  V30 18 C -1.832216 1.769970 1.804611 0
M  V30 19 C -2.517837 0.807048 2.711358 0
M  V30 20 F -3.475170 1.550423 3.418659 0
M  V30 21 C -1.496743 0.330355 3.723184 0
M  V30 22 C -1.926468 -1.038225 4.221150 0
M  V30 23 N -1.698359 -1.953530 3.119365 0
M  V30 24 C -2.466551 -1.600090 1.948031 0
M  V30 25 C -3.223648 -0.323218 2.054698 0
M  V30 26 C 0.925405 1.246840 -0.668695 0
M  V30 27 N 1.159523 -0.092822 -0.543443 0
M  V30 28 N 1.949090 -3.085955 -0.534270 0
M  V30 29 C 0.982566 -3.127069 0.380092 0
M  V30 30 H 1.056216 -6.464398 1.146010 0
M  V30 31 H 2.840510 -6.366668 -0.547334 0
M  V30 32 H 3.574934 -0.279004 -2.782863 0
M  V30 33 H 3.175934 2.076431 -3.015141 0
M  V30 34 H 1.944466 4.023459 -2.354578 0
M  V30 35 H 0.189271 5.058699 -0.962717 0
M  V30 36 H -1.064286 3.691076 0.579142 0
M  V30 37 H -1.280307 2.483676 2.463079 0
M  V30 38 H -2.517634 2.401097 1.205640 0
M  V30 39 H -1.407644 1.036270 4.564012 0
M  V30 40 H -0.511764 0.216840 3.218468 0
M  V30 41 H -1.220383 -1.322563 5.029134 0
M  V30 42 H -2.972428 -1.061094 4.529948 0
M  V30 43 H -0.662598 -1.964457 2.893439 0
M  V30 44 H -1.843630 -1.674097 1.035501 0
M  V30 45 H -3.221483 -2.432073 1.829295 0
M  V30 46 H -4.184417 -0.546537 2.603302 0
M  V30 47 H -3.572057 -0.077374 1.015729 0
M  V30 48 H 0.456818 -2.233083 0.648435 0
M  V30 END ATOM
M  V30 BEGIN BOND
M  V30 1 1 1 2
M  V30 2 1 2 3
M  V30 3 2 3 4
M  V30 4 1 4 5
M  V30 5 2 5 6
M  V30 6 1 6 7
M  V30 7 2 7 8
M  V30 8 1 8 9
M  V30 9 2 9 10
M  V30 10 1 10 11
M  V30 11 2 11 12
M  V30 12 1 12 13
M  V30 13 2 13 14
M  V30 14 1 14 15
M  V30 15 2 15 16
M  V30 16 1 16 17
M  V30 17 1 17 18
M  V30 18 1 18 19
M  V30 19 1 19 20
M  V30 20 1 19 21
M  V30 21 1 21 22
M  V30 22 1 22 23
M  V30 23 1 23 24
M  V30 24 1 24 25
M  V30 25 1 16 26
M  V30 26 2 26 27
M  V30 27 1 8 28
M  V30 28 1 28 29
M  V30 29 2 29 2
M  V30 30 1 28 5
M  V30 31 1 27 9
M  V30 32 1 26 12
M  V30 33 1 25 19
M  V30 34 1 3 30
M  V30 35 1 4 31
M  V30 36 1 10 32
M  V30 37 1 11 33
M  V30 38 1 13 34
M  V30 39 1 14 35
M  V30 40 1 15 36
M  V30 41 1 18 37
M  V30 42 1 18 38
M  V30 43 1 21 39
M  V30 44 1 21 40
M  V30 45 1 22 41
M  V30 46 1 22 42
M  V30 47 1 23 43
M  V30 48 1 24 44
M  V30 49 1 24 45
M  V30 50 1 25 46
M  V30 51 1 25 47
M  V30 52 1 29 48
M  V30 END BOND
M  V30 END CTAB
M  END
>  <Dataset>  (713) 
ChEMBL_Kinases

>  <Ligand_Instance>  (713) 
nan

>  <PDB_ID>  (713) 
nan

>  <Standardized_SMILES>  (713) 
Fc1ccc2nnc(-c3ccc4cccc(OCC5(F)CCNCC5)c4n3)n2c1

>  <Name>  (713) 
nan

>  <Pocket>  (713) 
nan

>  <ATP_Site>  (713) 
nan

>  <Peripheral>  (713) 
nan

>  <Num_H_Atoms_ProtBoundConf>  (713) 
nan

>  <Num_Resolved_Atoms>  (713) 
nan

>  <Num_Not_Resolved_Atoms>  (713) 
nan

$$$$
CHEMBL3660094
     RDKit          3D

  0  0  0  0  0  0  0  0  0  0999 V3000
M  V30 BEGIN CTAB
M  V30 COUNTS 54 58 0 0 0
M  V30 BEGIN ATOM
M  V30 1 C 0.250619 -0.811247 7.054275 0
M  V30 2 C 0.541582 -2.094434 6.303389 0
M  V30 3 N 0.858709 -1.745730 4.942640 0
M  V30 4 C 1.156182 -2.914767 4.130740 0
M  V30 5 C 1.637768 -2.476708 2.798714 0
M  V30 6 C 0.765819 -1.420308 2.127161 0
M  V30 7 F -0.495440 -2.001688 1.893203 0
M  V30 8 C 1.342567 -1.132776 0.791096 0
M  V30 9 O 0.755217 -0.215008 -0.008479 0
M  V30 10 C 0.493388 1.088586 -0.079635 0
M  V30 11 C 0.733619 2.200604 0.675135 0
M  V30 12 C 0.376295 3.500012 0.427462 0
M  V30 13 C -0.311403 3.687914 -0.735928 0
M  V30 14 C -0.620545 2.653089 -1.591295 0
M  V30 15 C -1.318296 3.019551 -2.720147 0
M  V30 16 C -1.650780 2.020435 -3.606297 0
M  V30 17 C -1.260041 0.739250 -3.293378 0
M  V30 18 C -1.591586 -0.345526 -4.203301 0
M  V30 19 N -2.262908 -0.242533 -5.363456 0
M  V30 20 N -2.394750 -1.416158 -5.945524 0
M  V30 21 C -1.798921 -2.332099 -5.160495 0
M  V30 22 C -1.689945 -3.683729 -5.368258 0
M  V30 23 C -1.024946 -4.415572 -4.405915 0
M  V30 24 C -0.527404 -3.753571 -3.327002 0
M  V30 25 C -0.678408 -2.379768 -3.187205 0
M  V30 26 N -1.319657 -1.656793 -4.110065 0
M  V30 27 N -0.581562 0.439027 -2.179057 0
M  V30 28 C -0.218608 1.351881 -1.264447 0
M  V30 29 C 0.562516 -0.303023 3.075387 0
M  V30 30 C -0.116227 -0.898622 4.328394 0
M  V30 31 H 0.817921 0.050880 6.637754 0
M  V30 32 H -0.830154 -0.532728 6.982977 0
M  V30 33 H 0.555582 -0.878259 8.118557 0
M  V30 34 H -0.373639 -2.716731 6.382676 0
M  V30 35 H 1.388515 -2.638478 6.746812 0
M  V30 36 H 0.338558 -3.658998 4.114090 0
M  V30 37 H 2.003763 -3.416682 4.642173 0
M  V30 38 H 1.710445 -3.329730 2.081092 0
M  V30 39 H 2.656565 -2.067825 2.867486 0
M  V30 40 H 2.469672 -0.985624 0.854537 0
M  V30 41 H 1.291761 -2.134897 0.226367 0
M  V30 42 H 1.292821 1.980050 1.568063 0
M  V30 43 H 0.652351 4.251794 1.140101 0
M  V30 44 H -0.605210 4.719435 -0.950445 0
M  V30 45 H -1.600696 4.042629 -2.917448 0
M  V30 46 H -2.196241 2.192051 -4.522866 0
M  V30 47 H -2.100601 -4.179448 -6.243709 0
M  V30 48 H -0.888070 -5.486509 -4.480937 0
M  V30 49 H -0.003220 -4.320145 -2.565349 0
M  V30 50 H -0.266432 -1.902474 -2.314877 0
M  V30 51 H 1.514201 0.141604 3.424217 0
M  V30 52 H -0.145231 0.475820 2.700963 0
M  V30 53 H -0.425695 -0.115780 5.019200 0
M  V30 54 H -0.978860 -1.473700 3.899549 0
M  V30 END ATOM
M  V30 BEGIN BOND
M  V30 1 1 1 2
M  V30 2 1 2 3
M  V30 3 1 3 4
M  V30 4 1 4 5
M  V30 5 1 5 6
M  V30 6 1 6 7
M  V30 7 1 6 8
M  V30 8 1 8 9
M  V30 9 1 9 10
M  V30 10 2 10 11
M  V30 11 1 11 12
M  V30 12 2 12 13
M  V30 13 1 13 14
M  V30 14 2 14 15
M  V30 15 1 15 16
M  V30 16 2 16 17
M  V30 17 1 17 18
M  V30 18 2 18 19
M  V30 19 1 19 20
M  V30 20 2 20 21
M  V30 21 1 21 22
M  V30 22 2 22 23
M  V30 23 1 23 24
M  V30 24 2 24 25
M  V30 25 1 25 26
M  V30 26 1 17 27
M  V30 27 2 27 28
M  V30 28 1 6 29
M  V30 29 1 29 30
M  V30 30 1 30 3
M  V30 31 1 28 10
M  V30 32 1 28 14
M  V30 33 1 26 18
M  V30 34 1 26 21
M  V30 35 1 1 31
M  V30 36 1 1 32
M  V30 37 1 1 33
M  V30 38 1 2 34
M  V30 39 1 2 35
M  V30 40 1 4 36
M  V30 41 1 4 37
M  V30 42 1 5 38
M  V30 43 1 5 39
M  V30 44 1 8 40
M  V30 45 1 8 41
M  V30 46 1 11 42
M  V30 47 1 12 43
M  V30 48 1 13 44
M  V30 49 1 15 45
M  V30 50 1 16 46
M  V30 51 1 22 47
M  V30 52 1 23 48
M  V30 53 1 24 49
M  V30 54 1 25 50
M  V30 55 1 29 51
M  V30 56 1 29 52
M  V30 57 1 30 53
M  V30 58 1 30 54
M  V30 END BOND
M  V30 END CTAB
M  END
>  <Dataset>  (714) 
ChEMBL_Kinases

>  <Ligand_Instance>  (714) 
nan

>  <PDB_ID>  (714) 
nan

>  <Standardized_SMILES>  (714) 
CCN1CCC(F)(COc2cccc3ccc(-c4nnc5ccccn45)nc23)CC1

>  <Name>  (714) 
nan

>  <Pocket>  (714) 
nan

>  <ATP_Site>  (714) 
nan

>  <Peripheral>  (714) 
nan

>  <Num_H_Atoms_ProtBoundConf>  (714) 
nan

>  <Num_Resolved_Atoms>  (714) 
nan

>  <Num_Not_Resolved_Atoms>  (714) 
nan

$$$$
CHEMBL3660095
     RDKit          3D

  0  0  0  0  0  0  0  0  0  0999 V3000
M  V30 BEGIN CTAB
M  V30 COUNTS 54 58 0 0 0
M  V30 BEGIN ATOM
M  V30 1 F -2.191730 -2.105534 4.560120 0
M  V30 2 C -1.345529 -2.254117 5.641880 0
M  V30 3 C -0.080578 -1.465897 5.529026 0
M  V30 4 N 0.750189 -1.767028 4.415714 0
M  V30 5 C 1.920793 -0.945464 4.429773 0
M  V30 6 C 1.867297 0.288138 3.596687 0
M  V30 7 C 1.218031 0.082696 2.249596 0
M  V30 8 F -0.071284 0.589869 2.211201 0
M  V30 9 C 1.981532 0.730657 1.114408 0
M  V30 10 O 1.286814 0.478641 -0.113390 0
M  V30 11 C 1.699736 0.920518 -1.339878 0
M  V30 12 C 2.859358 1.670469 -1.495864 0
M  V30 13 C 3.247227 2.102870 -2.764057 0
M  V30 14 C 2.453523 1.766790 -3.844290 0
M  V30 15 C 1.307355 1.025664 -3.690941 0
M  V30 16 C 0.494497 0.676625 -4.764657 0
M  V30 17 C -0.643643 -0.070416 -4.537887 0
M  V30 18 C -1.006191 -0.486906 -3.269991 0
M  V30 19 C -2.231909 -1.277646 -3.117963 0
M  V30 20 N -3.076452 -1.661649 -4.090399 0
M  V30 21 N -4.073015 -2.362646 -3.577625 0
M  V30 22 C -3.881103 -2.441791 -2.242067 0
M  V30 23 C -4.661943 -3.075282 -1.276038 0
M  V30 24 C -4.208561 -2.987176 0.036666 0
M  V30 25 C -3.045497 -2.299800 0.313899 0
M  V30 26 C -2.334454 -1.700783 -0.714157 0
M  V30 27 N -2.752791 -1.772529 -1.989348 0
M  V30 28 N -0.215044 -0.143180 -2.251812 0
M  V30 29 C 0.906006 0.586494 -2.433983 0
M  V30 30 C 1.085174 -1.411104 2.045815 0
M  V30 31 C 0.108031 -1.860018 3.141544 0
M  V30 32 H -1.205938 -3.316909 5.929782 0
M  V30 33 H -1.910411 -1.804315 6.503001 0
M  V30 34 H -0.353897 -0.392003 5.611863 0
M  V30 35 H 0.508269 -1.678936 6.445856 0
M  V30 36 H 2.772620 -1.592470 4.098493 0
M  V30 37 H 2.114352 -0.677375 5.487911 0
M  V30 38 H 2.940503 0.545477 3.357910 0
M  V30 39 H 1.495739 1.192101 4.130651 0
M  V30 40 H 1.990022 1.831042 1.221292 0
M  V30 41 H 3.030420 0.389754 1.063035 0
M  V30 42 H 3.476338 1.933853 -0.670446 0
M  V30 43 H 4.161804 2.689876 -2.857132 0
M  V30 44 H 2.730910 2.089323 -4.840338 0
M  V30 45 H 0.766413 0.997749 -5.774195 0
M  V30 46 H -1.288247 -0.349133 -5.376445 0
M  V30 47 H -5.566531 -3.603957 -1.531411 0
M  V30 48 H -4.831934 -3.486252 0.763273 0
M  V30 49 H -2.730204 -2.255460 1.340211 0
M  V30 50 H -1.449430 -1.191101 -0.413657 0
M  V30 51 H 2.085456 -1.905250 2.203334 0
M  V30 52 H 0.728819 -1.669931 1.050718 0
M  V30 53 H -0.770244 -1.196759 3.005508 0
M  V30 54 H -0.169711 -2.903243 2.887501 0
M  V30 END ATOM
M  V30 BEGIN BOND
M  V30 1 1 1 2
M  V30 2 1 2 3
M  V30 3 1 3 4
M  V30 4 1 4 5
M  V30 5 1 5 6
M  V30 6 1 6 7
M  V30 7 1 7 8
M  V30 8 1 7 9
M  V30 9 1 9 10
M  V30 10 1 10 11
M  V30 11 2 11 12
M  V30 12 1 12 13
M  V30 13 2 13 14
M  V30 14 1 14 15
M  V30 15 2 15 16
M  V30 16 1 16 17
M  V30 17 2 17 18
M  V30 18 1 18 19
M  V30 19 2 19 20
M  V30 20 1 20 21
M  V30 21 2 21 22
M  V30 22 1 22 23
M  V30 23 2 23 24
M  V30 24 1 24 25
M  V30 25 2 25 26
M  V30 26 1 26 27
M  V30 27 1 18 28
M  V30 28 2 28 29
M  V30 29 1 7 30
M  V30 30 1 30 31
M  V30 31 1 31 4
M  V30 32 1 29 11
M  V30 33 1 29 15
M  V30 34 1 27 19
M  V30 35 1 27 22
M  V30 36 1 2 32
M  V30 37 1 2 33
M  V30 38 1 3 34
M  V30 39 1 3 35
M  V30 40 1 5 36
M  V30 41 1 5 37
M  V30 42 1 6 38
M  V30 43 1 6 39
M  V30 44 1 9 40
M  V30 45 1 9 41
M  V30 46 1 12 42
M  V30 47 1 13 43
M  V30 48 1 14 44
M  V30 49 1 16 45
M  V30 50 1 17 46
M  V30 51 1 23 47
M  V30 52 1 24 48
M  V30 53 1 25 49
M  V30 54 1 26 50
M  V30 55 1 30 51
M  V30 56 1 30 52
M  V30 57 1 31 53
M  V30 58 1 31 54
M  V30 END BOND
M  V30 END CTAB
M  END
>  <Dataset>  (715) 
ChEMBL_Kinases

>  <Ligand_Instance>  (715) 
nan

>  <PDB_ID>  (715) 
nan

>  <Standardized_SMILES>  (715) 
FCCN1CCC(F)(COc2cccc3ccc(-c4nnc5ccccn45)nc23)CC1

>  <Name>  (715) 
nan

>  <Pocket>  (715) 
nan

>  <ATP_Site>  (715) 
nan

>  <Peripheral>  (715) 
nan

>  <Num_H_Atoms_ProtBoundConf>  (715) 
nan

>  <Num_Resolved_Atoms>  (715) 
nan

>  <Num_Not_Resolved_Atoms>  (715) 
nan

$$$$
CHEMBL3660096
     RDKit          3D

  0  0  0  0  0  0  0  0  0  0999 V3000
M  V30 BEGIN CTAB
M  V30 COUNTS 48 52 0 0 0
M  V30 BEGIN ATOM
M  V30 1 F 2.396986 -4.927386 3.235719 0
M  V30 2 C 1.383091 -4.102827 2.809102 0
M  V30 3 C 1.707254 -3.108334 1.894718 0
M  V30 4 C 0.704972 -2.246650 1.434090 0
M  V30 5 O 0.906108 -1.216788 0.521960 0
M  V30 6 C 2.215674 -1.032942 0.029937 0
M  V30 7 C 2.300369 0.113339 -0.949390 0
M  V30 8 F 1.483139 -0.113214 -2.024341 0
M  V30 9 C 3.733578 0.199231 -1.429203 0
M  V30 10 C 4.684099 0.570374 -0.338374 0
M  V30 11 N 4.158295 1.196413 0.798152 0
M  V30 12 C 2.892212 1.795040 0.767230 0
M  V30 13 C 1.970828 1.435282 -0.340701 0
M  V30 14 C -0.575706 -2.457966 1.941584 0
M  V30 15 N -1.556295 -1.638433 1.510546 0
M  V30 16 C -2.843799 -1.732723 1.922054 0
M  V30 17 C -3.874274 -0.821270 1.427135 0
M  V30 18 N -5.185832 -0.804705 1.752255 0
M  V30 19 N -5.814342 0.163798 1.105815 0
M  V30 20 C -4.916587 0.807031 0.336588 0
M  V30 21 C -5.034817 1.882267 -0.530881 0
M  V30 22 C -3.929700 2.353311 -1.209898 0
M  V30 23 C -2.706215 1.716084 -0.993894 0
M  V30 24 C -2.645169 0.636554 -0.108061 0
M  V30 25 N -3.742193 0.186324 0.551482 0
M  V30 26 C -3.219609 -2.705686 2.831803 0
M  V30 27 C -2.216198 -3.546292 3.274544 0
M  V30 28 C -0.907074 -3.442477 2.849491 0
M  V30 29 C 0.095658 -4.282064 3.291548 0
M  V30 30 H 2.693305 -2.941515 1.500539 0
M  V30 31 H 2.659154 -1.917231 -0.445467 0
M  V30 32 H 2.852267 -0.802209 0.919593 0
M  V30 33 H 3.815463 0.918583 -2.294813 0
M  V30 34 H 3.967126 -0.789642 -1.877956 0
M  V30 35 H 5.524283 1.181983 -0.772536 0
M  V30 36 H 5.200206 -0.377311 -0.005329 0
M  V30 37 H 4.533310 0.918291 1.718399 0
M  V30 38 H 2.998825 2.911170 0.766641 0
M  V30 39 H 2.329576 1.587628 1.724505 0
M  V30 40 H 0.893816 1.476546 -0.035930 0
M  V30 41 H 2.055715 2.192853 -1.151630 0
M  V30 42 H -5.992206 2.379681 -0.698883 0
M  V30 43 H -3.951586 3.189342 -1.902500 0
M  V30 44 H -1.847698 2.081492 -1.520962 0
M  V30 45 H -1.658006 0.201377 0.000279 0
M  V30 46 H -4.203913 -2.852852 3.209115 0
M  V30 47 H -2.448680 -4.335883 3.994091 0
M  V30 48 H -0.141383 -5.064807 4.006559 0
M  V30 END ATOM
M  V30 BEGIN BOND
M  V30 1 1 1 2
M  V30 2 2 2 3
M  V30 3 1 3 4
M  V30 4 1 4 5
M  V30 5 1 5 6
M  V30 6 1 6 7
M  V30 7 1 7 8
M  V30 8 1 7 9
M  V30 9 1 9 10
M  V30 10 1 10 11
M  V30 11 1 11 12
M  V30 12 1 12 13
M  V30 13 2 4 14
M  V30 14 1 14 15
M  V30 15 2 15 16
M  V30 16 1 16 17
M  V30 17 2 17 18
M  V30 18 1 18 19
M  V30 19 2 19 20
M  V30 20 1 20 21
M  V30 21 2 21 22
M  V30 22 1 22 23
M  V30 23 2 23 24
M  V30 24 1 24 25
M  V30 25 1 16 26
M  V30 26 2 26 27
M  V30 27 1 27 28
M  V30 28 2 28 29
M  V30 29 1 29 2
M  V30 30 1 13 7
M  V30 31 1 28 14
M  V30 32 1 25 17
M  V30 33 1 25 20
M  V30 34 1 3 30
M  V30 35 1 6 31
M  V30 36 1 6 32
M  V30 37 1 9 33
M  V30 38 1 9 34
M  V30 39 1 10 35
M  V30 40 1 10 36
M  V30 41 1 11 37
M  V30 42 1 12 38
M  V30 43 1 12 39
M  V30 44 1 13 40
M  V30 45 1 13 41
M  V30 46 1 21 42
M  V30 47 1 22 43
M  V30 48 1 23 44
M  V30 49 1 24 45
M  V30 50 1 26 46
M  V30 51 1 27 47
M  V30 52 1 29 48
M  V30 END BOND
M  V30 END CTAB
M  END
>  <Dataset>  (716) 
ChEMBL_Kinases

>  <Ligand_Instance>  (716) 
nan

>  <PDB_ID>  (716) 
nan

>  <Standardized_SMILES>  (716) 
Fc1cc(OCC2(F)CCNCC2)c2nc(-c3nnc4ccccn34)ccc2c1

>  <Name>  (716) 
nan

>  <Pocket>  (716) 
nan

>  <ATP_Site>  (716) 
nan

>  <Peripheral>  (716) 
nan

>  <Num_H_Atoms_ProtBoundConf>  (716) 
nan

>  <Num_Resolved_Atoms>  (716) 
nan

>  <Num_Not_Resolved_Atoms>  (716) 
nan

$$$$
CHEMBL3660097
     RDKit          3D

  0  0  0  0  0  0  0  0  0  0999 V3000
M  V30 BEGIN CTAB
M  V30 COUNTS 42 46 0 0 0
M  V30 BEGIN ATOM
M  V30 1 F 3.783390 -1.366905 4.153791 0
M  V30 2 C 3.309694 -1.338724 2.823501 0
M  V30 3 C 2.328925 -0.249198 2.655261 0
M  V30 4 O 1.741370 -0.003095 1.463981 0
M  V30 5 C 2.091482 0.402521 0.227394 0
M  V30 6 C 3.236428 0.779178 -0.397067 0
M  V30 7 C 3.417329 1.175901 -1.698036 0
M  V30 8 C 2.267291 1.186631 -2.455598 0
M  V30 9 C 1.044975 0.825800 -1.933764 0
M  V30 10 C -0.017435 0.885020 -2.808936 0
M  V30 11 C -1.257625 0.534210 -2.334897 0
M  V30 12 C -1.374094 0.145130 -1.021994 0
M  V30 13 C -2.670610 -0.236336 -0.475898 0
M  V30 14 N -3.823681 -0.248035 -1.160066 0
M  V30 15 N -4.821115 -0.648647 -0.358709 0
M  V30 16 C -4.299952 -0.900119 0.866570 0
M  V30 17 C -4.912709 -1.332738 2.024585 0
M  V30 18 C -4.126799 -1.511705 3.158244 0
M  V30 19 C -2.780638 -1.241310 3.041259 0
M  V30 20 C -2.202817 -0.810109 1.866237 0
M  V30 21 N -2.965451 -0.638113 0.771953 0
M  V30 22 N -0.289778 0.114412 -0.234535 0
M  V30 23 C 0.951020 0.432899 -0.593060 0
M  V30 24 C 2.762695 -2.735273 2.473489 0
M  V30 25 N 4.176791 -3.068412 2.183917 0
M  V30 26 C 4.403427 -1.622285 1.889094 0
M  V30 27 H 2.751218 0.687432 3.137396 0
M  V30 28 H 1.476404 -0.503477 3.387334 0
M  V30 29 H 4.086333 0.753441 0.273928 0
M  V30 30 H 4.413870 1.438671 -2.010654 0
M  V30 31 H 2.372726 1.496344 -3.493808 0
M  V30 32 H 0.109630 1.195650 -3.836187 0
M  V30 33 H -2.155174 0.546310 -2.938814 0
M  V30 34 H -5.971816 -1.533404 2.073324 0
M  V30 35 H -4.517782 -1.847205 4.108934 0
M  V30 36 H -2.131574 -1.369462 3.907623 0
M  V30 37 H -1.139100 -0.618583 1.853293 0
M  V30 38 H 2.098507 -2.750417 1.607147 0
M  V30 39 H 2.444457 -3.254724 3.390262 0
M  V30 40 H 4.318844 -3.688701 1.372260 0
M  V30 41 H 4.298474 -1.517920 0.817259 0
M  V30 42 H 5.437764 -1.357198 2.255698 0
M  V30 END ATOM
M  V30 BEGIN BOND
M  V30 1 1 1 2
M  V30 2 1 2 3
M  V30 3 1 3 4
M  V30 4 1 4 5
M  V30 5 2 5 6
M  V30 6 1 6 7
M  V30 7 2 7 8
M  V30 8 1 8 9
M  V30 9 2 9 10
M  V30 10 1 10 11
M  V30 11 2 11 12
M  V30 12 1 12 13
M  V30 13 2 13 14
M  V30 14 1 14 15
M  V30 15 2 15 16
M  V30 16 1 16 17
M  V30 17 2 17 18
M  V30 18 1 18 19
M  V30 19 2 19 20
M  V30 20 1 20 21
M  V30 21 1 12 22
M  V30 22 2 22 23
M  V30 23 1 2 24
M  V30 24 1 24 25
M  V30 25 1 25 26
M  V30 26 1 26 2
M  V30 27 1 23 5
M  V30 28 1 23 9
M  V30 29 1 21 13
M  V30 30 1 21 16
M  V30 31 1 3 27
M  V30 32 1 3 28
M  V30 33 1 6 29
M  V30 34 1 7 30
M  V30 35 1 8 31
M  V30 36 1 10 32
M  V30 37 1 11 33
M  V30 38 1 17 34
M  V30 39 1 18 35
M  V30 40 1 19 36
M  V30 41 1 20 37
M  V30 42 1 24 38
M  V30 43 1 24 39
M  V30 44 1 25 40
M  V30 45 1 26 41
M  V30 46 1 26 42
M  V30 END BOND
M  V30 END CTAB
M  END
>  <Dataset>  (717) 
ChEMBL_Kinases

>  <Ligand_Instance>  (717) 
nan

>  <PDB_ID>  (717) 
nan

>  <Standardized_SMILES>  (717) 
FC1(COc2cccc3ccc(-c4nnc5ccccn45)nc23)CNC1

>  <Name>  (717) 
nan

>  <Pocket>  (717) 
nan

>  <ATP_Site>  (717) 
nan

>  <Peripheral>  (717) 
nan

>  <Num_H_Atoms_ProtBoundConf>  (717) 
nan

>  <Num_Resolved_Atoms>  (717) 
nan

>  <Num_Not_Resolved_Atoms>  (717) 
nan

$$$$
CHEMBL3660193
     RDKit          3D

  0  0  0  0  0  0  0  0  0  0999 V3000
M  V30 BEGIN CTAB
M  V30 COUNTS 52 56 0 0 0
M  V30 BEGIN ATOM
M  V30 1 C 0.552238 -0.997678 4.447226 0
M  V30 2 N 1.187312 -2.175623 4.040679 0
M  V30 3 C 0.388494 -3.311554 3.784878 0
M  V30 4 C 2.541579 -2.232630 3.739293 0
M  V30 5 C 2.920316 -1.506518 2.506504 0
M  V30 6 C 4.237504 -1.498645 2.025393 0
M  V30 7 C 4.594058 -0.826454 0.848421 0
M  V30 8 C 3.655320 -0.130743 0.087294 0
M  V30 9 N 3.622369 0.553213 -1.054317 0
M  V30 10 C 2.407129 0.991031 -1.371011 0
M  V30 11 C 1.691494 1.627006 -2.512705 0
M  V30 12 O 2.414497 1.519311 -3.528703 0
M  V30 13 C 0.362066 2.151850 -2.081873 0
M  V30 14 C -0.002402 3.262528 -1.366957 0
M  V30 15 C -1.237755 3.337231 -0.809161 0
M  V30 16 N -2.063862 2.298161 -0.982046 0
M  V30 17 C -1.747006 1.171759 -1.681683 0
M  V30 18 C -2.917196 0.340996 -1.478813 0
M  V30 19 C -4.234782 0.714813 -1.568127 0
M  V30 20 N -5.271658 -0.083059 -1.176973 0
M  V30 21 C -5.056852 -1.306828 -0.672493 0
M  V30 22 C -3.758347 -1.731060 -0.563579 0
M  V30 23 C -3.594815 -2.991644 -0.006095 0
M  V30 24 C -2.322020 -3.530353 0.185440 0
M  V30 25 C -1.227449 -2.783241 -0.190749 0
M  V30 26 C -1.498090 -1.553719 -0.728275 0
M  V30 27 C -2.681248 -0.936019 -0.957639 0
M  V30 28 C -0.515561 1.058229 -2.268486 0
M  V30 29 N 1.682455 0.514925 -0.303489 0
M  V30 30 C 2.388792 -0.186381 0.629015 0
M  V30 31 C 1.987165 -0.819549 1.766848 0
M  V30 32 H 1.119305 -0.080775 4.225711 0
M  V30 33 H -0.455830 -0.924033 3.957273 0
M  V30 34 H 0.306985 -0.924079 5.554184 0
M  V30 35 H 0.604968 -4.149987 4.466905 0
M  V30 36 H -0.679290 -3.021825 3.933050 0
M  V30 37 H 0.442497 -3.653397 2.717503 0
M  V30 38 H 3.106611 -1.691587 4.567908 0
M  V30 39 H 2.943962 -3.274412 3.764189 0
M  V30 40 H 5.006681 -2.042683 2.577282 0
M  V30 41 H 5.598873 -0.803390 0.453695 0
M  V30 42 H 0.816535 3.975234 -1.355115 0
M  V30 43 H -1.373108 4.282156 -0.277396 0
M  V30 44 H -4.384718 1.711706 -1.979076 0
M  V30 45 H -5.890240 -1.920376 -0.371700 0
M  V30 46 H -4.429481 -3.625220 0.318418 0
M  V30 47 H -2.191130 -4.496412 0.614969 0
M  V30 48 H -0.227427 -3.177704 -0.055691 0
M  V30 49 H -0.618384 -1.039476 -0.995315 0
M  V30 50 H -0.422694 0.154770 -2.802070 0
M  V30 51 H 0.628545 0.646868 -0.133752 0
M  V30 52 H 0.957937 -0.781277 2.044899 0
M  V30 END ATOM
M  V30 BEGIN BOND
M  V30 1 1 1 2
M  V30 2 1 2 3
M  V30 3 1 2 4
M  V30 4 1 4 5
M  V30 5 2 5 6
M  V30 6 1 6 7
M  V30 7 2 7 8
M  V30 8 1 8 9
M  V30 9 2 9 10
M  V30 10 1 10 11
M  V30 11 2 11 12
M  V30 12 1 11 13
M  V30 13 2 13 14
M  V30 14 1 14 15
M  V30 15 2 15 16
M  V30 16 1 16 17
M  V30 17 1 17 18
M  V30 18 2 18 19
M  V30 19 1 19 20
M  V30 20 2 20 21
M  V30 21 1 21 22
M  V30 22 2 22 23
M  V30 23 1 23 24
M  V30 24 2 24 25
M  V30 25 1 25 26
M  V30 26 2 26 27
M  V30 27 2 17 28
M  V30 28 1 10 29
M  V30 29 1 29 30
M  V30 30 2 30 31
M  V30 31 1 31 5
M  V30 32 1 30 8
M  V30 33 1 28 13
M  V30 34 1 27 18
M  V30 35 1 27 22
M  V30 36 1 1 32
M  V30 37 1 1 33
M  V30 38 1 1 34
M  V30 39 1 3 35
M  V30 40 1 3 36
M  V30 41 1 3 37
M  V30 42 1 4 38
M  V30 43 1 4 39
M  V30 44 1 6 40
M  V30 45 1 7 41
M  V30 46 1 14 42
M  V30 47 1 15 43
M  V30 48 1 19 44
M  V30 49 1 21 45
M  V30 50 1 23 46
M  V30 51 1 24 47
M  V30 52 1 25 48
M  V30 53 1 26 49
M  V30 54 1 28 50
M  V30 55 1 29 51
M  V30 56 1 31 52
M  V30 END BOND
M  V30 END CTAB
M  END
>  <Dataset>  (718) 
ChEMBL_Kinases

>  <Ligand_Instance>  (718) 
nan

>  <PDB_ID>  (718) 
nan

>  <Standardized_SMILES>  (718) 
CN(C)Cc1ccc2nc(C(=O)c3ccnc(-c4cncc5ccccc45)c3)[nH]c2c1

>  <Name>  (718) 
nan

>  <Pocket>  (718) 
nan

>  <ATP_Site>  (718) 
nan

>  <Peripheral>  (718) 
nan

>  <Num_H_Atoms_ProtBoundConf>  (718) 
nan

>  <Num_Resolved_Atoms>  (718) 
nan

>  <Num_Not_Resolved_Atoms>  (718) 
nan

$$$$
CHEMBL3660194
     RDKit          3D

  0  0  0  0  0  0  0  0  0  0999 V3000
M  V30 BEGIN CTAB
M  V30 COUNTS 61 66 0 0 0
M  V30 BEGIN ATOM
M  V30 1 C 5.882785 -1.682584 4.712694 0
M  V30 2 N 6.127019 -0.863301 3.514458 0
M  V30 3 C 6.149574 -1.763602 2.401373 0
M  V30 4 C 5.908734 -1.083132 1.069550 0
M  V30 5 N 4.707313 -0.276370 1.094349 0
M  V30 6 C 4.477983 0.263601 -0.212827 0
M  V30 7 C 3.241913 1.114934 -0.262480 0
M  V30 8 C 3.248532 2.473995 -0.024530 0
M  V30 9 C 2.058237 3.207429 -0.085560 0
M  V30 10 C 0.914937 2.502267 -0.389941 0
M  V30 11 N -0.362305 2.973098 -0.509009 0
M  V30 12 C -1.166071 1.940684 -0.815287 0
M  V30 13 C -2.593319 2.136919 -1.016542 0
M  V30 14 O -2.979174 3.359488 -1.001966 0
M  V30 15 C -3.652279 1.169965 -1.231907 0
M  V30 16 C -4.743109 1.619944 -1.989000 0
M  V30 17 C -5.756151 0.708205 -2.188130 0
M  V30 18 N -5.676148 -0.512085 -1.682535 0
M  V30 19 C -4.714630 -1.038644 -0.965710 0
M  V30 20 C -4.530731 -2.348645 -0.368425 0
M  V30 21 C -3.408091 -2.700552 0.351407 0
M  V30 22 N -3.226101 -3.901927 0.907267 0
M  V30 23 C -4.125418 -4.894610 0.819653 0
M  V30 24 C -5.265986 -4.615067 0.118306 0
M  V30 25 C -6.200639 -5.622776 0.019381 0
M  V30 26 C -7.380744 -5.436543 -0.665341 0
M  V30 27 C -7.571473 -4.182542 -1.245773 0
M  V30 28 C -6.610776 -3.203733 -1.122379 0
M  V30 29 C -5.443938 -3.373693 -0.450859 0
M  V30 30 C -3.707696 -0.125544 -0.770016 0
M  V30 31 N -0.371059 0.861660 -0.878552 0
M  V30 32 C 0.917272 1.145385 -0.626110 0
M  V30 33 C 2.078081 0.400399 -0.571783 0
M  V30 34 C 4.863698 0.739795 2.115882 0
M  V30 35 C 5.107937 0.138415 3.474791 0
M  V30 36 H 5.422077 -2.664967 4.420103 0
M  V30 37 H 6.834416 -1.895066 5.250115 0
M  V30 38 H 5.212427 -1.192879 5.425172 0
M  V30 39 H 7.159061 -2.232629 2.351767 0
M  V30 40 H 5.434751 -2.620446 2.514588 0
M  V30 41 H 6.785403 -0.431511 0.857815 0
M  V30 42 H 5.764768 -1.878645 0.311601 0
M  V30 43 H 4.399395 -0.596033 -0.904016 0
M  V30 44 H 5.349537 0.858363 -0.575277 0
M  V30 45 H 4.200027 2.949379 0.209349 0
M  V30 46 H 2.110364 4.256148 0.105591 0
M  V30 47 H -4.882540 2.593605 -2.432842 0
M  V30 48 H -6.685661 0.874410 -2.751067 0
M  V30 49 H -2.579291 -2.065476 0.538528 0
M  V30 50 H -3.979591 -5.865351 1.268373 0
M  V30 51 H -6.063663 -6.609368 0.468967 0
M  V30 52 H -8.103814 -6.226659 -0.737988 0
M  V30 53 H -8.524342 -4.082248 -1.779303 0
M  V30 54 H -6.872977 -2.305747 -1.602734 0
M  V30 55 H -2.819069 -0.307493 -0.208287 0
M  V30 56 H -0.678253 -0.104629 -1.101857 0
M  V30 57 H 2.050643 -0.646452 -0.758799 0
M  V30 58 H 3.954608 1.368204 2.195909 0
M  V30 59 H 5.763084 1.339722 1.815231 0
M  V30 60 H 4.128190 -0.259614 3.861082 0
M  V30 61 H 5.394462 0.953933 4.168961 0
M  V30 END ATOM
M  V30 BEGIN BOND
M  V30 1 1 1 2
M  V30 2 1 2 3
M  V30 3 1 3 4
M  V30 4 1 4 5
M  V30 5 1 5 6
M  V30 6 1 6 7
M  V30 7 2 7 8
M  V30 8 1 8 9
M  V30 9 2 9 10
M  V30 10 1 10 11
M  V30 11 2 11 12
M  V30 12 1 12 13
M  V30 13 2 13 14
M  V30 14 1 13 15
M  V30 15 2 15 16
M  V30 16 1 16 17
M  V30 17 2 17 18
M  V30 18 1 18 19
M  V30 19 1 19 20
M  V30 20 2 20 21
M  V30 21 1 21 22
M  V30 22 2 22 23
M  V30 23 1 23 24
M  V30 24 2 24 25
M  V30 25 1 25 26
M  V30 26 2 26 27
M  V30 27 1 27 28
M  V30 28 2 28 29
M  V30 29 2 19 30
M  V30 30 1 12 31
M  V30 31 1 31 32
M  V30 32 2 32 33
M  V30 33 1 5 34
M  V30 34 1 34 35
M  V30 35 1 35 2
M  V30 36 1 33 7
M  V30 37 1 32 10
M  V30 38 1 30 15
M  V30 39 1 29 20
M  V30 40 1 29 24
M  V30 41 1 1 36
M  V30 42 1 1 37
M  V30 43 1 1 38
M  V30 44 1 3 39
M  V30 45 1 3 40
M  V30 46 1 4 41
M  V30 47 1 4 42
M  V30 48 1 6 43
M  V30 49 1 6 44
M  V30 50 1 8 45
M  V30 51 1 9 46
M  V30 52 1 16 47
M  V30 53 1 17 48
M  V30 54 1 21 49
M  V30 55 1 23 50
M  V30 56 1 25 51
M  V30 57 1 26 52
M  V30 58 1 27 53
M  V30 59 1 28 54
M  V30 60 1 30 55
M  V30 61 1 31 56
M  V30 62 1 33 57
M  V30 63 1 34 58
M  V30 64 1 34 59
M  V30 65 1 35 60
M  V30 66 1 35 61
M  V30 END BOND
M  V30 END CTAB
M  END
>  <Dataset>  (719) 
ChEMBL_Kinases

>  <Ligand_Instance>  (719) 
nan

>  <PDB_ID>  (719) 
nan

>  <Standardized_SMILES>  (719) 
CN1CCN(Cc2ccc3nc(C(=O)c4ccnc(-c5cncc6ccccc56)c4)[nH]c3c2)CC1

>  <Name>  (719) 
nan

>  <Pocket>  (719) 
nan

>  <ATP_Site>  (719) 
nan

>  <Peripheral>  (719) 
nan

>  <Num_H_Atoms_ProtBoundConf>  (719) 
nan

>  <Num_Resolved_Atoms>  (719) 
nan

>  <Num_Not_Resolved_Atoms>  (719) 
nan

$$$$
CHEMBL3660195
     RDKit          3D

  0  0  0  0  0  0  0  0  0  0999 V3000
M  V30 BEGIN CTAB
M  V30 COUNTS 53 57 0 0 0
M  V30 BEGIN ATOM
M  V30 1 O -1.905618 1.057132 4.800765 0
M  V30 2 C -1.200215 0.472006 3.915467 0
M  V30 3 C 0.220524 0.642359 4.138944 0
M  V30 4 C 0.677250 0.810838 5.435593 0
M  V30 5 C 2.025431 0.983679 5.659961 0
M  V30 6 N 2.878348 0.988465 4.627588 0
M  V30 7 C 2.526189 0.833668 3.332907 0
M  V30 8 C 3.620578 0.804982 2.402732 0
M  V30 9 C 4.833778 0.274887 2.876718 0
M  V30 10 N 5.954911 0.183557 2.140135 0
M  V30 11 C 6.000734 0.598904 0.878118 0
M  V30 12 C 4.865662 1.138204 0.317513 0
M  V30 13 C 4.851923 1.620216 -0.974070 0
M  V30 14 C 3.722049 2.207384 -1.554415 0
M  V30 15 C 2.597016 2.276760 -0.735308 0
M  V30 16 C 2.639222 1.787773 0.546686 0
M  V30 17 C 3.752367 1.210988 1.103026 0
M  V30 18 C 1.180724 0.663861 3.161998 0
M  V30 19 C -1.923243 -0.237071 2.877215 0
M  V30 20 N -3.262989 -0.160028 2.823031 0
M  V30 21 C -3.713905 -0.909951 1.781004 0
M  V30 22 C -4.986901 -1.150077 1.315784 0
M  V30 23 C -5.123551 -1.986667 0.195497 0
M  V30 24 C -4.018404 -2.573567 -0.450624 0
M  V30 25 O -4.490872 -3.304776 -1.469393 0
M  V30 26 C -4.059648 -4.090601 -2.474557 0
M  V30 27 C -3.189398 -3.532550 -3.545070 0
M  V30 28 O -3.845342 -2.458202 -4.193896 0
M  V30 29 C -1.816325 -3.129529 -3.194035 0
M  V30 30 O -1.170596 -4.196551 -2.554850 0
M  V30 31 C -2.794595 -2.273554 0.088785 0
M  V30 32 C -2.611440 -1.463960 1.178470 0
M  V30 33 N -1.547100 -1.035819 1.867581 0
M  V30 34 H 0.047766 0.818634 6.313564 0
M  V30 35 H 2.399972 1.117603 6.686375 0
M  V30 36 H 4.951649 -0.105565 3.892110 0
M  V30 37 H 6.893782 0.524395 0.290430 0
M  V30 38 H 5.753025 1.548014 -1.582640 0
M  V30 39 H 3.715748 2.583487 -2.568023 0
M  V30 40 H 1.731465 2.739011 -1.208522 0
M  V30 41 H 1.720865 1.947811 1.057453 0
M  V30 42 H 0.782112 0.490810 2.205414 0
M  V30 43 H -5.785003 -0.675383 1.849546 0
M  V30 44 H -6.193061 -2.072682 -0.042482 0
M  V30 45 H -4.987612 -4.505288 -3.000123 0
M  V30 46 H -3.559044 -5.050797 -2.143238 0
M  V30 47 H -3.082272 -4.286049 -4.397933 0
M  V30 48 H -3.138659 -2.058048 -4.770718 0
M  V30 49 H -1.685565 -2.163198 -2.690806 0
M  V30 50 H -1.242959 -3.016277 -4.164936 0
M  V30 51 H -0.849107 -4.870886 -3.213232 0
M  V30 52 H -1.983744 -2.729447 -0.399962 0
M  V30 53 H -0.589854 -1.302889 1.636025 0
M  V30 END ATOM
M  V30 BEGIN BOND
M  V30 1 2 1 2
M  V30 2 1 2 3
M  V30 3 2 3 4
M  V30 4 1 4 5
M  V30 5 2 5 6
M  V30 6 1 6 7
M  V30 7 1 7 8
M  V30 8 2 8 9
M  V30 9 1 9 10
M  V30 10 2 10 11
M  V30 11 1 11 12
M  V30 12 2 12 13
M  V30 13 1 13 14
M  V30 14 2 14 15
M  V30 15 1 15 16
M  V30 16 2 16 17
M  V30 17 2 7 18
M  V30 18 1 2 19
M  V30 19 2 19 20
M  V30 20 1 20 21
M  V30 21 2 21 22
M  V30 22 1 22 23
M  V30 23 2 23 24
M  V30 24 1 24 25
M  V30 25 1 25 26
M  V30 26 1 26 27
M  V30 27 1 27 28
M  V30 28 1 27 29
M  V30 29 1 29 30
M  V30 30 1 24 31
M  V30 31 2 31 32
M  V30 32 1 32 33
M  V30 33 1 18 3
M  V30 34 1 33 19
M  V30 35 1 17 8
M  V30 36 1 32 21
M  V30 37 1 17 12
M  V30 38 1 4 34
M  V30 39 1 5 35
M  V30 40 1 9 36
M  V30 41 1 11 37
M  V30 42 1 13 38
M  V30 43 1 14 39
M  V30 44 1 15 40
M  V30 45 1 16 41
M  V30 46 1 18 42
M  V30 47 1 22 43
M  V30 48 1 23 44
M  V30 49 1 26 45
M  V30 50 1 26 46
M  V30 51 1 27 47
M  V30 52 1 28 48
M  V30 53 1 29 49
M  V30 54 1 29 50
M  V30 55 1 30 51
M  V30 56 1 31 52
M  V30 57 1 33 53
M  V30 END BOND
M  V30 END CTAB
M  END
>  <Dataset>  (720) 
ChEMBL_Kinases

>  <Ligand_Instance>  (720) 
nan

>  <PDB_ID>  (720) 
nan

>  <Standardized_SMILES>  (720) 
O=C(c1ccnc(-c2cncc3ccccc23)c1)c1nc2ccc(OCC(O)CO)cc2[nH]1

>  <Name>  (720) 
nan

>  <Pocket>  (720) 
nan

>  <ATP_Site>  (720) 
nan

>  <Peripheral>  (720) 
nan

>  <Num_H_Atoms_ProtBoundConf>  (720) 
nan

>  <Num_Resolved_Atoms>  (720) 
nan

>  <Num_Not_Resolved_Atoms>  (720) 
nan

$$$$
CHEMBL3660092
     RDKit          3D

  0  0  0  0  0  0  0  0  0  0999 V3000
M  V30 BEGIN CTAB
M  V30 COUNTS 48 52 0 0 0
M  V30 BEGIN ATOM
M  V30 1 F -2.732724 -2.993549 -0.896684 0
M  V30 2 C -1.612406 -2.990128 -1.637322 0
M  V30 3 C -1.661153 -3.804190 -2.739556 0
M  V30 4 C -0.577120 -3.907217 -3.604348 0
M  V30 5 C 0.518864 -3.125261 -3.243548 0
M  V30 6 N 1.695720 -3.032501 -3.896731 0
M  V30 7 N 2.460869 -2.187707 -3.227896 0
M  V30 8 C 1.797256 -1.731480 -2.150750 0
M  V30 9 C 2.307829 -0.782946 -1.165672 0
M  V30 10 C 3.583878 -0.278749 -1.304526 0
M  V30 11 C 4.193526 0.624834 -0.445634 0
M  V30 12 C 3.402114 1.014165 0.620637 0
M  V30 13 C 4.000438 1.924296 1.496586 0
M  V30 14 C 3.263363 2.351340 2.580166 0
M  V30 15 C 1.983058 1.863036 2.743954 0
M  V30 16 C 1.357262 0.950841 1.883114 0
M  V30 17 O 0.108445 0.461492 2.024446 0
M  V30 18 C -0.895520 0.647164 2.947730 0
M  V30 19 C -2.092231 1.390641 2.464413 0
M  V30 20 C -2.923590 0.761517 1.425134 0
M  V30 21 N -2.962876 -0.671370 1.437597 0
M  V30 22 C -3.262935 -1.118946 2.805865 0
M  V30 23 C -1.903872 -1.658429 3.274110 0
M  V30 24 C -1.173352 -0.513099 3.851949 0
M  V30 25 F 0.036852 -0.973396 4.336107 0
M  V30 26 C 2.103210 0.526199 0.797146 0
M  V30 27 N 1.607374 -0.350567 -0.099439 0
M  V30 28 N 0.588561 -2.320072 -2.167606 0
M  V30 29 C -0.480219 -2.260741 -1.373864 0
M  V30 30 H -2.531142 -4.409496 -3.004497 0
M  V30 31 H -0.547082 -4.527825 -4.489186 0
M  V30 32 H 4.165780 -0.623718 -2.170622 0
M  V30 33 H 5.181834 0.989074 -0.589489 0
M  V30 34 H 4.991805 2.281551 1.340140 0
M  V30 35 H 3.666911 3.055126 3.296901 0
M  V30 36 H 1.436090 2.208441 3.587640 0
M  V30 37 H -0.421019 1.385728 3.672742 0
M  V30 38 H -2.752543 1.628847 3.328734 0
M  V30 39 H -1.720481 2.410532 2.149444 0
M  V30 40 H -3.979469 1.100673 1.461429 0
M  V30 41 H -2.528601 1.057922 0.431511 0
M  V30 42 H -3.630459 -1.077408 0.777871 0
M  V30 43 H -3.547089 -0.252569 3.421430 0
M  V30 44 H -4.035522 -1.906618 2.789287 0
M  V30 45 H -1.400093 -2.170699 2.450371 0
M  V30 46 H -2.141365 -2.362058 4.075709 0
M  V30 47 H -1.724798 -0.138116 4.734546 0
M  V30 48 H -0.469355 -1.631777 -0.504609 0
M  V30 END ATOM
M  V30 BEGIN BOND
M  V30 1 1 1 2
M  V30 2 1 2 3
M  V30 3 2 3 4
M  V30 4 1 4 5
M  V30 5 2 5 6
M  V30 6 1 6 7
M  V30 7 2 7 8
M  V30 8 1 8 9
M  V30 9 2 9 10
M  V30 10 1 10 11
M  V30 11 2 11 12
M  V30 12 1 12 13
M  V30 13 2 13 14
M  V30 14 1 14 15
M  V30 15 2 15 16
M  V30 16 1 16 17
M  V30 17 1 17 18
M  V30 18 1 18 19
M  V30 19 1 19 20
M  V30 20 1 20 21
M  V30 21 1 21 22
M  V30 22 1 22 23
M  V30 23 1 23 24
M  V30 24 1 24 25
M  V30 25 1 16 26
M  V30 26 2 26 27
M  V30 27 1 8 28
M  V30 28 1 28 29
M  V30 29 2 29 2
M  V30 30 1 28 5
M  V30 31 1 27 9
M  V30 32 1 26 12
M  V30 33 1 24 18
M  V30 34 1 3 30
M  V30 35 1 4 31
M  V30 36 1 10 32
M  V30 37 1 11 33
M  V30 38 1 13 34
M  V30 39 1 14 35
M  V30 40 1 15 36
M  V30 41 1 18 37
M  V30 42 1 19 38
M  V30 43 1 19 39
M  V30 44 1 20 40
M  V30 45 1 20 41
M  V30 46 1 21 42
M  V30 47 1 22 43
M  V30 48 1 22 44
M  V30 49 1 23 45
M  V30 50 1 23 46
M  V30 51 1 24 47
M  V30 52 1 29 48
M  V30 END BOND
M  V30 END CTAB
M  END
>  <Dataset>  (721) 
ChEMBL_Kinases

>  <Ligand_Instance>  (721) 
nan

>  <PDB_ID>  (721) 
nan

>  <Standardized_SMILES>  (721) 
Fc1ccc2nnc(-c3ccc4cccc(OC5CCNCCC5F)c4n3)n2c1

>  <Name>  (721) 
nan

>  <Pocket>  (721) 
nan

>  <ATP_Site>  (721) 
nan

>  <Peripheral>  (721) 
nan

>  <Num_H_Atoms_ProtBoundConf>  (721) 
nan

>  <Num_Resolved_Atoms>  (721) 
nan

>  <Num_Not_Resolved_Atoms>  (721) 
nan

$$$$
CHEMBL3662782
     RDKit          3D

  0  0  0  0  0  0  0  0  0  0999 V3000
M  V30 BEGIN CTAB
M  V30 COUNTS 63 67 0 0 0
M  V30 BEGIN ATOM
M  V30 1 C 4.895560 2.003691 2.673205 0
M  V30 2 C 3.427368 1.934986 2.262589 0
M  V30 3 C 3.266728 0.844174 1.230954 0 CFG=1
M  V30 4 C 3.660386 -0.500586 1.780431 0
M  V30 5 N 3.809986 -1.439287 0.736840 0
M  V30 6 C 3.884344 -2.769079 1.319982 0
M  V30 7 C 2.846595 -3.624192 0.643818 0
M  V30 8 C 1.846371 -2.589609 0.133629 0
M  V30 9 C 2.776922 -1.455415 -0.246025 0 CFG=1
M  V30 10 C 2.079690 -0.174882 -0.487365 0
M  V30 11 N 1.948789 0.704078 0.678939 0
M  V30 12 C 0.715250 1.274246 1.110077 0
M  V30 13 O 0.990392 1.978790 2.124920 0
M  V30 14 N -0.648492 1.245679 0.706164 0
M  V30 15 C -1.566790 0.688699 -0.281289 0
M  V30 16 C -2.579680 0.044828 0.596742 0
M  V30 17 C -3.472568 -1.007650 0.820277 0
M  V30 18 N -3.630756 -2.069577 -0.129864 0
M  V30 19 C -4.529020 -2.165175 -1.231297 0
M  V30 20 O -5.333205 -1.230761 -1.479377 0
M  V30 21 C -4.459468 -3.389598 -2.037275 0
M  V30 22 C -5.326638 -3.487932 -3.105192 0
M  V30 23 C -5.286968 -4.625077 -3.882441 0
M  V30 24 C -4.389229 -5.655121 -3.595881 0
M  V30 25 C -3.538708 -5.516334 -2.517822 0
M  V30 26 N -3.587059 -4.403223 -1.767949 0
M  V30 27 N -4.056554 -0.771525 2.011677 0
M  V30 28 N -3.581665 0.346851 2.524402 0
M  V30 29 C -2.675410 0.875119 1.687160 0
M  V30 30 C -1.697723 1.976083 1.386865 0
M  V30 31 C -2.413068 2.978031 0.519300 0
M  V30 32 C -1.265272 2.661420 2.655474 0
M  V30 33 H 5.120995 2.982317 3.122076 0
M  V30 34 H 5.114328 1.219167 3.425788 0
M  V30 35 H 5.544982 1.775800 1.789818 0
M  V30 36 H 3.127219 2.883936 1.860813 0
M  V30 37 H 2.908743 1.588175 3.188012 0
M  V30 38 H 4.002452 1.087532 0.394919 0
M  V30 39 H 4.629364 -0.416615 2.310511 0
M  V30 40 H 2.841987 -0.824148 2.459984 0
M  V30 41 H 3.652499 -2.760380 2.405874 0
M  V30 42 H 4.905020 -3.194719 1.242131 0
M  V30 43 H 3.297984 -4.171743 -0.193923 0
M  V30 44 H 2.381669 -4.371592 1.305618 0
M  V30 45 H 1.146267 -2.307559 0.936425 0
M  V30 46 H 1.347070 -3.060678 -0.736880 0
M  V30 47 H 3.242275 -1.760651 -1.208709 0
M  V30 48 H 1.148293 -0.394021 -0.995474 0
M  V30 49 H 2.664704 0.465295 -1.218371 0
M  V30 50 H -1.108020 -0.030566 -0.977037 0
M  V30 51 H -2.058537 1.519494 -0.869473 0
M  V30 52 H -2.939960 -2.810967 0.127553 0
M  V30 53 H -6.043824 -2.707867 -3.365107 0
M  V30 54 H -5.934344 -4.796336 -4.750533 0
M  V30 55 H -4.362648 -6.547922 -4.211378 0
M  V30 56 H -2.821993 -6.284672 -2.249955 0
M  V30 57 H -3.836894 0.791292 3.430880 0
M  V30 58 H -3.408133 2.598792 0.143014 0
M  V30 59 H -2.726096 3.845976 1.177838 0
M  V30 60 H -1.804372 3.420607 -0.277783 0
M  V30 61 H -2.231339 3.090961 3.073770 0
M  V30 62 H -0.890384 2.015458 3.442293 0
M  V30 63 H -0.674879 3.541416 2.395930 0
M  V30 END ATOM
M  V30 BEGIN BOND
M  V30 1 1 1 2
M  V30 2 1 2 3
M  V30 3 1 3 4
M  V30 4 1 4 5
M  V30 5 1 5 6
M  V30 6 1 6 7
M  V30 7 1 7 8
M  V30 8 1 8 9
M  V30 9 1 9 10
M  V30 10 1 10 11
M  V30 11 1 11 12
M  V30 12 2 12 13
M  V30 13 1 12 14
M  V30 14 1 14 15
M  V30 15 1 15 16
M  V30 16 1 16 17
M  V30 17 1 17 18
M  V30 18 1 18 19
M  V30 19 2 19 20
M  V30 20 1 19 21
M  V30 21 2 21 22
M  V30 22 1 22 23
M  V30 23 2 23 24
M  V30 24 1 24 25
M  V30 25 2 25 26
M  V30 26 2 17 27
M  V30 27 1 27 28
M  V30 28 1 28 29
M  V30 29 1 29 30
M  V30 30 1 30 31
M  V30 31 1 30 32
M  V30 32 1 11 3
M  V30 33 1 30 14
M  V30 34 1 9 5
M  V30 35 2 29 16
M  V30 36 1 26 21
M  V30 37 1 1 33
M  V30 38 1 1 34
M  V30 39 1 1 35
M  V30 40 1 2 36
M  V30 41 1 2 37
M  V30 42 1 3 38 CFG=3
M  V30 43 1 4 39
M  V30 44 1 4 40
M  V30 45 1 6 41
M  V30 46 1 6 42
M  V30 47 1 7 43
M  V30 48 1 7 44
M  V30 49 1 8 45
M  V30 50 1 8 46
M  V30 51 1 9 47 CFG=3
M  V30 52 1 10 48
M  V30 53 1 10 49
M  V30 54 1 15 50
M  V30 55 1 15 51
M  V30 56 1 18 52
M  V30 57 1 22 53
M  V30 58 1 23 54
M  V30 59 1 24 55
M  V30 60 1 25 56
M  V30 61 1 28 57
M  V30 62 1 31 58
M  V30 63 1 31 59
M  V30 64 1 31 60
M  V30 65 1 32 61
M  V30 66 1 32 62
M  V30 67 1 32 63
M  V30 END BOND
M  V30 END CTAB
M  END
>  <Dataset>  (722) 
ChEMBL_Kinases

>  <Ligand_Instance>  (722) 
nan

>  <PDB_ID>  (722) 
nan

>  <Standardized_SMILES>  (722) 
CC[C@H]1CN2CCC[C@H]2CN1C(=O)N1Cc2c(NC(=O)c3ccccn3)n[nH]c2C1(C)C

>  <Name>  (722) 
nan

>  <Pocket>  (722) 
nan

>  <ATP_Site>  (722) 
nan

>  <Peripheral>  (722) 
nan

>  <Num_H_Atoms_ProtBoundConf>  (722) 
nan

>  <Num_Resolved_Atoms>  (722) 
nan

>  <Num_Not_Resolved_Atoms>  (722) 
nan

$$$$
CHEMBL3662781
     RDKit          3D

  0  0  0  0  0  0  0  0  0  0999 V3000
M  V30 BEGIN CTAB
M  V30 COUNTS 64 68 0 0 0
M  V30 BEGIN ATOM
M  V30 1 C 1.742550 -2.497853 0.431589 0
M  V30 2 C 1.185783 -1.250179 -0.213331 0
M  V30 3 C 1.898813 -0.005604 0.292388 0 CFG=1
M  V30 4 C 3.356358 -0.029700 0.005439 0
M  V30 5 N 3.795749 0.385737 -1.250897 0
M  V30 6 C 4.337435 -0.633978 -2.105027 0
M  V30 7 C 3.489480 -0.651768 -3.341500 0
M  V30 8 C 2.617323 0.562611 -3.280577 0
M  V30 9 C 3.024190 1.290380 -1.992227 0 CFG=1
M  V30 10 C 1.883914 1.966762 -1.341802 0
M  V30 11 N 1.302446 1.200592 -0.239060 0
M  V30 12 C 0.104457 1.843555 0.182682 0
M  V30 13 O 0.096444 2.817757 -0.612300 0
M  V30 14 N -0.826143 1.533120 1.176476 0
M  V30 15 C -1.064116 0.520848 2.194795 0
M  V30 16 C -2.514957 0.253714 2.009350 0
M  V30 17 C -3.558867 -0.670865 2.125073 0
M  V30 18 N -3.279644 -1.991089 2.627188 0
M  V30 19 C -2.951704 -2.852904 1.553890 0
M  V30 20 O -2.957215 -2.355965 0.406930 0
M  V30 21 C -2.612530 -4.266146 1.704335 0
M  V30 22 C -2.320241 -4.954229 0.538259 0
M  V30 23 C -1.985070 -6.311422 0.590719 0
M  V30 24 C -1.965713 -6.896981 1.834214 0
M  V30 25 C -2.254147 -6.230538 3.015706 0
M  V30 26 C -2.582000 -4.889535 2.931334 0
M  V30 27 N -4.690579 -0.067269 1.704264 0
M  V30 28 N -4.399970 1.173781 1.337411 0
M  V30 29 C -3.079531 1.408438 1.509015 0
M  V30 30 C -1.967759 2.389233 1.387105 0
M  V30 31 C -2.282214 3.307198 0.250351 0
M  V30 32 C -1.870835 3.097748 2.712759 0
M  V30 33 H 2.649286 -2.873054 -0.091869 0
M  V30 34 H 0.999617 -3.317477 0.475329 0
M  V30 35 H 2.062053 -2.244871 1.470578 0
M  V30 36 H 1.452360 -1.306153 -1.302515 0
M  V30 37 H 0.101817 -1.163744 -0.162372 0
M  V30 38 H 1.820771 -0.059830 1.420113 0
M  V30 39 H 3.756410 -1.063017 0.207157 0
M  V30 40 H 3.875903 0.600813 0.784236 0
M  V30 41 H 5.375268 -0.344383 -2.370644 0
M  V30 42 H 4.402513 -1.622842 -1.607802 0
M  V30 43 H 4.113671 -0.667748 -4.282341 0
M  V30 44 H 2.870264 -1.582739 -3.394770 0
M  V30 45 H 1.534202 0.328691 -3.264365 0
M  V30 46 H 2.790047 1.175671 -4.181986 0
M  V30 47 H 3.729012 2.098910 -2.351243 0
M  V30 48 H 2.207018 2.941677 -0.918997 0
M  V30 49 H 1.092894 2.180930 -2.119629 0
M  V30 50 H -0.449888 -0.375793 2.094683 0
M  V30 51 H -0.912235 0.901943 3.227253 0
M  V30 52 H -3.283857 -2.374225 3.592284 0
M  V30 53 H -2.329915 -4.506260 -0.463677 0
M  V30 54 H -1.756860 -6.847958 -0.321285 0
M  V30 55 H -1.705067 -7.943898 1.852939 0
M  V30 56 H -2.218826 -6.754926 3.954862 0
M  V30 57 H -2.812025 -4.343036 3.835260 0
M  V30 58 H -5.066644 1.888659 0.967223 0
M  V30 59 H -3.351969 3.590354 0.366311 0
M  V30 60 H -1.631596 4.185713 0.151020 0
M  V30 61 H -2.233717 2.719569 -0.689119 0
M  V30 62 H -2.150510 2.483185 3.581547 0
M  V30 63 H -2.537480 4.005663 2.630845 0
M  V30 64 H -0.853759 3.509346 2.900138 0
M  V30 END ATOM
M  V30 BEGIN BOND
M  V30 1 1 1 2
M  V30 2 1 2 3
M  V30 3 1 3 4
M  V30 4 1 4 5
M  V30 5 1 5 6
M  V30 6 1 6 7
M  V30 7 1 7 8
M  V30 8 1 8 9
M  V30 9 1 9 10
M  V30 10 1 10 11
M  V30 11 1 11 12
M  V30 12 2 12 13
M  V30 13 1 12 14
M  V30 14 1 14 15
M  V30 15 1 15 16
M  V30 16 1 16 17
M  V30 17 1 17 18
M  V30 18 1 18 19
M  V30 19 2 19 20
M  V30 20 1 19 21
M  V30 21 2 21 22
M  V30 22 1 22 23
M  V30 23 2 23 24
M  V30 24 1 24 25
M  V30 25 2 25 26
M  V30 26 2 17 27
M  V30 27 1 27 28
M  V30 28 1 28 29
M  V30 29 1 29 30
M  V30 30 1 30 31
M  V30 31 1 30 32
M  V30 32 1 11 3
M  V30 33 1 30 14
M  V30 34 1 9 5
M  V30 35 2 29 16
M  V30 36 1 26 21
M  V30 37 1 1 33
M  V30 38 1 1 34
M  V30 39 1 1 35
M  V30 40 1 2 36
M  V30 41 1 2 37
M  V30 42 1 3 38 CFG=1
M  V30 43 1 4 39
M  V30 44 1 4 40
M  V30 45 1 6 41
M  V30 46 1 6 42
M  V30 47 1 7 43
M  V30 48 1 7 44
M  V30 49 1 8 45
M  V30 50 1 8 46
M  V30 51 1 9 47 CFG=3
M  V30 52 1 10 48
M  V30 53 1 10 49
M  V30 54 1 15 50
M  V30 55 1 15 51
M  V30 56 1 18 52
M  V30 57 1 22 53
M  V30 58 1 23 54
M  V30 59 1 24 55
M  V30 60 1 25 56
M  V30 61 1 26 57
M  V30 62 1 28 58
M  V30 63 1 31 59
M  V30 64 1 31 60
M  V30 65 1 31 61
M  V30 66 1 32 62
M  V30 67 1 32 63
M  V30 68 1 32 64
M  V30 END BOND
M  V30 END CTAB
M  END
>  <Dataset>  (723) 
ChEMBL_Kinases

>  <Ligand_Instance>  (723) 
nan

>  <PDB_ID>  (723) 
nan

>  <Standardized_SMILES>  (723) 
CC[C@H]1CN2CCC[C@H]2CN1C(=O)N1Cc2c(NC(=O)c3ccccc3)n[nH]c2C1(C)C

>  <Name>  (723) 
nan

>  <Pocket>  (723) 
nan

>  <ATP_Site>  (723) 
nan

>  <Peripheral>  (723) 
nan

>  <Num_H_Atoms_ProtBoundConf>  (723) 
nan

>  <Num_Resolved_Atoms>  (723) 
nan

>  <Num_Not_Resolved_Atoms>  (723) 
nan

$$$$
CHEMBL3662780
     RDKit          3D

  0  0  0  0  0  0  0  0  0  0999 V3000
M  V30 BEGIN CTAB
M  V30 COUNTS 60 64 0 0 0
M  V30 BEGIN ATOM
M  V30 1 C 3.888506 1.599264 1.201575 0
M  V30 2 C 2.999243 0.450811 1.624242 0 CFG=1
M  V30 3 C 3.512252 -0.228934 2.863579 0
M  V30 4 N 2.522732 -0.428478 3.873760 0
M  V30 5 C 3.080504 -0.808890 5.150788 0
M  V30 6 C 2.984251 0.395862 6.039157 0
M  V30 7 C 2.178623 1.421555 5.291539 0
M  V30 8 C 1.628744 0.649475 4.085979 0 CFG=1
M  V30 9 C 1.445159 1.588522 2.924720 0
M  V30 10 N 1.612255 0.816999 1.718970 0
M  V30 11 C 0.677074 0.445310 0.764853 0
M  V30 12 O 1.089703 -0.239040 -0.209805 0
M  V30 13 N -0.540646 0.293200 0.068498 0
M  V30 14 C -0.779690 -0.403546 -1.170519 0
M  V30 15 C -1.940672 -1.275025 -0.769508 0
M  V30 16 C -2.607074 -2.474584 -0.914720 0
M  V30 17 N -2.189214 -3.535847 -1.797156 0
M  V30 18 C -2.741090 -3.429612 -3.088078 0
M  V30 19 O -3.502884 -2.412565 -3.221395 0
M  V30 20 C -2.495539 -4.359293 -4.185075 0
M  V30 21 C -3.113256 -4.107291 -5.391416 0
M  V30 22 C -2.928095 -4.945311 -6.483495 0
M  V30 23 Cl -3.707837 -4.638872 -8.025138 0
M  V30 24 C -2.095941 -6.049879 -6.316767 0
M  V30 25 C -1.483581 -6.284821 -5.092784 0
M  V30 26 N -1.701426 -5.438164 -4.073923 0
M  V30 27 N -3.678505 -2.444937 -0.097227 0
M  V30 28 N -3.701966 -1.290371 0.540018 0
M  V30 29 C -2.655194 -0.545408 0.156701 0
M  V30 30 C -1.910171 0.720854 0.276548 0
M  V30 31 C -2.392629 1.678906 -0.775551 0
M  V30 32 C -2.099095 1.373132 1.624928 0
M  V30 33 H 4.914407 1.354345 1.584909 0
M  V30 34 H 3.615585 2.568026 1.616637 0
M  V30 35 H 4.014875 1.626201 0.083112 0
M  V30 36 H 3.085137 -0.300630 0.804700 0
M  V30 37 H 4.307443 0.421086 3.287815 0
M  V30 38 H 3.983728 -1.213318 2.658850 0
M  V30 39 H 2.407360 -1.603870 5.587360 0
M  V30 40 H 4.081762 -1.251278 5.067793 0
M  V30 41 H 2.496102 0.176437 7.027457 0
M  V30 42 H 4.007553 0.748863 6.293119 0
M  V30 43 H 1.356295 1.835601 5.923992 0
M  V30 44 H 2.844512 2.259811 4.932135 0
M  V30 45 H 0.623895 0.282997 4.393582 0
M  V30 46 H 0.403798 1.973610 2.937581 0
M  V30 47 H 2.191172 2.397012 3.061908 0
M  V30 48 H -1.192986 0.353243 -1.871852 0
M  V30 49 H 0.042237 -0.980643 -1.573582 0
M  V30 50 H -1.544899 -4.361283 -1.620624 0
M  V30 51 H -3.751425 -3.245720 -5.488151 0
M  V30 52 H -1.944299 -6.718292 -7.174592 0
M  V30 53 H -0.835299 -7.144429 -4.963292 0
M  V30 54 H -4.422016 -1.019694 1.224358 0
M  V30 55 H -3.052627 2.464773 -0.312923 0
M  V30 56 H -1.541939 2.251904 -1.201233 0
M  V30 57 H -3.017739 1.206970 -1.556201 0
M  V30 58 H -1.610044 2.353238 1.692022 0
M  V30 59 H -1.681482 0.677615 2.390000 0
M  V30 60 H -3.178972 1.449440 1.866691 0
M  V30 END ATOM
M  V30 BEGIN BOND
M  V30 1 1 1 2
M  V30 2 1 2 3
M  V30 3 1 3 4
M  V30 4 1 4 5
M  V30 5 1 5 6
M  V30 6 1 6 7
M  V30 7 1 7 8
M  V30 8 1 8 9
M  V30 9 1 9 10
M  V30 10 1 10 11
M  V30 11 2 11 12
M  V30 12 1 11 13
M  V30 13 1 13 14
M  V30 14 1 14 15
M  V30 15 1 15 16
M  V30 16 1 16 17
M  V30 17 1 17 18
M  V30 18 2 18 19
M  V30 19 1 18 20
M  V30 20 2 20 21
M  V30 21 1 21 22
M  V30 22 1 22 23
M  V30 23 2 22 24
M  V30 24 1 24 25
M  V30 25 2 25 26
M  V30 26 2 16 27
M  V30 27 1 27 28
M  V30 28 1 28 29
M  V30 29 1 29 30
M  V30 30 1 30 31
M  V30 31 1 30 32
M  V30 32 1 10 2
M  V30 33 1 30 13
M  V30 34 1 8 4
M  V30 35 2 29 15
M  V30 36 1 26 20
M  V30 37 1 1 33
M  V30 38 1 1 34
M  V30 39 1 1 35
M  V30 40 1 2 36 CFG=3
M  V30 41 1 3 37
M  V30 42 1 3 38
M  V30 43 1 5 39
M  V30 44 1 5 40
M  V30 45 1 6 41
M  V30 46 1 6 42
M  V30 47 1 7 43
M  V30 48 1 7 44
M  V30 49 1 8 45 CFG=1
M  V30 50 1 9 46
M  V30 51 1 9 47
M  V30 52 1 14 48
M  V30 53 1 14 49
M  V30 54 1 17 50
M  V30 55 1 21 51
M  V30 56 1 24 52
M  V30 57 1 25 53
M  V30 58 1 28 54
M  V30 59 1 31 55
M  V30 60 1 31 56
M  V30 61 1 31 57
M  V30 62 1 32 58
M  V30 63 1 32 59
M  V30 64 1 32 60
M  V30 END BOND
M  V30 END CTAB
M  END
>  <Dataset>  (724) 
ChEMBL_Kinases

>  <Ligand_Instance>  (724) 
nan

>  <PDB_ID>  (724) 
nan

>  <Standardized_SMILES>  (724) 
C[C@H]1CN2CCC[C@H]2CN1C(=O)N1Cc2c(NC(=O)c3cc(Cl)ccn3)n[nH]c2C1(C)C

>  <Name>  (724) 
nan

>  <Pocket>  (724) 
nan

>  <ATP_Site>  (724) 
nan

>  <Peripheral>  (724) 
nan

>  <Num_H_Atoms_ProtBoundConf>  (724) 
nan

>  <Num_Resolved_Atoms>  (724) 
nan

>  <Num_Not_Resolved_Atoms>  (724) 
nan

$$$$
CHEMBL3662779
     RDKit          3D

  0  0  0  0  0  0  0  0  0  0999 V3000
M  V30 BEGIN CTAB
M  V30 COUNTS 60 64 0 0 0
M  V30 BEGIN ATOM
M  V30 1 C 2.565983 0.270377 -0.111852 0
M  V30 2 C 2.155531 -0.472359 1.140890 0 CFG=1
M  V30 3 C 3.300870 -1.231859 1.717033 0
M  V30 4 N 3.401631 -1.218360 3.134036 0
M  V30 5 C 4.618810 -1.748850 3.653880 0
M  V30 6 C 5.243311 -0.679179 4.523712 0
M  V30 7 C 4.473384 0.565613 4.134232 0
M  V30 8 C 3.116505 -0.034856 3.815559 0 CFG=1
M  V30 9 C 2.169627 0.936814 3.228165 0
M  V30 10 N 1.532720 0.446701 2.056462 0
M  V30 11 C 0.230308 0.877420 1.762945 0
M  V30 12 O 0.095576 1.622081 2.748943 0
M  V30 13 N -0.766927 0.678439 0.770921 0
M  V30 14 C -1.056637 -0.034471 -0.477974 0
M  V30 15 C -2.348260 -0.672990 -0.172780 0
M  V30 16 C -3.203411 -1.745096 -0.357393 0
M  V30 17 N -2.927220 -2.893639 -1.186126 0
M  V30 18 C -3.394495 -2.645122 -2.503082 0
M  V30 19 O -3.935479 -1.513518 -2.673445 0
M  V30 20 C -3.256833 -3.632576 -3.581744 0
M  V30 21 C -3.751636 -3.272206 -4.815839 0
M  V30 22 C -3.675581 -4.128234 -5.908773 0
M  V30 23 C -3.077030 -5.348440 -5.672294 0
M  V30 24 Cl -2.960598 -6.460372 -7.025314 0
M  V30 25 C -2.571919 -5.725758 -4.427705 0
M  V30 26 N -2.679837 -4.846462 -3.413855 0
M  V30 27 N -4.318647 -1.492349 0.382468 0
M  V30 28 N -4.172042 -0.323633 0.999227 0
M  V30 29 C -2.986561 0.199090 0.682952 0
M  V30 30 C -2.047637 1.360081 0.878050 0
M  V30 31 C -2.260633 2.339729 -0.229329 0
M  V30 32 C -2.311277 1.947462 2.237680 0
M  V30 33 H 3.158335 -0.447072 -0.753076 0
M  V30 34 H 3.283386 1.088064 0.107529 0
M  V30 35 H 1.725740 0.733774 -0.635502 0
M  V30 36 H 1.385835 -1.208574 0.837124 0
M  V30 37 H 4.237666 -0.793989 1.308198 0
M  V30 38 H 3.297959 -2.293676 1.389424 0
M  V30 39 H 5.307327 -2.132801 2.892775 0
M  V30 40 H 4.360761 -2.597544 4.339557 0
M  V30 41 H 5.036466 -0.853977 5.609259 0
M  V30 42 H 6.317487 -0.561114 4.327820 0
M  V30 43 H 4.352292 1.260951 4.991360 0
M  V30 44 H 4.915301 1.125102 3.310086 0
M  V30 45 H 2.715137 -0.331947 4.832246 0
M  V30 46 H 1.424458 1.243790 3.992164 0
M  V30 47 H 2.803748 1.827346 2.923361 0
M  V30 48 H -1.212708 0.699534 -1.323166 0
M  V30 49 H -0.276257 -0.733975 -0.780458 0
M  V30 50 H -2.476375 -3.812577 -1.007505 0
M  V30 51 H -4.221659 -2.307854 -4.992419 0
M  V30 52 H -4.065310 -3.829772 -6.856451 0
M  V30 53 H -2.104101 -6.682125 -4.247970 0
M  V30 54 H -4.888347 0.094050 1.626461 0
M  V30 55 H -2.812008 3.239941 0.118061 0
M  V30 56 H -2.849413 1.867126 -1.040708 0
M  V30 57 H -1.265993 2.610570 -0.650863 0
M  V30 58 H -3.413324 2.202025 2.234062 0
M  V30 59 H -1.806298 2.909349 2.366916 0
M  V30 60 H -2.175024 1.216931 3.036934 0
M  V30 END ATOM
M  V30 BEGIN BOND
M  V30 1 1 1 2
M  V30 2 1 2 3
M  V30 3 1 3 4
M  V30 4 1 4 5
M  V30 5 1 5 6
M  V30 6 1 6 7
M  V30 7 1 7 8
M  V30 8 1 8 9
M  V30 9 1 9 10
M  V30 10 1 10 11
M  V30 11 2 11 12
M  V30 12 1 11 13
M  V30 13 1 13 14
M  V30 14 1 14 15
M  V30 15 1 15 16
M  V30 16 1 16 17
M  V30 17 1 17 18
M  V30 18 2 18 19
M  V30 19 1 18 20
M  V30 20 2 20 21
M  V30 21 1 21 22
M  V30 22 2 22 23
M  V30 23 1 23 24
M  V30 24 1 23 25
M  V30 25 2 25 26
M  V30 26 2 16 27
M  V30 27 1 27 28
M  V30 28 1 28 29
M  V30 29 1 29 30
M  V30 30 1 30 31
M  V30 31 1 30 32
M  V30 32 1 10 2
M  V30 33 1 30 13
M  V30 34 1 8 4
M  V30 35 2 29 15
M  V30 36 1 26 20
M  V30 37 1 1 33
M  V30 38 1 1 34
M  V30 39 1 1 35
M  V30 40 1 2 36 CFG=3
M  V30 41 1 3 37
M  V30 42 1 3 38
M  V30 43 1 5 39
M  V30 44 1 5 40
M  V30 45 1 6 41
M  V30 46 1 6 42
M  V30 47 1 7 43
M  V30 48 1 7 44
M  V30 49 1 8 45 CFG=1
M  V30 50 1 9 46
M  V30 51 1 9 47
M  V30 52 1 14 48
M  V30 53 1 14 49
M  V30 54 1 17 50
M  V30 55 1 21 51
M  V30 56 1 22 52
M  V30 57 1 25 53
M  V30 58 1 28 54
M  V30 59 1 31 55
M  V30 60 1 31 56
M  V30 61 1 31 57
M  V30 62 1 32 58
M  V30 63 1 32 59
M  V30 64 1 32 60
M  V30 END BOND
M  V30 END CTAB
M  END
>  <Dataset>  (725) 
ChEMBL_Kinases

>  <Ligand_Instance>  (725) 
nan

>  <PDB_ID>  (725) 
nan

>  <Standardized_SMILES>  (725) 
C[C@H]1CN2CCC[C@H]2CN1C(=O)N1Cc2c(NC(=O)c3ccc(Cl)cn3)n[nH]c2C1(C)C

>  <Name>  (725) 
nan

>  <Pocket>  (725) 
nan

>  <ATP_Site>  (725) 
nan

>  <Peripheral>  (725) 
nan

>  <Num_H_Atoms_ProtBoundConf>  (725) 
nan

>  <Num_Resolved_Atoms>  (725) 
nan

>  <Num_Not_Resolved_Atoms>  (725) 
nan

$$$$
CHEMBL3662778
     RDKit          3D

  0  0  0  0  0  0  0  0  0  0999 V3000
M  V30 BEGIN CTAB
M  V30 COUNTS 62 66 0 0 0
M  V30 BEGIN ATOM
M  V30 1 C 4.099084 -0.254976 -1.469447 0
M  V30 2 C 3.481522 -0.946663 -0.310112 0 CFG=1
M  V30 3 C 4.403664 -0.920330 0.920954 0
M  V30 4 N 3.625347 -0.499714 2.024139 0
M  V30 5 C 4.276155 -0.173436 3.233131 0
M  V30 6 C 3.087607 0.042867 4.179020 0
M  V30 7 C 1.868872 -0.528253 3.444010 0
M  V30 8 C 2.502995 -1.321203 2.334458 0 CFG=1
M  V30 9 C 1.665065 -1.457586 1.101692 0
M  V30 10 N 2.140544 -0.540760 0.045441 0
M  V30 11 C 1.391317 0.561581 -0.507189 0
M  V30 12 O 2.102569 1.127385 -1.405687 0
M  V30 13 N 0.087685 1.083760 -0.236096 0
M  V30 14 C -1.118320 0.937487 0.586311 0
M  V30 15 C -2.161612 0.809705 -0.440062 0
M  V30 16 C -3.361527 0.244469 -0.848729 0
M  V30 17 N -4.129949 -0.687702 -0.071241 0
M  V30 18 C -3.719555 -2.015453 -0.367839 0
M  V30 19 O -2.786493 -1.951506 -1.242522 0
M  V30 20 C -4.209826 -3.250231 0.169819 0
M  V30 21 C -3.608643 -4.398859 -0.316864 0
M  V30 22 C -3.980609 -5.653176 0.111591 0
M  V30 23 C -4.971817 -5.848614 1.049400 0
M  V30 24 C -5.403170 -7.120193 1.534399 0
M  V30 25 N -5.745650 -8.158045 1.909993 0
M  V30 26 C -5.585674 -4.719945 1.549207 0
M  V30 27 C -5.193468 -3.477984 1.102663 0
M  V30 28 F -5.795179 -2.370593 1.592551 0
M  V30 29 N -3.629150 0.739866 -2.072545 0
M  V30 30 N -2.672156 1.574820 -2.446975 0
M  V30 31 C -1.755341 1.636860 -1.461038 0
M  V30 32 C -0.453103 2.215448 -0.963240 0
M  V30 33 C 0.337164 2.590368 -2.194049 0
M  V30 34 C -0.797273 3.398169 -0.118421 0
M  V30 35 H 4.358270 0.796641 -1.306902 0
M  V30 36 H 3.474597 -0.426093 -2.369085 0
M  V30 37 H 5.067079 -0.786191 -1.664248 0
M  V30 38 H 3.407360 -2.046903 -0.582242 0
M  V30 39 H 5.132722 -0.083317 0.709901 0
M  V30 40 H 4.955421 -1.855652 1.027627 0
M  V30 41 H 4.960092 -0.943057 3.635597 0
M  V30 42 H 4.811828 0.792719 3.117797 0
M  V30 43 H 3.236105 -0.451633 5.152785 0
M  V30 44 H 2.909435 1.141451 4.289103 0
M  V30 45 H 1.194906 0.277743 3.090229 0
M  V30 46 H 1.280743 -1.157377 4.139888 0
M  V30 47 H 2.760477 -2.309352 2.758266 0
M  V30 48 H 0.598720 -1.426748 1.267348 0
M  V30 49 H 1.858804 -2.493752 0.685137 0
M  V30 50 H -1.254678 1.888507 1.187820 0
M  V30 51 H -1.090693 0.133874 1.307999 0
M  V30 52 H -4.889891 -0.563775 0.629717 0
M  V30 53 H -2.811906 -4.358379 -1.063137 0
M  V30 54 H -3.491560 -6.524418 -0.288412 0
M  V30 55 H -6.375178 -4.756532 2.288452 0
M  V30 56 H -2.582577 2.122107 -3.336952 0
M  V30 57 H 1.234917 3.174980 -1.994850 0
M  V30 58 H -0.345726 3.310460 -2.748454 0
M  V30 59 H 0.420594 1.732302 -2.855578 0
M  V30 60 H -0.591441 4.330236 -0.720019 0
M  V30 61 H -0.143176 3.507329 0.767576 0
M  V30 62 H -1.877501 3.485028 0.141623 0
M  V30 END ATOM
M  V30 BEGIN BOND
M  V30 1 1 1 2
M  V30 2 1 2 3
M  V30 3 1 3 4
M  V30 4 1 4 5
M  V30 5 1 5 6
M  V30 6 1 6 7
M  V30 7 1 7 8
M  V30 8 1 8 9
M  V30 9 1 9 10
M  V30 10 1 10 11
M  V30 11 2 11 12
M  V30 12 1 11 13
M  V30 13 1 13 14
M  V30 14 1 14 15
M  V30 15 1 15 16
M  V30 16 1 16 17
M  V30 17 1 17 18
M  V30 18 2 18 19
M  V30 19 1 18 20
M  V30 20 2 20 21
M  V30 21 1 21 22
M  V30 22 2 22 23
M  V30 23 1 23 24
M  V30 24 3 24 25
M  V30 25 1 23 26
M  V30 26 2 26 27
M  V30 27 1 27 28
M  V30 28 2 16 29
M  V30 29 1 29 30
M  V30 30 1 30 31
M  V30 31 1 31 32
M  V30 32 1 32 33
M  V30 33 1 32 34
M  V30 34 1 10 2
M  V30 35 1 32 13
M  V30 36 1 8 4
M  V30 37 2 31 15
M  V30 38 1 27 20
M  V30 39 1 1 35
M  V30 40 1 1 36
M  V30 41 1 1 37
M  V30 42 1 2 38 CFG=3
M  V30 43 1 3 39
M  V30 44 1 3 40
M  V30 45 1 5 41
M  V30 46 1 5 42
M  V30 47 1 6 43
M  V30 48 1 6 44
M  V30 49 1 7 45
M  V30 50 1 7 46
M  V30 51 1 8 47 CFG=1
M  V30 52 1 9 48
M  V30 53 1 9 49
M  V30 54 1 14 50
M  V30 55 1 14 51
M  V30 56 1 17 52
M  V30 57 1 21 53
M  V30 58 1 22 54
M  V30 59 1 26 55
M  V30 60 1 30 56
M  V30 61 1 33 57
M  V30 62 1 33 58
M  V30 63 1 33 59
M  V30 64 1 34 60
M  V30 65 1 34 61
M  V30 66 1 34 62
M  V30 END BOND
M  V30 END CTAB
M  END
>  <Dataset>  (726) 
ChEMBL_Kinases

>  <Ligand_Instance>  (726) 
nan

>  <PDB_ID>  (726) 
nan

>  <Standardized_SMILES>  (726) 
C[C@H]1CN2CCC[C@H]2CN1C(=O)N1Cc2c(NC(=O)c3ccc(C#N)cc3F)n[nH]c2C1(C)C

>  <Name>  (726) 
nan

>  <Pocket>  (726) 
nan

>  <ATP_Site>  (726) 
nan

>  <Peripheral>  (726) 
nan

>  <Num_H_Atoms_ProtBoundConf>  (726) 
nan

>  <Num_Resolved_Atoms>  (726) 
nan

>  <Num_Not_Resolved_Atoms>  (726) 
nan

$$$$
CHEMBL3662777
     RDKit          3D

  0  0  0  0  0  0  0  0  0  0999 V3000
M  V30 BEGIN CTAB
M  V30 COUNTS 64 68 0 0 0
M  V30 BEGIN ATOM
M  V30 1 C 4.380423 -2.394361 6.121458 0
M  V30 2 C 4.951530 -1.427533 5.119978 0
M  V30 3 C 6.297967 -1.241164 5.002091 0
M  V30 4 C 6.742537 -0.334578 4.057980 0
M  V30 5 C 5.805825 0.346505 3.271517 0
M  V30 6 C 4.466672 0.165462 3.384114 0
M  V30 7 C 3.554522 0.915230 2.526416 0
M  V30 8 O 4.115461 1.713060 1.711370 0
M  V30 9 N 2.143177 0.783393 2.576849 0
M  V30 10 C 1.258275 1.517192 1.738168 0
M  V30 11 N 0.710391 2.732198 2.020383 0
M  V30 12 N -0.067007 3.102221 0.994431 0
M  V30 13 C -0.022222 2.122010 0.043591 0
M  V30 14 C 0.806299 1.119831 0.496522 0
M  V30 15 C 0.815576 0.090732 -0.574988 0
M  V30 16 N -0.446004 0.273528 -1.265645 0
M  V30 17 C -1.451338 -0.541210 -1.828527 0
M  V30 18 O -0.457168 -1.093429 -1.300057 0
M  V30 19 N -2.174454 -1.656393 -2.244431 0
M  V30 20 C -3.430376 -1.327728 -2.919279 0
M  V30 21 C -4.626871 -1.787134 -2.122956 0 CFG=2
M  V30 22 C -4.887974 -0.775609 -1.035085 0
M  V30 23 C -5.291972 -1.603564 0.180325 0
M  V30 24 C -4.664765 -2.959135 -0.095047 0
M  V30 25 N -4.426387 -3.053255 -1.487412 0
M  V30 26 C -3.323615 -3.802064 -1.935704 0
M  V30 27 C -2.051699 -3.088776 -2.209061 0 CFG=2
M  V30 28 C -0.942470 -3.539614 -1.263547 0
M  V30 29 C -0.535002 1.729453 -1.300422 0
M  V30 30 C -1.990294 2.121651 -1.452319 0
M  V30 31 C 0.311316 2.361986 -2.352107 0
M  V30 32 C 4.042893 -0.746528 4.335246 0
M  V30 33 H 3.611034 -2.980890 5.577529 0
M  V30 34 H 3.811631 -1.822283 6.912273 0
M  V30 35 H 5.133744 -3.056266 6.556484 0
M  V30 36 H 6.949201 -1.809458 5.650023 0
M  V30 37 H 7.805907 -0.166431 3.942696 0
M  V30 38 H 6.234970 1.026818 2.568855 0
M  V30 39 H 1.710532 0.120256 3.257385 0
M  V30 40 H -0.608890 3.996921 0.949888 0
M  V30 41 H 1.694156 0.351075 -1.219342 0
M  V30 42 H 0.992673 -0.915018 -0.179424 0
M  V30 43 H -3.561341 -0.263341 -3.129730 0
M  V30 44 H -3.408539 -1.833170 -3.929166 0
M  V30 45 H -5.493006 -1.872502 -2.809736 0
M  V30 46 H -3.961814 -0.197803 -0.790671 0
M  V30 47 H -5.677782 -0.046522 -1.321555 0
M  V30 48 H -6.392352 -1.682848 0.284239 0
M  V30 49 H -4.875094 -1.184860 1.124355 0
M  V30 50 H -3.781166 -3.168185 0.541582 0
M  V30 51 H -5.419676 -3.733098 0.177248 0
M  V30 52 H -3.113270 -4.594489 -1.159095 0
M  V30 53 H -3.672676 -4.417175 -2.817291 0
M  V30 54 H -1.730896 -3.377775 -3.254629 0
M  V30 55 H 0.015722 -3.306570 -1.755282 0
M  V30 56 H -0.955889 -4.664203 -1.209264 0
M  V30 57 H -1.003993 -3.082663 -0.273423 0
M  V30 58 H -2.131680 3.218581 -1.400536 0
M  V30 59 H -2.423868 1.688587 -2.364365 0
M  V30 60 H -2.538598 1.707070 -0.583867 0
M  V30 61 H -0.318451 2.490483 -3.280719 0
M  V30 62 H 0.518422 3.408676 -2.025781 0
M  V30 63 H 1.209192 1.782711 -2.559117 0
M  V30 64 H 2.979022 -0.923384 4.460299 0
M  V30 END ATOM
M  V30 BEGIN BOND
M  V30 1 1 1 2
M  V30 2 2 2 3
M  V30 3 1 3 4
M  V30 4 2 4 5
M  V30 5 1 5 6
M  V30 6 1 6 7
M  V30 7 2 7 8
M  V30 8 1 7 9
M  V30 9 1 9 10
M  V30 10 2 10 11
M  V30 11 1 11 12
M  V30 12 1 12 13
M  V30 13 2 13 14
M  V30 14 1 14 15
M  V30 15 1 15 16
M  V30 16 1 16 17
M  V30 17 2 17 18
M  V30 18 1 17 19
M  V30 19 1 19 20
M  V30 20 1 20 21
M  V30 21 1 21 22
M  V30 22 1 22 23
M  V30 23 1 23 24
M  V30 24 1 24 25
M  V30 25 1 25 26
M  V30 26 1 26 27
M  V30 27 1 27 28
M  V30 28 1 16 29
M  V30 29 1 29 30
M  V30 30 1 29 31
M  V30 31 2 6 32
M  V30 32 1 32 2
M  V30 33 1 14 10
M  V30 34 1 27 19
M  V30 35 1 29 13
M  V30 36 1 25 21
M  V30 37 1 1 33
M  V30 38 1 1 34
M  V30 39 1 1 35
M  V30 40 1 3 36
M  V30 41 1 4 37
M  V30 42 1 5 38
M  V30 43 1 9 39
M  V30 44 1 12 40
M  V30 45 1 15 41
M  V30 46 1 15 42
M  V30 47 1 20 43
M  V30 48 1 20 44
M  V30 49 1 21 45 CFG=3
M  V30 50 1 22 46
M  V30 51 1 22 47
M  V30 52 1 23 48
M  V30 53 1 23 49
M  V30 54 1 24 50
M  V30 55 1 24 51
M  V30 56 1 26 52
M  V30 57 1 26 53
M  V30 58 1 27 54 CFG=3
M  V30 59 1 28 55
M  V30 60 1 28 56
M  V30 61 1 28 57
M  V30 62 1 30 58
M  V30 63 1 30 59
M  V30 64 1 30 60
M  V30 65 1 31 61
M  V30 66 1 31 62
M  V30 67 1 31 63
M  V30 68 1 32 64
M  V30 END BOND
M  V30 END CTAB
M  END
>  <Dataset>  (727) 
ChEMBL_Kinases

>  <Ligand_Instance>  (727) 
nan

>  <PDB_ID>  (727) 
nan

>  <Standardized_SMILES>  (727) 
Cc1cccc(C(=O)Nc2n[nH]c3c2CN(C(=O)N2C[C@@H]4CCCN4C[C@@H]2C)C3(C)C)c1

>  <Name>  (727) 
nan

>  <Pocket>  (727) 
nan

>  <ATP_Site>  (727) 
nan

>  <Peripheral>  (727) 
nan

>  <Num_H_Atoms_ProtBoundConf>  (727) 
nan

>  <Num_Resolved_Atoms>  (727) 
nan

>  <Num_Not_Resolved_Atoms>  (727) 
nan

$$$$
CHEMBL3662776
     RDKit          3D

  0  0  0  0  0  0  0  0  0  0999 V3000
M  V30 BEGIN CTAB
M  V30 COUNTS 61 65 0 0 0
M  V30 BEGIN ATOM
M  V30 1 C 0.952650 -0.842354 2.411181 0
M  V30 2 C 2.228683 -1.104657 1.639103 0 CFG=1
M  V30 3 C 2.419995 -2.604967 1.638951 0
M  V30 4 N 3.390149 -3.015242 0.641778 0
M  V30 5 C 4.395714 -3.904983 1.139734 0
M  V30 6 C 5.510868 -3.797693 0.103287 0
M  V30 7 C 5.189382 -2.549538 -0.686148 0
M  V30 8 C 4.173772 -1.864487 0.239335 0 CFG=1
M  V30 9 C 3.276758 -0.947788 -0.565392 0
M  V30 10 N 2.178714 -0.545681 0.290694 0
M  V30 11 C 1.392866 0.301741 -0.532494 0
M  V30 12 O 2.158024 0.173840 -1.520685 0
M  V30 13 N 0.217795 1.081539 -0.512313 0
M  V30 14 C -0.900876 1.507997 0.321004 0
M  V30 15 C -2.057346 1.227598 -0.528212 0
M  V30 16 C -3.396578 0.845644 -0.598275 0
M  V30 17 N -4.227854 0.535773 0.522412 0
M  V30 18 C -4.157262 -0.832088 0.839600 0
M  V30 19 O -3.353629 -1.388974 0.009542 0
M  V30 20 C -4.827581 -1.552962 1.882662 0
M  V30 21 C -4.542647 -2.921655 1.945064 0
M  V30 22 C -5.116653 -3.732776 2.897719 0
M  V30 23 C -5.999185 -3.257092 3.841781 0
M  V30 24 C -6.294385 -1.911057 3.798825 0
M  V30 25 F -7.145467 -1.309657 4.665676 0
M  V30 26 C -5.712829 -1.110562 2.840046 0
M  V30 27 F -5.994733 0.205475 2.789489 0
M  V30 28 N -3.749284 0.826063 -1.905064 0
M  V30 29 N -2.712033 1.172622 -2.657541 0
M  V30 30 C -1.666433 1.422569 -1.835782 0
M  V30 31 C -0.224013 1.827445 -1.666626 0
M  V30 32 C -0.276321 3.320160 -1.440915 0
M  V30 33 C 0.556887 1.485937 -2.920569 0
M  V30 34 H 0.116486 -1.191734 1.771879 0
M  V30 35 H 0.995099 -1.474300 3.320764 0
M  V30 36 H 0.854761 0.226618 2.686356 0
M  V30 37 H 3.109031 -0.625019 2.136271 0
M  V30 38 H 2.715699 -2.887660 2.670654 0
M  V30 39 H 1.457192 -3.055836 1.321547 0
M  V30 40 H 4.808452 -3.644191 2.114059 0
M  V30 41 H 4.005951 -4.952226 1.095919 0
M  V30 42 H 6.507235 -3.705125 0.582185 0
M  V30 43 H 5.522177 -4.690962 -0.574897 0
M  V30 44 H 4.609445 -2.827517 -1.591676 0
M  V30 45 H 6.061371 -1.913208 -0.897684 0
M  V30 46 H 4.670304 -1.378121 1.082459 0
M  V30 47 H 2.932389 -1.564472 -1.434647 0
M  V30 48 H 3.929810 -0.103258 -0.879738 0
M  V30 49 H -0.730618 2.602601 0.523029 0
M  V30 50 H -0.931170 1.038355 1.307823 0
M  V30 51 H -4.845909 1.139324 1.109084 0
M  V30 52 H -3.859893 -3.389989 1.245445 0
M  V30 53 H -4.871748 -4.785436 2.914190 0
M  V30 54 H -6.480686 -3.841575 4.611639 0
M  V30 55 H -2.600348 1.268731 -3.676287 0
M  V30 56 H -1.246681 3.701921 -1.109700 0
M  V30 57 H 0.022654 3.791183 -2.422526 0
M  V30 58 H 0.514711 3.596235 -0.744546 0
M  V30 59 H 0.491709 0.399816 -3.118942 0
M  V30 60 H 1.556348 1.914630 -2.929621 0
M  V30 61 H -0.028728 1.950409 -3.765476 0
M  V30 END ATOM
M  V30 BEGIN BOND
M  V30 1 1 1 2
M  V30 2 1 2 3
M  V30 3 1 3 4
M  V30 4 1 4 5
M  V30 5 1 5 6
M  V30 6 1 6 7
M  V30 7 1 7 8
M  V30 8 1 8 9
M  V30 9 1 9 10
M  V30 10 1 10 11
M  V30 11 2 11 12
M  V30 12 1 11 13
M  V30 13 1 13 14
M  V30 14 1 14 15
M  V30 15 1 15 16
M  V30 16 1 16 17
M  V30 17 1 17 18
M  V30 18 2 18 19
M  V30 19 1 18 20
M  V30 20 2 20 21
M  V30 21 1 21 22
M  V30 22 2 22 23
M  V30 23 1 23 24
M  V30 24 1 24 25
M  V30 25 2 24 26
M  V30 26 1 26 27
M  V30 27 2 16 28
M  V30 28 1 28 29
M  V30 29 1 29 30
M  V30 30 1 30 31
M  V30 31 1 31 32
M  V30 32 1 31 33
M  V30 33 1 10 2
M  V30 34 1 31 13
M  V30 35 1 8 4
M  V30 36 2 30 15
M  V30 37 1 26 20
M  V30 38 1 1 34
M  V30 39 1 1 35
M  V30 40 1 1 36
M  V30 41 1 2 37 CFG=1
M  V30 42 1 3 38
M  V30 43 1 3 39
M  V30 44 1 5 40
M  V30 45 1 5 41
M  V30 46 1 6 42
M  V30 47 1 6 43
M  V30 48 1 7 44
M  V30 49 1 7 45
M  V30 50 1 8 46 CFG=1
M  V30 51 1 9 47
M  V30 52 1 9 48
M  V30 53 1 14 49
M  V30 54 1 14 50
M  V30 55 1 17 51
M  V30 56 1 21 52
M  V30 57 1 22 53
M  V30 58 1 23 54
M  V30 59 1 29 55
M  V30 60 1 32 56
M  V30 61 1 32 57
M  V30 62 1 32 58
M  V30 63 1 33 59
M  V30 64 1 33 60
M  V30 65 1 33 61
M  V30 END BOND
M  V30 END CTAB
M  END
>  <Dataset>  (728) 
ChEMBL_Kinases

>  <Ligand_Instance>  (728) 
nan

>  <PDB_ID>  (728) 
nan

>  <Standardized_SMILES>  (728) 
C[C@H]1CN2CCC[C@H]2CN1C(=O)N1Cc2c(NC(=O)c3cccc(F)c3F)n[nH]c2C1(C)C

>  <Name>  (728) 
nan

>  <Pocket>  (728) 
nan

>  <ATP_Site>  (728) 
nan

>  <Peripheral>  (728) 
nan

>  <Num_H_Atoms_ProtBoundConf>  (728) 
nan

>  <Num_Resolved_Atoms>  (728) 
nan

>  <Num_Not_Resolved_Atoms>  (728) 
nan

$$$$
CHEMBL3662775
     RDKit          3D

  0  0  0  0  0  0  0  0  0  0999 V3000
M  V30 BEGIN CTAB
M  V30 COUNTS 64 68 0 0 0
M  V30 BEGIN ATOM
M  V30 1 C 8.727088 -0.907244 1.638772 0
M  V30 2 C 7.540457 -1.573326 2.229201 0
M  V30 3 C 6.431779 -1.691402 1.440456 0
M  V30 4 C 5.326664 -2.317102 2.006169 0
M  V30 5 C 4.028693 -2.562176 1.364293 0
M  V30 6 O 3.024957 -3.129466 1.869985 0
M  V30 7 N 3.754630 -2.160334 0.023642 0
M  V30 8 C 2.425945 -2.524879 -0.335394 0
M  V30 9 N 2.173225 -3.725722 -0.898134 0
M  V30 10 N 0.891586 -3.863057 -1.148729 0
M  V30 11 C 0.259719 -2.753508 -0.757213 0
M  V30 12 C 1.206318 -1.898129 -0.242652 0
M  V30 13 C 0.640281 -0.604565 0.235545 0
M  V30 14 N -0.776220 -0.830661 -0.095228 0
M  V30 15 C -1.492873 0.338977 0.265499 0
M  V30 16 O -0.418336 0.841376 0.671191 0
M  V30 17 N -2.826858 0.803766 0.217868 0
M  V30 18 C -3.993679 0.106097 -0.283670 0
M  V30 19 C -5.205357 0.791992 0.365819 0 CFG=2
M  V30 20 C -6.484942 0.103511 -0.050434 0
M  V30 21 C -6.984940 0.917287 -1.224764 0
M  V30 22 C -5.970047 2.014045 -1.453543 0
M  V30 23 N -5.277439 2.091232 -0.215507 0
M  V30 24 C -4.059469 2.829388 -0.242608 0
M  V30 25 C -3.086964 2.132537 0.720404 0 CFG=2
M  V30 26 C -1.854995 2.969692 0.930057 0
M  V30 27 C -1.086546 -2.135432 -0.682217 0
M  V30 28 C -1.902093 -2.948754 0.314457 0
M  V30 29 C -1.743763 -2.046385 -2.024178 0
M  V30 30 C 5.366492 -2.796502 3.321633 0
M  V30 31 C 6.517829 -2.657581 4.097535 0
M  V30 32 C 7.590955 -2.040412 3.522634 0
M  V30 33 F 8.709086 -1.906437 4.279746 0
M  V30 34 H 8.729286 0.184571 1.748010 0
M  V30 35 H 8.809142 -1.126647 0.542366 0
M  V30 36 H 9.624034 -1.334952 2.130603 0
M  V30 37 H 6.301458 -1.363183 0.438756 0
M  V30 38 H 4.502679 -1.664680 -0.545948 0
M  V30 39 H 0.414387 -4.699128 -1.585217 0
M  V30 40 H 0.779885 -0.528263 1.324769 0
M  V30 41 H 1.074584 0.244600 -0.334581 0
M  V30 42 H -4.085038 0.112645 -1.380178 0
M  V30 43 H -3.963277 -0.947027 0.112678 0
M  V30 44 H -5.097668 0.744003 1.449906 0
M  V30 45 H -6.347210 -0.960575 -0.259291 0
M  V30 46 H -7.223273 0.212486 0.771653 0
M  V30 47 H -7.045725 0.231084 -2.096730 0
M  V30 48 H -7.979694 1.374954 -1.052755 0
M  V30 49 H -5.242495 1.627569 -2.221156 0
M  V30 50 H -6.443209 2.962519 -1.771372 0
M  V30 51 H -3.659827 2.861991 -1.268060 0
M  V30 52 H -4.185993 3.890607 0.108739 0
M  V30 53 H -3.641703 2.134512 1.697538 0
M  V30 54 H -1.142821 2.964214 0.103341 0
M  V30 55 H -1.348594 2.614486 1.849497 0
M  V30 56 H -2.220873 3.994158 1.181545 0
M  V30 57 H -2.913376 -3.201471 -0.128231 0
M  V30 58 H -1.399971 -3.903501 0.532748 0
M  V30 59 H -2.100046 -2.342999 1.205637 0
M  V30 60 H -2.212112 -1.093426 -2.267326 0
M  V30 61 H -0.916766 -2.173519 -2.784428 0
M  V30 62 H -2.376757 -2.943593 -2.153039 0
M  V30 63 H 4.536742 -3.290701 3.812462 0
M  V30 64 H 6.533513 -3.032939 5.111147 0
M  V30 END ATOM
M  V30 BEGIN BOND
M  V30 1 1 1 2
M  V30 2 2 2 3
M  V30 3 1 3 4
M  V30 4 1 4 5
M  V30 5 2 5 6
M  V30 6 1 5 7
M  V30 7 1 7 8
M  V30 8 2 8 9
M  V30 9 1 9 10
M  V30 10 1 10 11
M  V30 11 2 11 12
M  V30 12 1 12 13
M  V30 13 1 13 14
M  V30 14 1 14 15
M  V30 15 2 15 16
M  V30 16 1 15 17
M  V30 17 1 17 18
M  V30 18 1 18 19
M  V30 19 1 19 20
M  V30 20 1 20 21
M  V30 21 1 21 22
M  V30 22 1 22 23
M  V30 23 1 23 24
M  V30 24 1 24 25
M  V30 25 1 25 26
M  V30 26 1 14 27
M  V30 27 1 27 28
M  V30 28 1 27 29
M  V30 29 2 4 30
M  V30 30 1 30 31
M  V30 31 2 31 32
M  V30 32 1 32 33
M  V30 33 1 32 2
M  V30 34 1 12 8
M  V30 35 1 25 17
M  V30 36 1 27 11
M  V30 37 1 23 19
M  V30 38 1 1 34
M  V30 39 1 1 35
M  V30 40 1 1 36
M  V30 41 1 3 37
M  V30 42 1 7 38
M  V30 43 1 10 39
M  V30 44 1 13 40
M  V30 45 1 13 41
M  V30 46 1 18 42
M  V30 47 1 18 43
M  V30 48 1 19 44 CFG=1
M  V30 49 1 20 45
M  V30 50 1 20 46
M  V30 51 1 21 47
M  V30 52 1 21 48
M  V30 53 1 22 49
M  V30 54 1 22 50
M  V30 55 1 24 51
M  V30 56 1 24 52
M  V30 57 1 25 53 CFG=1
M  V30 58 1 26 54
M  V30 59 1 26 55
M  V30 60 1 26 56
M  V30 61 1 28 57
M  V30 62 1 28 58
M  V30 63 1 28 59
M  V30 64 1 29 60
M  V30 65 1 29 61
M  V30 66 1 29 62
M  V30 67 1 30 63
M  V30 68 1 31 64
M  V30 END BOND
M  V30 END CTAB
M  END
>  <Dataset>  (729) 
ChEMBL_Kinases

>  <Ligand_Instance>  (729) 
nan

>  <PDB_ID>  (729) 
nan

>  <Standardized_SMILES>  (729) 
Cc1cc(C(=O)Nc2n[nH]c3c2CN(C(=O)N2C[C@@H]4CCCN4C[C@@H]2C)C3(C)C)ccc1F

>  <Name>  (729) 
nan

>  <Pocket>  (729) 
nan

>  <ATP_Site>  (729) 
nan

>  <Peripheral>  (729) 
nan

>  <Num_H_Atoms_ProtBoundConf>  (729) 
nan

>  <Num_Resolved_Atoms>  (729) 
nan

>  <Num_Not_Resolved_Atoms>  (729) 
nan

$$$$
CHEMBL3662774
     RDKit          3D

  0  0  0  0  0  0  0  0  0  0999 V3000
M  V30 BEGIN CTAB
M  V30 COUNTS 67 71 0 0 0
M  V30 BEGIN ATOM
M  V30 1 C 5.329649 -2.273167 6.800960 0
M  V30 2 C 6.269332 -1.667096 5.771475 0
M  V30 3 C 5.454005 -1.006746 4.692047 0
M  V30 4 C 5.078011 0.335409 4.801865 0
M  V30 5 C 4.330387 0.933186 3.808364 0
M  V30 6 C 3.947490 0.210443 2.697247 0
M  V30 7 C 3.148108 0.762445 1.586391 0
M  V30 8 O 2.799629 0.100166 0.563639 0
M  V30 9 N 2.682126 2.107172 1.549301 0
M  V30 10 C 1.942948 2.286602 0.324377 0
M  V30 11 N 2.429861 2.688674 -0.862445 0
M  V30 12 N 1.401748 2.709938 -1.692897 0
M  V30 13 C 0.268576 2.333522 -1.074418 0
M  V30 14 C 0.586604 2.051565 0.237776 0
M  V30 15 C -0.669046 1.624219 0.961200 0
M  V30 16 N -1.423124 1.123126 -0.162794 0
M  V30 17 C -2.213635 -0.040248 -0.237351 0
M  V30 18 O -1.802141 -0.083653 0.948821 0
M  V30 19 N -3.053906 -1.085835 -0.654264 0
M  V30 20 C -3.694349 -1.341354 -1.932608 0
M  V30 21 C -3.019671 -2.587155 -2.470195 0 CFG=2
M  V30 22 C -3.554742 -3.045333 -3.792443 0
M  V30 23 C -3.274674 -4.547966 -3.718701 0
M  V30 24 C -2.802790 -4.797533 -2.284803 0
M  V30 25 N -3.451694 -3.692990 -1.606103 0
M  V30 26 C -2.984991 -3.514174 -0.262740 0
M  V30 27 C -3.426799 -2.159362 0.244632 0 CFG=2
M  V30 28 C -4.930542 -2.137312 0.410382 0
M  V30 29 C -1.191320 2.095173 -1.223995 0
M  V30 30 C -1.549945 1.574041 -2.582015 0
M  V30 31 C -1.905912 3.385893 -0.891883 0
M  V30 32 C 4.303890 -1.118742 2.559860 0
M  V30 33 C 5.055820 -1.702964 3.569074 0
M  V30 34 H 5.823251 -3.154928 7.228541 0
M  V30 35 H 5.142996 -1.503867 7.581814 0
M  V30 36 H 4.412283 -2.587520 6.259935 0
M  V30 37 H 6.807379 -2.497293 5.260965 0
M  V30 38 H 6.921310 -0.955030 6.291229 0
M  V30 39 H 5.371398 0.915087 5.666493 0
M  V30 40 H 4.028339 1.969015 3.872003 0
M  V30 41 H 2.915858 2.744371 2.350609 0
M  V30 42 H 1.449854 2.982007 -2.699908 0
M  V30 43 H -0.452378 0.917570 1.753260 0
M  V30 44 H -1.116750 2.575473 1.317749 0
M  V30 45 H -4.784306 -1.517624 -1.854156 0
M  V30 46 H -3.571362 -0.520164 -2.657957 0
M  V30 47 H -1.935495 -2.476494 -2.457322 0
M  V30 48 H -2.963091 -2.549957 -4.590576 0
M  V30 49 H -4.638590 -2.846917 -3.877728 0
M  V30 50 H -2.473406 -4.758031 -4.457993 0
M  V30 51 H -4.159628 -5.154155 -3.967807 0
M  V30 52 H -3.141964 -5.760031 -1.882045 0
M  V30 53 H -1.688500 -4.717470 -2.199240 0
M  V30 54 H -3.542297 -4.257460 0.371045 0
M  V30 55 H -1.923929 -3.709399 -0.107916 0
M  V30 56 H -2.961683 -2.031874 1.257654 0
M  V30 57 H -5.161913 -2.486664 1.434594 0
M  V30 58 H -5.330705 -2.806733 -0.370448 0
M  V30 59 H -5.251564 -1.086615 0.294838 0
M  V30 60 H -1.255690 0.529513 -2.674652 0
M  V30 61 H -2.659149 1.696315 -2.678280 0
M  V30 62 H -1.098376 2.268363 -3.321051 0
M  V30 63 H -2.335590 3.885436 -1.792146 0
M  V30 64 H -1.204854 4.133736 -0.447899 0
M  V30 65 H -2.710487 3.226482 -0.141513 0
M  V30 66 H 4.041421 -1.746518 1.720223 0
M  V30 67 H 5.379475 -2.738782 3.544703 0
M  V30 END ATOM
M  V30 BEGIN BOND
M  V30 1 1 1 2
M  V30 2 1 2 3
M  V30 3 2 3 4
M  V30 4 1 4 5
M  V30 5 2 5 6
M  V30 6 1 6 7
M  V30 7 2 7 8
M  V30 8 1 7 9
M  V30 9 1 9 10
M  V30 10 2 10 11
M  V30 11 1 11 12
M  V30 12 1 12 13
M  V30 13 2 13 14
M  V30 14 1 14 15
M  V30 15 1 15 16
M  V30 16 1 16 17
M  V30 17 2 17 18
M  V30 18 1 17 19
M  V30 19 1 19 20
M  V30 20 1 20 21
M  V30 21 1 21 22
M  V30 22 1 22 23
M  V30 23 1 23 24
M  V30 24 1 24 25
M  V30 25 1 25 26
M  V30 26 1 26 27
M  V30 27 1 27 28
M  V30 28 1 16 29
M  V30 29 1 29 30
M  V30 30 1 29 31
M  V30 31 1 6 32
M  V30 32 2 32 33
M  V30 33 1 33 3
M  V30 34 1 14 10
M  V30 35 1 27 19
M  V30 36 1 29 13
M  V30 37 1 25 21
M  V30 38 1 1 34
M  V30 39 1 1 35
M  V30 40 1 1 36
M  V30 41 1 2 37
M  V30 42 1 2 38
M  V30 43 1 4 39
M  V30 44 1 5 40
M  V30 45 1 9 41
M  V30 46 1 12 42
M  V30 47 1 15 43
M  V30 48 1 15 44
M  V30 49 1 20 45
M  V30 50 1 20 46
M  V30 51 1 21 47 CFG=3
M  V30 52 1 22 48
M  V30 53 1 22 49
M  V30 54 1 23 50
M  V30 55 1 23 51
M  V30 56 1 24 52
M  V30 57 1 24 53
M  V30 58 1 26 54
M  V30 59 1 26 55
M  V30 60 1 27 56 CFG=1
M  V30 61 1 28 57
M  V30 62 1 28 58
M  V30 63 1 28 59
M  V30 64 1 30 60
M  V30 65 1 30 61
M  V30 66 1 30 62
M  V30 67 1 31 63
M  V30 68 1 31 64
M  V30 69 1 31 65
M  V30 70 1 32 66
M  V30 71 1 33 67
M  V30 END BOND
M  V30 END CTAB
M  END
>  <Dataset>  (730) 
ChEMBL_Kinases

>  <Ligand_Instance>  (730) 
nan

>  <PDB_ID>  (730) 
nan

>  <Standardized_SMILES>  (730) 
CCc1ccc(C(=O)Nc2n[nH]c3c2CN(C(=O)N2C[C@@H]4CCCN4C[C@@H]2C)C3(C)C)cc1

>  <Name>  (730) 
nan

>  <Pocket>  (730) 
nan

>  <ATP_Site>  (730) 
nan

>  <Peripheral>  (730) 
nan

>  <Num_H_Atoms_ProtBoundConf>  (730) 
nan

>  <Num_Resolved_Atoms>  (730) 
nan

>  <Num_Not_Resolved_Atoms>  (730) 
nan

$$$$
CHEMBL3662773
     RDKit          3D

  0  0  0  0  0  0  0  0  0  0999 V3000
M  V30 BEGIN CTAB
M  V30 COUNTS 62 66 0 0 0
M  V30 BEGIN ATOM
M  V30 1 C 2.122518 3.336595 2.694304 0
M  V30 2 C 2.675541 1.995697 2.265632 0 CFG=1
M  V30 3 C 3.218737 1.301898 3.457427 0
M  V30 4 N 3.487368 -0.108543 3.293138 0
M  V30 5 C 3.359685 -0.736639 4.593717 0
M  V30 6 C 3.237329 -2.192011 4.211048 0
M  V30 7 C 2.240447 -2.119156 3.057808 0
M  V30 8 C 2.497805 -0.757270 2.454970 0 CFG=1
M  V30 9 C 1.255599 0.105206 2.446052 0
M  V30 10 N 1.554412 1.269329 1.640366 0
M  V30 11 C 1.108194 1.917082 0.443228 0
M  V30 12 O 1.659320 3.009850 0.036995 0
M  V30 13 N 0.027601 1.393949 -0.372789 0
M  V30 14 C -0.758265 0.195251 -0.169216 0
M  V30 15 C -1.565370 0.126531 -1.404676 0
M  V30 16 C -2.472046 -0.753393 -1.955464 0
M  V30 17 N -3.061097 -1.999827 -1.610349 0
M  V30 18 C -2.650702 -3.315025 -1.879685 0
M  V30 19 O -1.580141 -3.416526 -2.537362 0
M  V30 20 C -3.444443 -4.445866 -1.408505 0
M  V30 21 C -4.617181 -4.399193 -0.685274 0
M  V30 22 C -5.265852 -5.556968 -0.305549 0
M  V30 23 C -4.767575 -6.800756 -0.633919 0
M  V30 24 C -3.595776 -6.884943 -1.357247 0
M  V30 25 C -3.110633 -8.184592 -1.678255 0
M  V30 26 N -2.715380 -9.247486 -1.943606 0
M  V30 27 C -2.952216 -5.714943 -1.733643 0
M  V30 28 N -2.829966 -0.182255 -3.132574 0
M  V30 29 N -2.178649 0.965134 -3.275494 0
M  V30 30 C -1.378846 1.207958 -2.232169 0
M  V30 31 C -0.402035 2.106253 -1.585376 0
M  V30 32 C 0.738023 2.277436 -2.564248 0
M  V30 33 C -1.025991 3.430160 -1.238754 0
M  V30 34 H 1.011399 3.393841 2.599404 0
M  V30 35 H 2.334070 3.562265 3.773173 0
M  V30 36 H 2.624283 4.105331 2.064903 0
M  V30 37 H 3.426837 2.094121 1.455484 0
M  V30 38 H 4.228505 1.775778 3.668236 0
M  V30 39 H 2.643060 1.457635 4.367725 0
M  V30 40 H 4.262173 -0.613125 5.214277 0
M  V30 41 H 2.437493 -0.371283 5.086253 0
M  V30 42 H 4.238344 -2.536319 3.862341 0
M  V30 43 H 2.855552 -2.814263 5.042616 0
M  V30 44 H 2.499964 -2.958645 2.378957 0
M  V30 45 H 1.213345 -2.217831 3.466667 0
M  V30 46 H 2.949004 -0.910417 1.466726 0
M  V30 47 H 0.351781 -0.432255 2.202345 0
M  V30 48 H 1.111797 0.464152 3.506199 0
M  V30 49 H -1.379375 0.179087 0.715005 0
M  V30 50 H -0.037889 -0.669564 -0.107614 0
M  V30 51 H -3.939627 -1.753512 -1.067165 0
M  V30 52 H -4.963258 -3.405647 -0.454269 0
M  V30 53 H -6.184567 -5.412802 0.263008 0
M  V30 54 H -5.319465 -7.692819 -0.309241 0
M  V30 55 H -2.031150 -5.868195 -2.304335 0
M  V30 56 H -2.306634 1.572378 -4.117343 0
M  V30 57 H 1.380507 1.392128 -2.597228 0
M  V30 58 H 1.310067 3.181446 -2.266975 0
M  V30 59 H 0.290065 2.489854 -3.547769 0
M  V30 60 H -1.548917 3.423333 -0.272959 0
M  V30 61 H -1.801963 3.676462 -2.000763 0
M  V30 62 H -0.266999 4.243686 -1.294476 0
M  V30 END ATOM
M  V30 BEGIN BOND
M  V30 1 1 1 2
M  V30 2 1 2 3
M  V30 3 1 3 4
M  V30 4 1 4 5
M  V30 5 1 5 6
M  V30 6 1 6 7
M  V30 7 1 7 8
M  V30 8 1 8 9
M  V30 9 1 9 10
M  V30 10 1 10 11
M  V30 11 2 11 12
M  V30 12 1 11 13
M  V30 13 1 13 14
M  V30 14 1 14 15
M  V30 15 1 15 16
M  V30 16 1 16 17
M  V30 17 1 17 18
M  V30 18 2 18 19
M  V30 19 1 18 20
M  V30 20 2 20 21
M  V30 21 1 21 22
M  V30 22 2 22 23
M  V30 23 1 23 24
M  V30 24 1 24 25
M  V30 25 3 25 26
M  V30 26 2 24 27
M  V30 27 2 16 28
M  V30 28 1 28 29
M  V30 29 1 29 30
M  V30 30 1 30 31
M  V30 31 1 31 32
M  V30 32 1 31 33
M  V30 33 1 10 2
M  V30 34 1 31 13
M  V30 35 1 8 4
M  V30 36 2 30 15
M  V30 37 1 27 20
M  V30 38 1 1 34
M  V30 39 1 1 35
M  V30 40 1 1 36
M  V30 41 1 2 37 CFG=3
M  V30 42 1 3 38
M  V30 43 1 3 39
M  V30 44 1 5 40
M  V30 45 1 5 41
M  V30 46 1 6 42
M  V30 47 1 6 43
M  V30 48 1 7 44
M  V30 49 1 7 45
M  V30 50 1 8 46 CFG=3
M  V30 51 1 9 47
M  V30 52 1 9 48
M  V30 53 1 14 49
M  V30 54 1 14 50
M  V30 55 1 17 51
M  V30 56 1 21 52
M  V30 57 1 22 53
M  V30 58 1 23 54
M  V30 59 1 27 55
M  V30 60 1 29 56
M  V30 61 1 32 57
M  V30 62 1 32 58
M  V30 63 1 32 59
M  V30 64 1 33 60
M  V30 65 1 33 61
M  V30 66 1 33 62
M  V30 END BOND
M  V30 END CTAB
M  END
>  <Dataset>  (731) 
ChEMBL_Kinases

>  <Ligand_Instance>  (731) 
nan

>  <PDB_ID>  (731) 
nan

>  <Standardized_SMILES>  (731) 
C[C@H]1CN2CCC[C@H]2CN1C(=O)N1Cc2c(NC(=O)c3cccc(C#N)c3)n[nH]c2C1(C)C

>  <Name>  (731) 
nan

>  <Pocket>  (731) 
nan

>  <ATP_Site>  (731) 
nan

>  <Peripheral>  (731) 
nan

>  <Num_H_Atoms_ProtBoundConf>  (731) 
nan

>  <Num_Resolved_Atoms>  (731) 
nan

>  <Num_Not_Resolved_Atoms>  (731) 
nan

$$$$
CHEMBL3662772
     RDKit          3D

  0  0  0  0  0  0  0  0  0  0999 V3000
M  V30 BEGIN CTAB
M  V30 COUNTS 67 71 0 0 0
M  V30 BEGIN ATOM
M  V30 1 C 8.756271 -2.828220 4.597634 0
M  V30 2 O 8.083623 -1.702386 4.064680 0
M  V30 3 C 6.727169 -1.800273 3.783798 0
M  V30 4 C 6.069803 -0.692807 3.260878 0
M  V30 5 C 4.727933 -0.804371 2.987814 0
M  V30 6 C 3.934897 0.310809 2.429094 0
M  V30 7 O 4.487886 1.415094 2.198128 0
M  V30 8 N 2.557073 0.102717 2.165575 0
M  V30 9 C 1.708232 1.121181 1.627127 0
M  V30 10 N 2.079058 2.378284 1.335247 0
M  V30 11 N 1.006943 2.985131 0.861583 0
M  V30 12 C -0.051221 2.158610 0.836666 0
M  V30 13 C 0.376345 0.943029 1.328061 0
M  V30 14 C -0.817134 0.014523 1.295139 0
M  V30 15 N -1.468433 0.549785 0.118191 0
M  V30 16 C -1.952770 0.006196 -1.085406 0
M  V30 17 O -1.446090 -0.871988 -0.347227 0
M  V30 18 N -2.432805 -0.532090 -2.278142 0
M  V30 19 C -3.079705 0.260367 -3.302313 0
M  V30 20 C -4.519883 -0.168987 -3.392594 0 CFG=2
M  V30 21 C -5.427889 0.602003 -2.453243 0
M  V30 22 C -6.407050 -0.430870 -1.906448 0
M  V30 23 C -5.483554 -1.655673 -1.865526 0
M  V30 24 N -4.783517 -1.522993 -3.099983 0
M  V30 25 C -3.669097 -2.420214 -3.235650 0
M  V30 26 C -2.384635 -1.897352 -2.719093 0 CFG=2
M  V30 27 C -1.895687 -2.864301 -1.642697 0
M  V30 28 C -1.506521 1.951493 0.512337 0
M  V30 29 C -2.271413 2.194289 1.777079 0
M  V30 30 C -1.956969 2.871326 -0.583774 0
M  V30 31 N 4.141317 -1.985948 3.247665 0
M  V30 32 C 4.750962 -3.060673 3.748682 0
M  V30 33 O 3.938313 -4.165411 3.931146 0
M  V30 34 C 4.397548 -5.394398 4.449151 0
M  V30 35 N 6.069385 -2.965815 4.021908 0
M  V30 36 H 9.232838 -2.551413 5.543719 0
M  V30 37 H 9.516391 -3.218709 3.888889 0
M  V30 38 H 8.025661 -3.642926 4.860899 0
M  V30 39 H 6.565226 0.239052 3.063231 0
M  V30 40 H 2.168951 -0.846736 2.383196 0
M  V30 41 H 0.969243 3.978164 0.543226 0
M  V30 42 H -0.487274 -1.018248 1.233098 0
M  V30 43 H -1.418542 0.206508 2.216602 0
M  V30 44 H -2.614771 0.085477 -4.300434 0
M  V30 45 H -2.989197 1.348463 -3.132269 0
M  V30 46 H -4.843970 0.003624 -4.463539 0
M  V30 47 H -6.011432 1.355891 -3.020243 0
M  V30 48 H -4.891166 1.079973 -1.617199 0
M  V30 49 H -6.813441 -0.178937 -0.926650 0
M  V30 50 H -7.180824 -0.685677 -2.664739 0
M  V30 51 H -4.838509 -1.592978 -0.959366 0
M  V30 52 H -6.059897 -2.605715 -1.890917 0
M  V30 53 H -3.576772 -2.617614 -4.332293 0
M  V30 54 H -3.916464 -3.410972 -2.799975 0
M  V30 55 H -1.605507 -1.999309 -3.533307 0
M  V30 56 H -2.543320 -2.887201 -0.752968 0
M  V30 57 H -0.821099 -2.817500 -1.463220 0
M  V30 58 H -2.056733 -3.881729 -2.113553 0
M  V30 59 H -3.036024 1.432789 2.007334 0
M  V30 60 H -2.765793 3.206677 1.703994 0
M  V30 61 H -1.600481 2.251949 2.677499 0
M  V30 62 H -3.055897 2.999506 -0.476440 0
M  V30 63 H -1.615142 2.511874 -1.550750 0
M  V30 64 H -1.500048 3.862453 -0.399235 0
M  V30 65 H 3.650670 -5.830834 5.146651 0
M  V30 66 H 5.351189 -5.277748 4.986855 0
M  V30 67 H 4.514512 -6.098438 3.581188 0
M  V30 END ATOM
M  V30 BEGIN BOND
M  V30 1 1 1 2
M  V30 2 1 2 3
M  V30 3 2 3 4
M  V30 4 1 4 5
M  V30 5 1 5 6
M  V30 6 2 6 7
M  V30 7 1 6 8
M  V30 8 1 8 9
M  V30 9 2 9 10
M  V30 10 1 10 11
M  V30 11 1 11 12
M  V30 12 2 12 13
M  V30 13 1 13 14
M  V30 14 1 14 15
M  V30 15 1 15 16
M  V30 16 2 16 17
M  V30 17 1 16 18
M  V30 18 1 18 19
M  V30 19 1 19 20
M  V30 20 1 20 21
M  V30 21 1 21 22
M  V30 22 1 22 23
M  V30 23 1 23 24
M  V30 24 1 24 25
M  V30 25 1 25 26
M  V30 26 1 26 27
M  V30 27 1 15 28
M  V30 28 1 28 29
M  V30 29 1 28 30
M  V30 30 2 5 31
M  V30 31 1 31 32
M  V30 32 1 32 33
M  V30 33 1 33 34
M  V30 34 2 32 35
M  V30 35 1 35 3
M  V30 36 1 13 9
M  V30 37 1 26 18
M  V30 38 1 28 12
M  V30 39 1 24 20
M  V30 40 1 1 36
M  V30 41 1 1 37
M  V30 42 1 1 38
M  V30 43 1 4 39
M  V30 44 1 8 40
M  V30 45 1 11 41
M  V30 46 1 14 42
M  V30 47 1 14 43
M  V30 48 1 19 44
M  V30 49 1 19 45
M  V30 50 1 20 46 CFG=3
M  V30 51 1 21 47
M  V30 52 1 21 48
M  V30 53 1 22 49
M  V30 54 1 22 50
M  V30 55 1 23 51
M  V30 56 1 23 52
M  V30 57 1 25 53
M  V30 58 1 25 54
M  V30 59 1 26 55 CFG=3
M  V30 60 1 27 56
M  V30 61 1 27 57
M  V30 62 1 27 58
M  V30 63 1 29 59
M  V30 64 1 29 60
M  V30 65 1 29 61
M  V30 66 1 30 62
M  V30 67 1 30 63
M  V30 68 1 30 64
M  V30 69 1 34 65
M  V30 70 1 34 66
M  V30 71 1 34 67
M  V30 END BOND
M  V30 END CTAB
M  END
>  <Dataset>  (732) 
ChEMBL_Kinases

>  <Ligand_Instance>  (732) 
nan

>  <PDB_ID>  (732) 
nan

>  <Standardized_SMILES>  (732) 
COc1cc(C(=O)Nc2n[nH]c3c2CN(C(=O)N2C[C@@H]4CCCN4C[C@@H]2C)C3(C)C)nc(OC)n1

>  <Name>  (732) 
nan

>  <Pocket>  (732) 
nan

>  <ATP_Site>  (732) 
nan

>  <Peripheral>  (732) 
nan

>  <Num_H_Atoms_ProtBoundConf>  (732) 
nan

>  <Num_Resolved_Atoms>  (732) 
nan

>  <Num_Not_Resolved_Atoms>  (732) 
nan

$$$$
CHEMBL3662771
     RDKit          3D

  0  0  0  0  0  0  0  0  0  0999 V3000
M  V30 BEGIN CTAB
M  V30 COUNTS 62 66 0 0 0
M  V30 BEGIN ATOM
M  V30 1 C 8.267436 -1.659245 5.171478 0
M  V30 2 C 7.551845 -2.235026 3.995703 0
M  V30 3 C 6.581170 -1.407677 3.421337 0
M  V30 4 C 5.873956 -1.849396 2.339181 0
M  V30 5 C 4.844531 -0.984121 1.724278 0
M  V30 6 O 4.636156 0.159656 2.214970 0
M  V30 7 N 4.165640 -1.531640 0.609394 0
M  V30 8 C 3.122287 -0.902122 -0.168882 0
M  V30 9 N 3.129898 -0.090684 -1.282116 0
M  V30 10 N 1.825266 0.177573 -1.551272 0
M  V30 11 C 0.994386 -0.456856 -0.619427 0
M  V30 12 C 1.834508 -1.076643 0.168258 0
M  V30 13 C 0.592782 -1.460813 0.795940 0
M  V30 14 N -0.387834 -0.622094 -0.082872 0
M  V30 15 C -1.326181 0.182061 -0.925064 0
M  V30 16 O -0.833985 1.100718 -1.635512 0
M  V30 17 N -2.745721 -0.131323 -0.878272 0
M  V30 18 C -3.760647 -0.961993 -0.272196 0
M  V30 19 C -4.787720 0.042622 0.189330 0 CFG=2
M  V30 20 C -5.745764 -0.424503 1.209280 0
M  V30 21 C -6.977227 0.422026 0.841022 0
M  V30 22 C -6.662021 0.991387 -0.555709 0
M  V30 23 N -5.616920 0.155160 -1.006874 0
M  V30 24 C -4.800990 0.573242 -2.075362 0
M  V30 25 C -3.355233 0.717381 -1.824219 0 CFG=2
M  V30 26 C -2.670872 0.567754 -3.193818 0
M  V30 27 C -0.342786 -0.897869 0.068310 0
M  V30 28 C -0.832204 -2.279731 -0.423613 0
M  V30 29 C -0.839051 -0.221799 1.307863 0
M  V30 30 N 6.164702 -3.098824 1.874675 0
M  V30 31 C 7.079824 -3.892589 2.407530 0
M  V30 32 Cl 7.379806 -5.481384 1.738323 0
M  V30 33 N 7.799923 -3.474887 3.489164 0
M  V30 34 H 7.539350 -1.058513 5.774406 0
M  V30 35 H 9.086683 -0.981372 4.894376 0
M  V30 36 H 8.639741 -2.435260 5.869059 0
M  V30 37 H 6.377372 -0.422269 3.816502 0
M  V30 38 H 4.350739 -2.471507 0.219843 0
M  V30 39 H 1.633355 0.778500 -2.363748 0
M  V30 40 H 0.796752 -1.061992 1.782783 0
M  V30 41 H 0.501248 -2.446071 0.898799 0
M  V30 42 H -4.092479 -1.631347 -1.088502 0
M  V30 43 H -3.445861 -1.622939 0.535550 0
M  V30 44 H -4.357301 1.042909 0.377967 0
M  V30 45 H -5.927253 -1.493766 1.153595 0
M  V30 46 H -5.364119 -0.097508 2.215779 0
M  V30 47 H -7.856001 -0.252457 0.816716 0
M  V30 48 H -7.072462 1.228810 1.594409 0
M  V30 49 H -7.570722 0.794589 -1.158064 0
M  V30 50 H -6.370643 2.048543 -0.513000 0
M  V30 51 H -5.032087 -0.101164 -2.943636 0
M  V30 52 H -5.212617 1.569139 -2.416466 0
M  V30 53 H -3.188059 1.768790 -1.424191 0
M  V30 54 H -1.912382 -0.230804 -3.203703 0
M  V30 55 H -2.229305 1.548169 -3.440561 0
M  V30 56 H -3.397386 0.266326 -3.977600 0
M  V30 57 H -1.455161 -2.069777 -1.296605 0
M  V30 58 H 0.052554 -2.801724 -0.869370 0
M  V30 59 H -1.382722 -2.743966 0.345253 0
M  V30 60 H -0.177016 0.626570 1.667339 0
M  V30 61 H -1.764086 0.382823 1.237017 0
M  V30 62 H -1.130271 -0.903331 2.108933 0
M  V30 END ATOM
M  V30 BEGIN BOND
M  V30 1 1 1 2
M  V30 2 2 2 3
M  V30 3 1 3 4
M  V30 4 1 4 5
M  V30 5 2 5 6
M  V30 6 1 5 7
M  V30 7 1 7 8
M  V30 8 2 8 9
M  V30 9 1 9 10
M  V30 10 1 10 11
M  V30 11 2 11 12
M  V30 12 1 12 13
M  V30 13 1 13 14
M  V30 14 1 14 15
M  V30 15 2 15 16
M  V30 16 1 15 17
M  V30 17 1 17 18
M  V30 18 1 18 19
M  V30 19 1 19 20
M  V30 20 1 20 21
M  V30 21 1 21 22
M  V30 22 1 22 23
M  V30 23 1 23 24
M  V30 24 1 24 25
M  V30 25 1 25 26
M  V30 26 1 14 27
M  V30 27 1 27 28
M  V30 28 1 27 29
M  V30 29 2 4 30
M  V30 30 1 30 31
M  V30 31 1 31 32
M  V30 32 2 31 33
M  V30 33 1 33 2
M  V30 34 1 12 8
M  V30 35 1 25 17
M  V30 36 1 27 11
M  V30 37 1 23 19
M  V30 38 1 1 34
M  V30 39 1 1 35
M  V30 40 1 1 36
M  V30 41 1 3 37
M  V30 42 1 7 38
M  V30 43 1 10 39
M  V30 44 1 13 40
M  V30 45 1 13 41
M  V30 46 1 18 42
M  V30 47 1 18 43
M  V30 48 1 19 44 CFG=1
M  V30 49 1 20 45
M  V30 50 1 20 46
M  V30 51 1 21 47
M  V30 52 1 21 48
M  V30 53 1 22 49
M  V30 54 1 22 50
M  V30 55 1 24 51
M  V30 56 1 24 52
M  V30 57 1 25 53 CFG=1
M  V30 58 1 26 54
M  V30 59 1 26 55
M  V30 60 1 26 56
M  V30 61 1 28 57
M  V30 62 1 28 58
M  V30 63 1 28 59
M  V30 64 1 29 60
M  V30 65 1 29 61
M  V30 66 1 29 62
M  V30 END BOND
M  V30 END CTAB
M  END
>  <Dataset>  (733) 
ChEMBL_Kinases

>  <Ligand_Instance>  (733) 
nan

>  <PDB_ID>  (733) 
nan

>  <Standardized_SMILES>  (733) 
Cc1cc(C(=O)Nc2n[nH]c3c2CN(C(=O)N2C[C@@H]4CCCN4C[C@@H]2C)C3(C)C)nc(Cl)n1

>  <Name>  (733) 
nan

>  <Pocket>  (733) 
nan

>  <ATP_Site>  (733) 
nan

>  <Peripheral>  (733) 
nan

>  <Num_H_Atoms_ProtBoundConf>  (733) 
nan

>  <Num_Resolved_Atoms>  (733) 
nan

>  <Num_Not_Resolved_Atoms>  (733) 
nan

$$$$
CHEMBL3662770
     RDKit          3D

  0  0  0  0  0  0  0  0  0  0999 V3000
M  V30 BEGIN CTAB
M  V30 COUNTS 64 68 0 0 0
M  V30 BEGIN ATOM
M  V30 1 C 3.236545 2.145026 2.438985 0
M  V30 2 C 2.442097 0.915070 2.898299 0
M  V30 3 C 2.044799 1.121205 4.347285 0
M  V30 4 C 3.397288 -0.250776 2.883870 0
M  V30 5 N 3.849435 -0.607548 1.577415 0
M  V30 6 C 4.007671 -2.021359 1.378246 0
M  V30 7 C 3.413696 -2.391190 0.049479 0
M  V30 8 C 3.225861 -1.068215 -0.622016 0
M  V30 9 C 3.119659 -0.035717 0.500439 0 CFG=1
M  V30 10 C 1.663760 0.177695 0.764464 0
M  V30 11 N 1.337771 0.792765 2.010827 0
M  V30 12 C -0.013663 1.193182 2.203691 0
M  V30 13 O -0.144274 1.726159 3.333074 0
M  V30 14 N -1.099002 1.038813 1.289416 0
M  V30 15 C -1.558345 0.562874 -0.012628 0
M  V30 16 C -2.653316 -0.371749 0.407760 0
M  V30 17 C -3.308061 -1.578002 0.159943 0
M  V30 18 N -2.922355 -2.440563 -0.906406 0
M  V30 19 C -3.393963 -2.449857 -2.249352 0
M  V30 20 O -4.267211 -1.627718 -2.647615 0
M  V30 21 C -2.885069 -3.407794 -3.208529 0
M  V30 22 C -3.381034 -3.372604 -4.505696 0
M  V30 23 C -2.936242 -4.266145 -5.484354 0
M  V30 24 C -1.983519 -5.218110 -5.190140 0
M  V30 25 C -1.493286 -5.252765 -3.907668 0
M  V30 26 Cl -0.278590 -6.428817 -3.438822 0
M  V30 27 C -1.947050 -4.355601 -2.945080 0
M  V30 28 N -4.263327 -1.641282 1.105821 0
M  V30 29 N -4.214953 -0.570216 1.880874 0
M  V30 30 C -3.229719 0.253284 1.489651 0
M  V30 31 C -2.433347 1.514226 1.632598 0
M  V30 32 C -2.571545 1.968018 3.059993 0
M  V30 33 C -2.929491 2.612768 0.746567 0
M  V30 34 H 2.794952 2.631553 1.558375 0
M  V30 35 H 3.243674 2.908934 3.251581 0
M  V30 36 H 4.286904 1.894138 2.209378 0
M  V30 37 H 1.250769 0.420627 4.640523 0
M  V30 38 H 1.750546 2.163138 4.580932 0
M  V30 39 H 2.957229 0.879832 4.965195 0
M  V30 40 H 2.966675 -1.147425 3.371432 0
M  V30 41 H 4.273123 0.058598 3.489834 0
M  V30 42 H 3.578010 -2.627116 2.207089 0
M  V30 43 H 5.096975 -2.241070 1.355000 0
M  V30 44 H 2.449844 -2.940045 0.188410 0
M  V30 45 H 4.088716 -3.086473 -0.530625 0
M  V30 46 H 2.300791 -1.061022 -1.255509 0
M  V30 47 H 4.136985 -0.844043 -1.249850 0
M  V30 48 H 3.610257 0.872126 0.149442 0
M  V30 49 H 1.069936 -0.746564 0.638560 0
M  V30 50 H 1.304421 0.895427 -0.030999 0
M  V30 51 H -1.919287 1.377483 -0.670812 0
M  V30 52 H -0.814192 0.016319 -0.589095 0
M  V30 53 H -2.211103 -3.098704 -0.553067 0
M  V30 54 H -4.135986 -2.644410 -4.803620 0
M  V30 55 H -3.339586 -4.218702 -6.492800 0
M  V30 56 H -1.628902 -5.914261 -5.930396 0
M  V30 57 H -1.531250 -4.421872 -1.949253 0
M  V30 58 H -4.835694 -0.349552 2.697182 0
M  V30 59 H -2.346549 1.133727 3.748866 0
M  V30 60 H -2.124959 2.929786 3.299362 0
M  V30 61 H -3.684417 2.132663 3.203676 0
M  V30 62 H -2.071639 3.145227 0.311040 0
M  V30 63 H -3.520553 3.340368 1.345060 0
M  V30 64 H -3.616446 2.290875 -0.061589 0
M  V30 END ATOM
M  V30 BEGIN BOND
M  V30 1 1 1 2
M  V30 2 1 2 3
M  V30 3 1 2 4
M  V30 4 1 4 5
M  V30 5 1 5 6
M  V30 6 1 6 7
M  V30 7 1 7 8
M  V30 8 1 8 9
M  V30 9 1 9 10
M  V30 10 1 10 11
M  V30 11 1 11 12
M  V30 12 2 12 13
M  V30 13 1 12 14
M  V30 14 1 14 15
M  V30 15 1 15 16
M  V30 16 1 16 17
M  V30 17 1 17 18
M  V30 18 1 18 19
M  V30 19 2 19 20
M  V30 20 1 19 21
M  V30 21 2 21 22
M  V30 22 1 22 23
M  V30 23 2 23 24
M  V30 24 1 24 25
M  V30 25 1 25 26
M  V30 26 2 25 27
M  V30 27 2 17 28
M  V30 28 1 28 29
M  V30 29 1 29 30
M  V30 30 1 30 31
M  V30 31 1 31 32
M  V30 32 1 31 33
M  V30 33 1 11 2
M  V30 34 1 31 14
M  V30 35 1 9 5
M  V30 36 2 30 16
M  V30 37 1 27 21
M  V30 38 1 1 34
M  V30 39 1 1 35
M  V30 40 1 1 36
M  V30 41 1 3 37
M  V30 42 1 3 38
M  V30 43 1 3 39
M  V30 44 1 4 40
M  V30 45 1 4 41
M  V30 46 1 6 42
M  V30 47 1 6 43
M  V30 48 1 7 44
M  V30 49 1 7 45
M  V30 50 1 8 46
M  V30 51 1 8 47
M  V30 52 1 9 48 CFG=3
M  V30 53 1 10 49
M  V30 54 1 10 50
M  V30 55 1 15 51
M  V30 56 1 15 52
M  V30 57 1 18 53
M  V30 58 1 22 54
M  V30 59 1 23 55
M  V30 60 1 24 56
M  V30 61 1 27 57
M  V30 62 1 29 58
M  V30 63 1 32 59
M  V30 64 1 32 60
M  V30 65 1 32 61
M  V30 66 1 33 62
M  V30 67 1 33 63
M  V30 68 1 33 64
M  V30 END BOND
M  V30 END CTAB
M  END
>  <Dataset>  (734) 
ChEMBL_Kinases

>  <Ligand_Instance>  (734) 
nan

>  <PDB_ID>  (734) 
nan

>  <Standardized_SMILES>  (734) 
CC1(C)CN2CCC[C@H]2CN1C(=O)N1Cc2c(NC(=O)c3cccc(Cl)c3)n[nH]c2C1(C)C

>  <Name>  (734) 
nan

>  <Pocket>  (734) 
nan

>  <ATP_Site>  (734) 
nan

>  <Peripheral>  (734) 
nan

>  <Num_H_Atoms_ProtBoundConf>  (734) 
nan

>  <Num_Resolved_Atoms>  (734) 
nan

>  <Num_Not_Resolved_Atoms>  (734) 
nan

$$$$
CHEMBL3662769
     RDKit          3D

  0  0  0  0  0  0  0  0  0  0999 V3000
M  V30 BEGIN CTAB
M  V30 COUNTS 76 81 0 0 0
M  V30 BEGIN ATOM
M  V30 1 C -0.885539 -0.758052 4.729183 0
M  V30 2 C 0.209437 -0.289939 3.797175 0
M  V30 3 C 1.546326 -0.665820 4.336130 0
M  V30 4 C 0.127398 1.192108 3.749202 0
M  V30 5 N -0.198228 2.362429 4.375530 0
M  V30 6 N 0.049028 3.384830 3.566334 0
M  V30 7 C 0.546184 2.922225 2.379308 0
M  V30 8 N 0.948604 3.651860 1.225969 0
M  V30 9 C 2.204734 4.187979 0.864705 0
M  V30 10 O 3.178214 4.031872 1.646789 0
M  V30 11 C 2.293001 4.896310 -0.406745 0
M  V30 12 C 3.532992 5.418453 -0.761312 0
M  V30 13 C 3.675141 6.095038 -1.949075 0
M  V30 14 C 2.623411 6.283406 -2.822145 0
M  V30 15 C 1.409638 5.747690 -2.429407 0
M  V30 16 N 1.283739 5.087498 -1.264191 0
M  V30 17 C 0.592538 1.549232 2.500724 0
M  V30 18 C 0.926570 0.242469 1.879371 0
M  V30 19 N -0.024695 -0.701491 2.431461 0
M  V30 20 C -0.737777 -1.563042 1.577951 0
M  V30 21 O -1.418959 -2.173907 2.434052 0
M  V30 22 N -1.636885 -2.557379 1.212803 0
M  V30 23 C -2.579641 -3.489098 1.863291 0
M  V30 24 C -2.373304 -4.779217 1.093844 0 CFG=2
M  V30 25 C -2.392998 -5.984763 2.007510 0
M  V30 26 C -1.646051 -7.005560 1.158554 0
M  V30 27 C -1.034063 -6.218989 0.022324 0
M  V30 28 N -1.003257 -4.857938 0.579035 0
M  V30 29 C -0.766144 -3.890688 -0.497520 0
M  V30 30 C -1.648492 -2.718175 -0.264430 0 CFG=2
M  V30 31 C -1.384545 -1.453606 -0.954174 0
M  V30 32 C -1.421336 -1.533579 -2.442577 0
M  V30 33 C -1.171570 -0.127805 -3.025842 0
M  V30 34 C 0.282760 0.226854 -3.023731 0
M  V30 35 C 1.066832 -0.639359 -3.995109 0
M  V30 36 C 0.200865 -1.810239 -4.351036 0
M  V30 37 C -0.428588 -2.437745 -3.103148 0
M  V30 38 H -1.881314 -0.444494 4.380199 0
M  V30 39 H -0.806526 -1.807422 5.015864 0
M  V30 40 H -0.723148 -0.166591 5.677938 0
M  V30 41 H 2.163030 0.219286 4.587545 0
M  V30 42 H 2.124839 -1.369451 3.708205 0
M  V30 43 H 1.415771 -1.202798 5.315138 0
M  V30 44 H -0.584106 2.386987 5.355367 0
M  V30 45 H 0.088773 3.733105 0.639080 0
M  V30 46 H 4.366782 5.290723 -0.110015 0
M  V30 47 H 4.637609 6.501209 -2.227639 0
M  V30 48 H 2.669573 6.805095 -3.768900 0
M  V30 49 H 0.542123 5.857873 -3.065550 0
M  V30 50 H 0.931563 0.326000 0.795710 0
M  V30 51 H 1.977663 -0.057198 2.158573 0
M  V30 52 H -3.602550 -3.131206 1.642259 0
M  V30 53 H -2.462255 -3.593710 2.927430 0
M  V30 54 H -3.122287 -4.931063 0.311151 0
M  V30 55 H -1.734844 -5.739086 2.865642 0
M  V30 56 H -3.388521 -6.320134 2.298016 0
M  V30 57 H -0.846176 -7.486288 1.754018 0
M  V30 58 H -2.381724 -7.762447 0.809460 0
M  V30 59 H -1.736127 -6.190707 -0.821536 0
M  V30 60 H -0.023466 -6.566880 -0.255883 0
M  V30 61 H -0.847006 -4.407043 -1.445899 0
M  V30 62 H 0.299132 -3.564504 -0.314326 0
M  V30 63 H -2.676457 -3.033809 -0.550506 0
M  V30 64 H -2.172958 -0.725026 -0.624626 0
M  V30 65 H -0.393648 -0.991063 -0.705803 0
M  V30 66 H -2.424389 -1.829843 -2.838607 0
M  V30 67 H -1.695341 0.613922 -2.374212 0
M  V30 68 H -1.599646 -0.105863 -4.025244 0
M  V30 69 H 0.694457 0.146813 -1.998203 0
M  V30 70 H 0.368845 1.281872 -3.327657 0
M  V30 71 H 2.025392 -0.995542 -3.569410 0
M  V30 72 H 1.277916 -0.083434 -4.936069 0
M  V30 73 H -0.612755 -1.561065 -5.036178 0
M  V30 74 H 0.872751 -2.614204 -4.741972 0
M  V30 75 H 0.431237 -2.709175 -2.471238 0
M  V30 76 H -0.884949 -3.376529 -3.485471 0
M  V30 END ATOM
M  V30 BEGIN BOND
M  V30 1 1 1 2
M  V30 2 1 2 3
M  V30 3 1 2 4
M  V30 4 1 4 5
M  V30 5 1 5 6
M  V30 6 2 6 7
M  V30 7 1 7 8
M  V30 8 1 8 9
M  V30 9 2 9 10
M  V30 10 1 9 11
M  V30 11 2 11 12
M  V30 12 1 12 13
M  V30 13 2 13 14
M  V30 14 1 14 15
M  V30 15 2 15 16
M  V30 16 1 7 17
M  V30 17 1 17 18
M  V30 18 1 18 19
M  V30 19 1 19 20
M  V30 20 2 20 21
M  V30 21 1 20 22
M  V30 22 1 22 23
M  V30 23 1 23 24
M  V30 24 1 24 25
M  V30 25 1 25 26
M  V30 26 1 26 27
M  V30 27 1 27 28
M  V30 28 1 28 29
M  V30 29 1 29 30
M  V30 30 1 30 31
M  V30 31 1 31 32
M  V30 32 1 32 33
M  V30 33 1 33 34
M  V30 34 1 34 35
M  V30 35 1 35 36
M  V30 36 1 36 37
M  V30 37 1 19 2
M  V30 38 1 30 22
M  V30 39 1 37 32
M  V30 40 2 17 4
M  V30 41 1 28 24
M  V30 42 1 16 11
M  V30 43 1 1 38
M  V30 44 1 1 39
M  V30 45 1 1 40
M  V30 46 1 3 41
M  V30 47 1 3 42
M  V30 48 1 3 43
M  V30 49 1 5 44
M  V30 50 1 8 45
M  V30 51 1 12 46
M  V30 52 1 13 47
M  V30 53 1 14 48
M  V30 54 1 15 49
M  V30 55 1 18 50
M  V30 56 1 18 51
M  V30 57 1 23 52
M  V30 58 1 23 53
M  V30 59 1 24 54 CFG=3
M  V30 60 1 25 55
M  V30 61 1 25 56
M  V30 62 1 26 57
M  V30 63 1 26 58
M  V30 64 1 27 59
M  V30 65 1 27 60
M  V30 66 1 29 61
M  V30 67 1 29 62
M  V30 68 1 30 63 CFG=3
M  V30 69 1 31 64
M  V30 70 1 31 65
M  V30 71 1 32 66
M  V30 72 1 33 67
M  V30 73 1 33 68
M  V30 74 1 34 69
M  V30 75 1 34 70
M  V30 76 1 35 71
M  V30 77 1 35 72
M  V30 78 1 36 73
M  V30 79 1 36 74
M  V30 80 1 37 75
M  V30 81 1 37 76
M  V30 END BOND
M  V30 END CTAB
M  END
>  <Dataset>  (735) 
ChEMBL_Kinases

>  <Ligand_Instance>  (735) 
nan

>  <PDB_ID>  (735) 
nan

>  <Standardized_SMILES>  (735) 
CC1(C)c2[nH]nc(NC(=O)c3ccccn3)c2CN1C(=O)N1C[C@@H]2CCCN2C[C@@H]1CC1CCCCC1

>  <Name>  (735) 
nan

>  <Pocket>  (735) 
nan

>  <ATP_Site>  (735) 
nan

>  <Peripheral>  (735) 
nan

>  <Num_H_Atoms_ProtBoundConf>  (735) 
nan

>  <Num_Resolved_Atoms>  (735) 
nan

>  <Num_Not_Resolved_Atoms>  (735) 
nan

$$$$
CHEMBL3662768
     RDKit          3D

  0  0  0  0  0  0  0  0  0  0999 V3000
M  V30 BEGIN CTAB
M  V30 COUNTS 66 70 0 0 0
M  V30 BEGIN ATOM
M  V30 1 C 6.457378 0.037338 5.152058 0
M  V30 2 C 6.699929 -0.802681 3.894234 0
M  V30 3 C 5.883404 -2.068042 4.067657 0
M  V30 4 C 6.203035 -0.022164 2.696201 0
M  V30 5 C 7.019170 0.419747 1.486387 0
M  V30 6 S 5.694405 1.251001 0.598259 0
M  V30 7 C 4.438569 0.970283 1.724562 0
M  V30 8 C 2.989169 1.394878 1.648553 0
M  V30 9 O 2.014827 1.223287 2.436547 0
M  V30 10 N 2.656728 2.122794 0.474232 0
M  V30 11 C 1.331943 2.554714 0.325623 0
M  V30 12 N 0.992258 3.777836 0.822819 0
M  V30 13 N -0.305917 4.000429 0.579552 0
M  V30 14 C -0.795114 2.919137 -0.073199 0
M  V30 15 C 0.226217 2.010598 -0.235002 0
M  V30 16 C -0.278232 0.845791 -0.934270 0
M  V30 17 N -1.704443 0.856048 -0.605229 0
M  V30 18 C -2.678452 -0.118233 -0.262344 0
M  V30 19 O -3.878208 0.165704 -0.019794 0
M  V30 20 N -2.670486 -1.529590 -0.093561 0
M  V30 21 C -3.923735 -2.155980 0.274248 0
M  V30 22 C -4.414564 -2.817460 -1.015147 0 CFG=2
M  V30 23 C -5.081085 -4.132583 -0.785404 0
M  V30 24 C -4.758890 -4.910536 -2.045961 0
M  V30 25 C -3.841050 -4.032741 -2.862332 0
M  V30 26 N -3.364288 -3.030654 -1.959647 0
M  V30 27 C -2.108118 -3.438444 -1.403291 0
M  V30 28 C -1.689337 -2.625119 -0.195159 0 CFG=2
M  V30 29 C -1.749562 -3.534652 1.005684 0
M  V30 30 C -1.982169 2.248814 -0.715662 0
M  V30 31 C -1.990319 2.743403 -2.145870 0
M  V30 32 C -3.256079 2.654073 -0.011663 0
M  V30 33 N 4.919346 0.234959 2.845403 0
M  V30 34 H 5.998123 -0.567990 5.965218 0
M  V30 35 H 7.401296 0.502562 5.485932 0
M  V30 36 H 5.743401 0.842872 4.899657 0
M  V30 37 H 7.766133 -1.020048 3.783556 0
M  V30 38 H 5.575422 -2.216283 5.120923 0
M  V30 39 H 6.346009 -2.948993 3.594473 0
M  V30 40 H 4.929774 -1.906173 3.498911 0
M  V30 41 H 8.078765 0.082395 1.593517 0
M  V30 42 H 3.337694 2.366850 -0.305205 0
M  V30 43 H -0.918261 4.807145 0.802531 0
M  V30 44 H 0.223748 -0.092975 -0.744820 0
M  V30 45 H -0.270241 0.964395 -2.059753 0
M  V30 46 H -3.828693 -2.901854 1.091672 0
M  V30 47 H -4.655065 -1.410331 0.638936 0
M  V30 48 H -5.111855 -2.064872 -1.472254 0
M  V30 49 H -6.186163 -4.045731 -0.667551 0
M  V30 50 H -4.723568 -4.628867 0.132250 0
M  V30 51 H -5.648365 -5.166446 -2.635352 0
M  V30 52 H -4.162489 -5.821781 -1.753561 0
M  V30 53 H -4.377310 -3.502979 -3.676597 0
M  V30 54 H -2.985654 -4.584763 -3.303101 0
M  V30 55 H -1.354502 -3.381807 -2.217089 0
M  V30 56 H -2.198945 -4.532660 -1.151175 0
M  V30 57 H -0.683595 -2.229668 -0.265175 0
M  V30 58 H -2.449050 -4.384540 0.856348 0
M  V30 59 H -0.749503 -4.001197 1.120799 0
M  V30 60 H -1.963929 -3.032209 1.952751 0
M  V30 61 H -2.435456 2.021822 -2.854700 0
M  V30 62 H -2.582258 3.699684 -2.114101 0
M  V30 63 H -0.972369 3.039727 -2.480267 0
M  V30 64 H -3.186036 3.772609 0.088064 0
M  V30 65 H -3.338408 2.178606 0.981329 0
M  V30 66 H -4.118197 2.377246 -0.657413 0
M  V30 END ATOM
M  V30 BEGIN BOND
M  V30 1 1 1 2
M  V30 2 1 2 3
M  V30 3 1 2 4
M  V30 4 2 4 5
M  V30 5 1 5 6
M  V30 6 1 6 7
M  V30 7 1 7 8
M  V30 8 2 8 9
M  V30 9 1 8 10
M  V30 10 1 10 11
M  V30 11 2 11 12
M  V30 12 1 12 13
M  V30 13 1 13 14
M  V30 14 2 14 15
M  V30 15 1 15 16
M  V30 16 1 16 17
M  V30 17 1 17 18
M  V30 18 2 18 19
M  V30 19 1 18 20
M  V30 20 1 20 21
M  V30 21 1 21 22
M  V30 22 1 22 23
M  V30 23 1 23 24
M  V30 24 1 24 25
M  V30 25 1 25 26
M  V30 26 1 26 27
M  V30 27 1 27 28
M  V30 28 1 28 29
M  V30 29 1 17 30
M  V30 30 1 30 31
M  V30 31 1 30 32
M  V30 32 2 7 33
M  V30 33 1 33 4
M  V30 34 1 15 11
M  V30 35 1 28 20
M  V30 36 1 30 14
M  V30 37 1 26 22
M  V30 38 1 1 34
M  V30 39 1 1 35
M  V30 40 1 1 36
M  V30 41 1 2 37
M  V30 42 1 3 38
M  V30 43 1 3 39
M  V30 44 1 3 40
M  V30 45 1 5 41
M  V30 46 1 10 42
M  V30 47 1 13 43
M  V30 48 1 16 44
M  V30 49 1 16 45
M  V30 50 1 21 46
M  V30 51 1 21 47
M  V30 52 1 22 48 CFG=3
M  V30 53 1 23 49
M  V30 54 1 23 50
M  V30 55 1 24 51
M  V30 56 1 24 52
M  V30 57 1 25 53
M  V30 58 1 25 54
M  V30 59 1 27 55
M  V30 60 1 27 56
M  V30 61 1 28 57 CFG=3
M  V30 62 1 29 58
M  V30 63 1 29 59
M  V30 64 1 29 60
M  V30 65 1 31 61
M  V30 66 1 31 62
M  V30 67 1 31 63
M  V30 68 1 32 64
M  V30 69 1 32 65
M  V30 70 1 32 66
M  V30 END BOND
M  V30 END CTAB
M  END
>  <Dataset>  (736) 
ChEMBL_Kinases

>  <Ligand_Instance>  (736) 
nan

>  <PDB_ID>  (736) 
nan

>  <Standardized_SMILES>  (736) 
CC(C)c1csc(C(=O)Nc2n[nH]c3c2CN(C(=O)N2C[C@@H]4CCCN4C[C@@H]2C)C3(C)C)n1

>  <Name>  (736) 
nan

>  <Pocket>  (736) 
nan

>  <ATP_Site>  (736) 
nan

>  <Peripheral>  (736) 
nan

>  <Num_H_Atoms_ProtBoundConf>  (736) 
nan

>  <Num_Resolved_Atoms>  (736) 
nan

>  <Num_Not_Resolved_Atoms>  (736) 
nan

$$$$
CHEMBL3661274
     RDKit          3D

  0  0  0  0  0  0  0  0  0  0999 V3000
M  V30 BEGIN CTAB
M  V30 COUNTS 47 51 0 0 0
M  V30 BEGIN ATOM
M  V30 1 C -0.910714 -3.942940 5.899174 0
M  V30 2 O 0.159442 -4.198822 5.023233 0
M  V30 3 C 0.660684 -3.312053 4.088673 0
M  V30 4 C 0.123703 -2.040799 3.932829 0
M  V30 5 C 0.665219 -1.198295 2.985201 0
M  V30 6 C 1.737452 -1.619121 2.195044 0
M  V30 7 C 2.244183 -0.655704 1.226333 0
M  V30 8 C 3.568212 -0.598738 0.823521 0
M  V30 9 C 3.971069 0.354442 -0.096049 0
M  V30 10 C 3.093289 1.271215 -0.641586 0
M  V30 11 N 3.430528 2.216506 -1.527693 0
M  V30 12 C 2.509970 3.077595 -2.006519 0
M  V30 13 N 1.227682 3.017699 -1.613502 0
M  V30 14 C 0.772810 2.128963 -0.743981 0
M  V30 15 N -0.569249 1.984412 -0.258039 0
M  V30 16 C -1.745727 1.343053 -0.716851 0
M  V30 17 C -2.362141 0.347624 -0.031160 0
M  V30 18 C -3.506686 -0.337343 -0.382581 0
M  V30 19 C -4.071930 0.070485 -1.597994 0
M  V30 20 C -3.510256 1.073813 -2.356695 0
M  V30 21 N -3.871904 1.638458 -3.548109 0
M  V30 22 N -2.993661 2.590287 -3.866326 0
M  V30 23 C -2.055469 2.655323 -2.890950 0
M  V30 24 C -2.344867 1.718508 -1.925376 0
M  V30 25 C 1.744422 1.250047 -0.263525 0
M  V30 26 C 1.406435 0.276779 0.655652 0
M  V30 27 C 2.237640 -2.885762 2.382281 0
M  V30 28 C 1.734282 -3.782737 3.322890 0
M  V30 29 C 2.295399 -5.110249 3.486067 0
M  V30 30 O 3.260263 -5.532924 2.799580 0
M  V30 31 H -0.544727 -3.546121 6.887606 0
M  V30 32 H -1.683691 -3.289960 5.472436 0
M  V30 33 H -1.421274 -4.919653 6.118901 0
M  V30 34 H -0.708758 -1.747916 4.562984 0
M  V30 35 H 0.171641 -0.218834 2.939113 0
M  V30 36 H 4.275769 -1.310164 1.238078 0
M  V30 37 H 5.004196 0.430259 -0.437941 0
M  V30 38 H 2.754104 3.854278 -2.726664 0
M  V30 39 H -0.591353 2.501159 0.641055 0
M  V30 40 H -1.978816 -0.023635 0.931796 0
M  V30 41 H -3.972000 -1.125394 0.185962 0
M  V30 42 H -4.974395 -0.378648 -2.002718 0
M  V30 43 H -4.691949 1.400129 -4.149706 0
M  V30 44 H -1.217742 3.337002 -2.877730 0
M  V30 45 H 0.373201 0.238638 0.966155 0
M  V30 46 H 3.061542 -3.204349 1.771655 0
M  V30 47 H 1.834258 -5.740783 4.247072 0
M  V30 END ATOM
M  V30 BEGIN BOND
M  V30 1 1 1 2
M  V30 2 1 2 3
M  V30 3 2 3 4
M  V30 4 1 4 5
M  V30 5 2 5 6
M  V30 6 1 6 7
M  V30 7 2 7 8
M  V30 8 1 8 9
M  V30 9 2 9 10
M  V30 10 1 10 11
M  V30 11 2 11 12
M  V30 12 1 12 13
M  V30 13 2 13 14
M  V30 14 1 14 15
M  V30 15 1 15 16
M  V30 16 2 16 17
M  V30 17 1 17 18
M  V30 18 2 18 19
M  V30 19 1 19 20
M  V30 20 1 20 21
M  V30 21 1 21 22
M  V30 22 2 22 23
M  V30 23 1 23 24
M  V30 24 1 14 25
M  V30 25 2 25 26
M  V30 26 1 6 27
M  V30 27 2 27 28
M  V30 28 1 28 29
M  V30 29 2 29 30
M  V30 30 1 28 3
M  V30 31 1 26 7
M  V30 32 1 25 10
M  V30 33 1 24 16
M  V30 34 2 24 20
M  V30 35 1 1 31
M  V30 36 1 1 32
M  V30 37 1 1 33
M  V30 38 1 4 34
M  V30 39 1 5 35
M  V30 40 1 8 36
M  V30 41 1 9 37
M  V30 42 1 12 38
M  V30 43 1 15 39
M  V30 44 1 17 40
M  V30 45 1 18 41
M  V30 46 1 19 42
M  V30 47 1 21 43
M  V30 48 1 23 44
M  V30 49 1 26 45
M  V30 50 1 27 46
M  V30 51 1 29 47
M  V30 END BOND
M  V30 END CTAB
M  END
>  <Dataset>  (737) 
ChEMBL_Kinases

>  <Ligand_Instance>  (737) 
nan

>  <PDB_ID>  (737) 
nan

>  <Standardized_SMILES>  (737) 
COc1ccc(-c2ccc3ncnc(Nc4cccc5[nH]ncc45)c3c2)cc1C=O

>  <Name>  (737) 
nan

>  <Pocket>  (737) 
nan

>  <ATP_Site>  (737) 
nan

>  <Peripheral>  (737) 
nan

>  <Num_H_Atoms_ProtBoundConf>  (737) 
nan

>  <Num_Resolved_Atoms>  (737) 
nan

>  <Num_Not_Resolved_Atoms>  (737) 
nan

$$$$
CHEMBL3662751
     RDKit          3D

  0  0  0  0  0  0  0  0  0  0999 V3000
M  V30 BEGIN CTAB
M  V30 COUNTS 64 68 0 0 0
M  V30 BEGIN ATOM
M  V30 1 C 2.243143 1.006112 4.012904 0
M  V30 2 C 2.973990 0.138165 3.032037 0 CFG=1
M  V30 3 C 3.134118 -1.275603 3.522405 0
M  V30 4 N 2.141487 -2.204435 3.154417 0
M  V30 5 C 1.037256 -2.349509 4.038498 0
M  V30 6 C -0.233086 -2.176350 3.205067 0
M  V30 7 C 0.291466 -1.482087 1.991368 0
M  V30 8 C 1.660638 -2.095033 1.800092 0 CFG=1
M  V30 9 C 2.598516 -1.180909 1.084379 0
M  V30 10 N 2.388283 0.150410 1.682215 0
M  V30 11 C 1.762423 1.336952 1.229329 0
M  V30 12 O 1.805093 2.335390 2.031517 0
M  V30 13 N 1.077523 1.600536 -0.005137 0
M  V30 14 C 0.712583 0.875988 -1.232705 0
M  V30 15 C -0.753806 1.209883 -1.327695 0
M  V30 16 C -1.972995 0.710773 -1.739113 0
M  V30 17 N -2.288947 -0.541851 -2.328976 0
M  V30 18 C -2.650807 -1.731824 -1.647828 0
M  V30 19 O -2.634019 -1.450718 -0.421555 0
M  V30 20 C -2.973077 -3.003880 -2.221989 0
M  V30 21 C -3.019036 -3.269182 -3.571841 0
M  V30 22 F -2.747555 -2.314985 -4.484367 0
M  V30 23 C -3.336163 -4.491046 -4.116367 0
M  V30 24 C -3.634509 -5.547221 -3.286666 0
M  V30 25 C -3.586967 -5.277003 -1.935956 0
M  V30 26 C -3.268524 -4.047544 -1.335079 0
M  V30 27 C -3.257290 -3.964697 0.143173 0
M  V30 28 F -2.029588 -3.644734 0.679935 0
M  V30 29 F -4.275860 -3.146864 0.618878 0
M  V30 30 F -3.554602 -5.219180 0.637316 0
M  V30 31 N -2.823316 1.731697 -1.437671 0
M  V30 32 N -2.193798 2.739760 -0.902848 0
M  V30 33 C -0.880216 2.472396 -0.805744 0
M  V30 34 C 0.495526 2.859585 -0.419951 0
M  V30 35 C 1.178617 3.431940 -1.644938 0
M  V30 36 C 0.469771 3.915561 0.653426 0
M  V30 37 H 2.687543 2.013457 4.145385 0
M  V30 38 H 2.411421 0.514592 5.021737 0
M  V30 39 H 1.170881 1.097774 3.877929 0
M  V30 40 H 3.992985 0.561085 2.910697 0
M  V30 41 H 3.125697 -1.206910 4.650934 0
M  V30 42 H 4.139298 -1.681585 3.295008 0
M  V30 43 H 1.046204 -3.332495 4.548603 0
M  V30 44 H 1.121734 -1.586541 4.835818 0
M  V30 45 H -0.895153 -1.540777 3.828842 0
M  V30 46 H -0.673954 -3.169137 2.974984 0
M  V30 47 H -0.342327 -1.579897 1.089481 0
M  V30 48 H 0.314593 -0.399971 2.214466 0
M  V30 49 H 1.514328 -3.082828 1.318785 0
M  V30 50 H 3.640632 -1.546390 1.342135 0
M  V30 51 H 2.576268 -1.191620 0.001403 0
M  V30 52 H 1.258299 1.339752 -2.053398 0
M  V30 53 H 0.838430 -0.206990 -1.158410 0
M  V30 54 H -2.229854 -0.513933 -3.346275 0
M  V30 55 H -3.364964 -4.672423 -5.180981 0
M  V30 56 H -3.890046 -6.525939 -3.654448 0
M  V30 57 H -3.829055 -6.135910 -1.296066 0
M  V30 58 H -2.624146 3.640156 -0.585354 0
M  V30 59 H 1.145299 4.557223 -1.587780 0
M  V30 60 H 0.600564 3.186771 -2.554944 0
M  V30 61 H 2.219397 3.094698 -1.746221 0
M  V30 62 H 1.505404 4.268376 0.813846 0
M  V30 63 H -0.062815 4.788739 0.212689 0
M  V30 64 H -0.042465 3.624848 1.564318 0
M  V30 END ATOM
M  V30 BEGIN BOND
M  V30 1 1 1 2
M  V30 2 1 2 3
M  V30 3 1 3 4
M  V30 4 1 4 5
M  V30 5 1 5 6
M  V30 6 1 6 7
M  V30 7 1 7 8
M  V30 8 1 8 9
M  V30 9 1 9 10
M  V30 10 1 10 11
M  V30 11 2 11 12
M  V30 12 1 11 13
M  V30 13 1 13 14
M  V30 14 1 14 15
M  V30 15 1 15 16
M  V30 16 1 16 17
M  V30 17 1 17 18
M  V30 18 2 18 19
M  V30 19 1 18 20
M  V30 20 2 20 21
M  V30 21 1 21 22
M  V30 22 1 21 23
M  V30 23 2 23 24
M  V30 24 1 24 25
M  V30 25 2 25 26
M  V30 26 1 26 27
M  V30 27 1 27 28
M  V30 28 1 27 29
M  V30 29 1 27 30
M  V30 30 2 16 31
M  V30 31 1 31 32
M  V30 32 1 32 33
M  V30 33 1 33 34
M  V30 34 1 34 35
M  V30 35 1 34 36
M  V30 36 1 10 2
M  V30 37 1 34 13
M  V30 38 1 8 4
M  V30 39 2 33 15
M  V30 40 1 26 20
M  V30 41 1 1 37
M  V30 42 1 1 38
M  V30 43 1 1 39
M  V30 44 1 2 40 CFG=3
M  V30 45 1 3 41
M  V30 46 1 3 42
M  V30 47 1 5 43
M  V30 48 1 5 44
M  V30 49 1 6 45
M  V30 50 1 6 46
M  V30 51 1 7 47
M  V30 52 1 7 48
M  V30 53 1 8 49 CFG=3
M  V30 54 1 9 50
M  V30 55 1 9 51
M  V30 56 1 14 52
M  V30 57 1 14 53
M  V30 58 1 17 54
M  V30 59 1 23 55
M  V30 60 1 24 56
M  V30 61 1 25 57
M  V30 62 1 32 58
M  V30 63 1 35 59
M  V30 64 1 35 60
M  V30 65 1 35 61
M  V30 66 1 36 62
M  V30 67 1 36 63
M  V30 68 1 36 64
M  V30 END BOND
M  V30 END CTAB
M  END
>  <Dataset>  (738) 
ChEMBL_Kinases

>  <Ligand_Instance>  (738) 
nan

>  <PDB_ID>  (738) 
nan

>  <Standardized_SMILES>  (738) 
C[C@H]1CN2CCC[C@H]2CN1C(=O)N1Cc2c(NC(=O)c3c(F)cccc3C(F)(F)F)n[nH]c2C1(C)C

>  <Name>  (738) 
nan

>  <Pocket>  (738) 
nan

>  <ATP_Site>  (738) 
nan

>  <Peripheral>  (738) 
nan

>  <Num_H_Atoms_ProtBoundConf>  (738) 
nan

>  <Num_Resolved_Atoms>  (738) 
nan

>  <Num_Not_Resolved_Atoms>  (738) 
nan

$$$$
CHEMBL3662752
     RDKit          3D

  0  0  0  0  0  0  0  0  0  0999 V3000
M  V30 BEGIN CTAB
M  V30 COUNTS 61 65 0 0 0
M  V30 BEGIN ATOM
M  V30 1 C 0.578472 -0.264275 2.492687 0
M  V30 2 C 1.944331 -0.715350 2.001970 0 CFG=1
M  V30 3 C 1.963438 -2.232171 2.236626 0
M  V30 4 N 3.186438 -2.780788 1.735972 0
M  V30 5 C 4.025576 -3.419474 2.700012 0
M  V30 6 C 5.379536 -3.501507 1.982308 0
M  V30 7 C 5.234051 -2.578549 0.770734 0
M  V30 8 C 4.064910 -1.718399 1.232248 0 CFG=1
M  V30 9 C 3.376189 -1.040412 0.089509 0
M  V30 10 N 2.132198 -0.479603 0.582485 0
M  V30 11 C 1.512414 0.125630 -0.539110 0
M  V30 12 O 2.433324 -0.189223 -1.333274 0
M  V30 13 N 0.366011 0.844534 -0.926970 0
M  V30 14 C -0.866796 1.402283 -0.427280 0
M  V30 15 C -1.927566 0.891884 -1.314679 0
M  V30 16 C -3.217587 0.454796 -1.532618 0
M  V30 17 N -4.181218 0.388068 -0.466117 0
M  V30 18 C -4.107965 -0.882834 0.135499 0
M  V30 19 O -3.210085 -1.563006 -0.461099 0
M  V30 20 C -4.888729 -1.398124 1.246456 0
M  V30 21 C -5.880425 -0.803792 1.989512 0
M  V30 22 F -6.172718 0.461000 1.625960 0
M  V30 23 C -6.542084 -1.417514 3.025515 0
M  V30 24 C -6.231263 -2.710804 3.384644 0
M  V30 25 C -5.239697 -3.329228 2.654631 0
M  V30 26 C -4.578886 -2.711805 1.617538 0
M  V30 27 Cl -3.335226 -3.637094 0.781972 0
M  V30 28 N -3.330085 0.144761 -2.836822 0
M  V30 29 N -2.185307 0.359692 -3.460445 0
M  V30 30 C -1.300710 0.822590 -2.539489 0
M  V30 31 C 0.098487 1.305024 -2.256897 0
M  V30 32 C 0.036569 2.810984 -2.386239 0
M  V30 33 C 1.071178 0.697567 -3.228990 0
M  V30 34 H -0.160111 -0.700044 1.791354 0
M  V30 35 H 0.452078 -0.614082 3.517681 0
M  V30 36 H 0.538750 0.835065 2.383107 0
M  V30 37 H 2.715892 -0.194099 2.617397 0
M  V30 38 H 1.752844 -2.462072 3.295312 0
M  V30 39 H 1.126094 -2.627646 1.625398 0
M  V30 40 H 4.107259 -2.761989 3.592567 0
M  V30 41 H 3.676166 -4.430358 2.992552 0
M  V30 42 H 6.148910 -3.064793 2.635494 0
M  V30 43 H 5.623667 -4.542129 1.688719 0
M  V30 44 H 6.148819 -1.999938 0.597518 0
M  V30 45 H 4.942721 -3.245679 -0.078538 0
M  V30 46 H 4.444837 -1.064037 2.015647 0
M  V30 47 H 3.119416 -1.829993 -0.646378 0
M  V30 48 H 4.058364 -0.280014 -0.348394 0
M  V30 49 H -0.796599 2.528650 -0.482975 0
M  V30 50 H -1.066051 1.198298 0.637640 0
M  V30 51 H -4.872736 1.067695 -0.089979 0
M  V30 52 H -7.310514 -0.809293 3.522369 0
M  V30 53 H -6.787785 -3.135714 4.207071 0
M  V30 54 H -4.984310 -4.341724 2.923013 0
M  V30 55 H -1.974361 0.210847 -4.465719 0
M  V30 56 H -0.984716 3.218879 -2.389127 0
M  V30 57 H 0.437963 3.032693 -3.416039 0
M  V30 58 H 0.658124 3.332105 -1.657123 0
M  V30 59 H 2.063786 1.141558 -3.195880 0
M  V30 60 H 1.014760 -0.398214 -3.154515 0
M  V30 61 H 0.672140 0.940555 -4.258991 0
M  V30 END ATOM
M  V30 BEGIN BOND
M  V30 1 1 1 2
M  V30 2 1 2 3
M  V30 3 1 3 4
M  V30 4 1 4 5
M  V30 5 1 5 6
M  V30 6 1 6 7
M  V30 7 1 7 8
M  V30 8 1 8 9
M  V30 9 1 9 10
M  V30 10 1 10 11
M  V30 11 2 11 12
M  V30 12 1 11 13
M  V30 13 1 13 14
M  V30 14 1 14 15
M  V30 15 1 15 16
M  V30 16 1 16 17
M  V30 17 1 17 18
M  V30 18 2 18 19
M  V30 19 1 18 20
M  V30 20 2 20 21
M  V30 21 1 21 22
M  V30 22 1 21 23
M  V30 23 2 23 24
M  V30 24 1 24 25
M  V30 25 2 25 26
M  V30 26 1 26 27
M  V30 27 2 16 28
M  V30 28 1 28 29
M  V30 29 1 29 30
M  V30 30 1 30 31
M  V30 31 1 31 32
M  V30 32 1 31 33
M  V30 33 1 10 2
M  V30 34 1 31 13
M  V30 35 1 8 4
M  V30 36 2 30 15
M  V30 37 1 26 20
M  V30 38 1 1 34
M  V30 39 1 1 35
M  V30 40 1 1 36
M  V30 41 1 2 37 CFG=1
M  V30 42 1 3 38
M  V30 43 1 3 39
M  V30 44 1 5 40
M  V30 45 1 5 41
M  V30 46 1 6 42
M  V30 47 1 6 43
M  V30 48 1 7 44
M  V30 49 1 7 45
M  V30 50 1 8 46 CFG=1
M  V30 51 1 9 47
M  V30 52 1 9 48
M  V30 53 1 14 49
M  V30 54 1 14 50
M  V30 55 1 17 51
M  V30 56 1 23 52
M  V30 57 1 24 53
M  V30 58 1 25 54
M  V30 59 1 29 55
M  V30 60 1 32 56
M  V30 61 1 32 57
M  V30 62 1 32 58
M  V30 63 1 33 59
M  V30 64 1 33 60
M  V30 65 1 33 61
M  V30 END BOND
M  V30 END CTAB
M  END
>  <Dataset>  (739) 
ChEMBL_Kinases

>  <Ligand_Instance>  (739) 
nan

>  <PDB_ID>  (739) 
nan

>  <Standardized_SMILES>  (739) 
C[C@H]1CN2CCC[C@H]2CN1C(=O)N1Cc2c(NC(=O)c3c(F)cccc3Cl)n[nH]c2C1(C)C

>  <Name>  (739) 
nan

>  <Pocket>  (739) 
nan

>  <ATP_Site>  (739) 
nan

>  <Peripheral>  (739) 
nan

>  <Num_H_Atoms_ProtBoundConf>  (739) 
nan

>  <Num_Resolved_Atoms>  (739) 
nan

>  <Num_Not_Resolved_Atoms>  (739) 
nan

$$$$
CHEMBL3662754
     RDKit          3D

  0  0  0  0  0  0  0  0  0  0999 V3000
M  V30 BEGIN CTAB
M  V30 COUNTS 65 69 0 0 0
M  V30 BEGIN ATOM
M  V30 1 C 4.521394 0.372457 8.982728 0
M  V30 2 O 3.351693 1.096150 8.605367 0
M  V30 3 C 3.045081 1.266381 7.247112 0
M  V30 4 C 3.840871 0.754354 6.226962 0
M  V30 5 C 3.525557 0.929916 4.895321 0
M  V30 6 C 2.386326 1.635235 4.565005 0
M  V30 7 C 1.947555 1.887226 3.193859 0
M  V30 8 O 0.902165 2.520894 2.866989 0
M  V30 9 N 2.700368 1.415871 2.085855 0
M  V30 10 C 2.443292 1.556191 0.692535 0
M  V30 11 N 2.842250 2.556833 -0.141006 0
M  V30 12 N 2.411044 2.338662 -1.373526 0
M  V30 13 C 1.707153 1.194033 -1.437878 0
M  V30 14 C 1.727376 0.697514 -0.128781 0
M  V30 15 C 0.951797 -0.567429 -0.199064 0
M  V30 16 N 0.089401 -0.427594 -1.356579 0
M  V30 17 C -1.226971 -0.845052 -1.491832 0
M  V30 18 O -1.133140 -1.255305 -0.307276 0
M  V30 19 N -2.541551 -1.253640 -1.649121 0
M  V30 20 C -3.186330 -1.886197 -0.541123 0
M  V30 21 C -4.411909 -2.654331 -0.917378 0 CFG=2
M  V30 22 C -4.399590 -4.064372 -0.361182 0
M  V30 23 C -4.531856 -4.977761 -1.557635 0
M  V30 24 C -4.120699 -4.092974 -2.705503 0
M  V30 25 N -4.655478 -2.818672 -2.305869 0
M  V30 26 C -4.404607 -1.727523 -3.164905 0
M  V30 27 C -3.116266 -0.989591 -2.958349 0 CFG=2
M  V30 28 C -2.066943 -1.367312 -3.983887 0
M  V30 29 C 0.933513 0.255012 -2.297938 0
M  V30 30 C 1.907134 -0.628059 -2.999938 0
M  V30 31 C 0.104725 1.128539 -3.215615 0
M  V30 32 C 1.580244 2.153808 5.582066 0
M  V30 33 C 1.904854 1.972270 6.922462 0
M  V30 34 H 5.399513 0.740977 8.397507 0
M  V30 35 H 4.721130 0.562175 10.057227 0
M  V30 36 H 4.299788 -0.703392 8.801746 0
M  V30 37 H 4.712322 0.216128 6.542705 0
M  V30 38 H 4.140003 0.534664 4.116751 0
M  V30 39 H 3.586650 0.876535 2.192301 0
M  V30 40 H 2.616128 2.993998 -2.147737 0
M  V30 41 H 1.646850 -1.413214 -0.345570 0
M  V30 42 H 0.386932 -0.753418 0.743541 0
M  V30 43 H -2.477320 -2.594687 -0.054543 0
M  V30 44 H -3.419743 -1.116770 0.228107 0
M  V30 45 H -5.302293 -2.137334 -0.472333 0
M  V30 46 H -3.428111 -4.308473 0.102932 0
M  V30 47 H -5.260769 -4.243646 0.322876 0
M  V30 48 H -3.888801 -5.877854 -1.466518 0
M  V30 49 H -5.610920 -5.269867 -1.702246 0
M  V30 50 H -4.551878 -4.392061 -3.676267 0
M  V30 51 H -3.011342 -4.075192 -2.776659 0
M  V30 52 H -4.359881 -2.138042 -4.213372 0
M  V30 53 H -5.289900 -1.041584 -3.160897 0
M  V30 54 H -3.327745 0.094821 -3.043597 0
M  V30 55 H -1.999498 -0.630276 -4.803430 0
M  V30 56 H -2.374052 -2.344990 -4.441397 0
M  V30 57 H -1.068689 -1.499568 -3.537977 0
M  V30 58 H 1.567994 -0.987866 -3.990775 0
M  V30 59 H 2.178096 -1.464185 -2.308915 0
M  V30 60 H 2.898127 -0.121200 -3.195216 0
M  V30 61 H -0.895179 1.292424 -2.745461 0
M  V30 62 H 0.545193 2.159210 -3.318129 0
M  V30 63 H -0.035186 0.733295 -4.219739 0
M  V30 64 H 0.672394 2.714836 5.309457 0
M  V30 65 H 1.220674 2.411218 7.638544 0
M  V30 END ATOM
M  V30 BEGIN BOND
M  V30 1 1 1 2
M  V30 2 1 2 3
M  V30 3 2 3 4
M  V30 4 1 4 5
M  V30 5 2 5 6
M  V30 6 1 6 7
M  V30 7 2 7 8
M  V30 8 1 7 9
M  V30 9 1 9 10
M  V30 10 2 10 11
M  V30 11 1 11 12
M  V30 12 1 12 13
M  V30 13 2 13 14
M  V30 14 1 14 15
M  V30 15 1 15 16
M  V30 16 1 16 17
M  V30 17 2 17 18
M  V30 18 1 17 19
M  V30 19 1 19 20
M  V30 20 1 20 21
M  V30 21 1 21 22
M  V30 22 1 22 23
M  V30 23 1 23 24
M  V30 24 1 24 25
M  V30 25 1 25 26
M  V30 26 1 26 27
M  V30 27 1 27 28
M  V30 28 1 16 29
M  V30 29 1 29 30
M  V30 30 1 29 31
M  V30 31 1 6 32
M  V30 32 2 32 33
M  V30 33 1 33 3
M  V30 34 1 14 10
M  V30 35 1 27 19
M  V30 36 1 29 13
M  V30 37 1 25 21
M  V30 38 1 1 34
M  V30 39 1 1 35
M  V30 40 1 1 36
M  V30 41 1 4 37
M  V30 42 1 5 38
M  V30 43 1 9 39
M  V30 44 1 12 40
M  V30 45 1 15 41
M  V30 46 1 15 42
M  V30 47 1 20 43
M  V30 48 1 20 44
M  V30 49 1 21 45 CFG=1
M  V30 50 1 22 46
M  V30 51 1 22 47
M  V30 52 1 23 48
M  V30 53 1 23 49
M  V30 54 1 24 50
M  V30 55 1 24 51
M  V30 56 1 26 52
M  V30 57 1 26 53
M  V30 58 1 27 54 CFG=1
M  V30 59 1 28 55
M  V30 60 1 28 56
M  V30 61 1 28 57
M  V30 62 1 30 58
M  V30 63 1 30 59
M  V30 64 1 30 60
M  V30 65 1 31 61
M  V30 66 1 31 62
M  V30 67 1 31 63
M  V30 68 1 32 64
M  V30 69 1 33 65
M  V30 END BOND
M  V30 END CTAB
M  END
>  <Dataset>  (740) 
ChEMBL_Kinases

>  <Ligand_Instance>  (740) 
nan

>  <PDB_ID>  (740) 
nan

>  <Standardized_SMILES>  (740) 
COc1ccc(C(=O)Nc2n[nH]c3c2CN(C(=O)N2C[C@@H]4CCCN4C[C@@H]2C)C3(C)C)cc1

>  <Name>  (740) 
nan

>  <Pocket>  (740) 
nan

>  <ATP_Site>  (740) 
nan

>  <Peripheral>  (740) 
nan

>  <Num_H_Atoms_ProtBoundConf>  (740) 
nan

>  <Num_Resolved_Atoms>  (740) 
nan

>  <Num_Not_Resolved_Atoms>  (740) 
nan

$$$$
CHEMBL3662755
     RDKit          3D

  0  0  0  0  0  0  0  0  0  0999 V3000
M  V30 BEGIN CTAB
M  V30 COUNTS 65 69 0 0 0
M  V30 BEGIN ATOM
M  V30 1 C 3.567089 3.594868 0.433888 0
M  V30 2 C 3.141356 2.493081 1.382802 0 CFG=1
M  V30 3 C 3.253594 2.968877 2.810331 0
M  V30 4 N 2.454253 2.093474 3.638974 0
M  V30 5 C 2.952214 1.918473 4.969334 0
M  V30 6 C 2.337162 0.623505 5.454070 0
M  V30 7 C 1.968362 -0.075416 4.167851 0
M  V30 8 C 2.556508 0.771606 3.052645 0 CFG=1
M  V30 9 C 1.554158 0.759302 1.895218 0
M  V30 10 N 1.849696 1.928159 1.080689 0
M  V30 11 C 0.911129 2.370533 0.122723 0
M  V30 12 O 1.329124 3.404978 -0.459296 0
M  V30 13 N -0.345684 1.837710 -0.238569 0
M  V30 14 C -1.191143 0.706247 0.126296 0
M  V30 15 C -1.536599 0.160830 -1.235514 0
M  V30 16 C -1.829793 -0.980140 -1.954926 0
M  V30 17 N -1.906125 -2.314834 -1.465201 0
M  V30 18 C -2.218940 -3.417237 -2.305487 0
M  V30 19 O -2.418685 -3.101889 -3.506362 0
M  V30 20 C -2.296259 -4.783577 -1.800273 0
M  V30 21 C -2.086761 -5.180571 -0.501273 0
M  V30 22 C -2.178219 -6.492742 -0.101827 0
M  V30 23 C -2.496905 -7.471301 -1.048183 0
M  V30 24 O -2.559218 -8.750536 -0.525404 0
M  V30 25 C -3.829551 -9.163433 -0.040033 0
M  V30 26 F -4.776009 -9.134856 -1.048588 0
M  V30 27 F -3.813409 -10.423244 0.488665 0
M  V30 28 F -4.292426 -8.307531 0.943098 0
M  V30 29 C -2.709899 -7.089039 -2.354905 0
M  V30 30 C -2.614942 -5.768157 -2.742676 0
M  V30 31 N -2.025437 -0.551593 -3.212096 0
M  V30 32 N -1.871436 0.755160 -3.296104 0
M  V30 33 C -1.564069 1.244383 -2.079963 0
M  V30 34 C -1.240922 2.411271 -1.220873 0
M  V30 35 C -2.534692 2.830753 -0.564240 0
M  V30 36 C -0.631156 3.529639 -2.029355 0
M  V30 37 H 4.634773 3.812187 0.732450 0
M  V30 38 H 3.623997 3.224968 -0.590162 0
M  V30 39 H 3.037016 4.533932 0.599677 0
M  V30 40 H 3.894027 1.665296 1.210395 0
M  V30 41 H 4.310967 2.874178 3.184614 0
M  V30 42 H 2.973223 4.035471 2.938496 0
M  V30 43 H 4.053861 1.823024 4.967959 0
M  V30 44 H 2.602918 2.742795 5.651663 0
M  V30 45 H 3.044089 0.012822 6.042276 0
M  V30 46 H 1.432368 0.802337 6.094913 0
M  V30 47 H 0.858880 -0.036069 4.074824 0
M  V30 48 H 2.325047 -1.102890 4.110023 0
M  V30 49 H 3.558461 0.460003 2.772909 0
M  V30 50 H 1.635298 -0.181850 1.335811 0
M  V30 51 H 0.566837 0.870764 2.409415 0
M  V30 52 H -2.074177 1.063185 0.675972 0
M  V30 53 H -0.647292 -0.098325 0.658694 0
M  V30 54 H -1.724248 -2.481612 -0.450047 0
M  V30 55 H -1.843344 -4.410303 0.206791 0
M  V30 56 H -1.995081 -6.721742 0.956813 0
M  V30 57 H -2.953823 -7.915462 -3.028905 0
M  V30 58 H -2.803816 -5.583808 -3.800745 0
M  V30 59 H -1.959206 1.376285 -4.140226 0
M  V30 60 H -3.305068 2.052768 -0.598239 0
M  V30 61 H -2.334811 3.068347 0.499265 0
M  V30 62 H -2.904783 3.806118 -0.995303 0
M  V30 63 H -1.349201 3.745963 -2.853439 0
M  V30 64 H 0.283763 3.148899 -2.501804 0
M  V30 65 H -0.528104 4.408158 -1.394734 0
M  V30 END ATOM
M  V30 BEGIN BOND
M  V30 1 1 1 2
M  V30 2 1 2 3
M  V30 3 1 3 4
M  V30 4 1 4 5
M  V30 5 1 5 6
M  V30 6 1 6 7
M  V30 7 1 7 8
M  V30 8 1 8 9
M  V30 9 1 9 10
M  V30 10 1 10 11
M  V30 11 2 11 12
M  V30 12 1 11 13
M  V30 13 1 13 14
M  V30 14 1 14 15
M  V30 15 1 15 16
M  V30 16 1 16 17
M  V30 17 1 17 18
M  V30 18 2 18 19
M  V30 19 1 18 20
M  V30 20 2 20 21
M  V30 21 1 21 22
M  V30 22 2 22 23
M  V30 23 1 23 24
M  V30 24 1 24 25
M  V30 25 1 25 26
M  V30 26 1 25 27
M  V30 27 1 25 28
M  V30 28 1 23 29
M  V30 29 2 29 30
M  V30 30 2 16 31
M  V30 31 1 31 32
M  V30 32 1 32 33
M  V30 33 1 33 34
M  V30 34 1 34 35
M  V30 35 1 34 36
M  V30 36 1 10 2
M  V30 37 1 34 13
M  V30 38 1 8 4
M  V30 39 2 33 15
M  V30 40 1 30 20
M  V30 41 1 1 37
M  V30 42 1 1 38
M  V30 43 1 1 39
M  V30 44 1 2 40 CFG=1
M  V30 45 1 3 41
M  V30 46 1 3 42
M  V30 47 1 5 43
M  V30 48 1 5 44
M  V30 49 1 6 45
M  V30 50 1 6 46
M  V30 51 1 7 47
M  V30 52 1 7 48
M  V30 53 1 8 49 CFG=3
M  V30 54 1 9 50
M  V30 55 1 9 51
M  V30 56 1 14 52
M  V30 57 1 14 53
M  V30 58 1 17 54
M  V30 59 1 21 55
M  V30 60 1 22 56
M  V30 61 1 29 57
M  V30 62 1 30 58
M  V30 63 1 32 59
M  V30 64 1 35 60
M  V30 65 1 35 61
M  V30 66 1 35 62
M  V30 67 1 36 63
M  V30 68 1 36 64
M  V30 69 1 36 65
M  V30 END BOND
M  V30 END CTAB
M  END
>  <Dataset>  (741) 
ChEMBL_Kinases

>  <Ligand_Instance>  (741) 
nan

>  <PDB_ID>  (741) 
nan

>  <Standardized_SMILES>  (741) 
C[C@H]1CN2CCC[C@H]2CN1C(=O)N1Cc2c(NC(=O)c3ccc(OC(F)(F)F)cc3)n[nH]c2C1(C)C

>  <Name>  (741) 
nan

>  <Pocket>  (741) 
nan

>  <ATP_Site>  (741) 
nan

>  <Peripheral>  (741) 
nan

>  <Num_H_Atoms_ProtBoundConf>  (741) 
nan

>  <Num_Resolved_Atoms>  (741) 
nan

>  <Num_Not_Resolved_Atoms>  (741) 
nan

$$$$
CHEMBL3662756
     RDKit          3D

  0  0  0  0  0  0  0  0  0  0999 V3000
M  V30 BEGIN CTAB
M  V30 COUNTS 64 68 0 0 0
M  V30 BEGIN ATOM
M  V30 1 C 3.332327 2.614792 7.707322 0
M  V30 2 C 2.902791 2.664870 6.288164 0
M  V30 3 C 3.199192 1.807797 5.237746 0
M  V30 4 C 2.560719 2.282941 4.115887 0
M  V30 5 C 2.707806 1.563997 2.868448 0
M  V30 6 O 3.423065 0.506157 2.838900 0
M  V30 7 N 2.176421 1.821998 1.583344 0
M  V30 8 C 2.636306 0.790474 0.692742 0
M  V30 9 N 3.754089 0.770765 -0.055857 0
M  V30 10 N 3.797046 -0.368637 -0.733520 0
M  V30 11 C 2.692248 -1.077468 -0.408621 0
M  V30 12 C 1.926773 -0.373953 0.497169 0
M  V30 13 C 0.772493 -1.264845 0.750544 0
M  V30 14 N 0.588012 -1.886749 -0.567144 0
M  V30 15 C -0.368127 -2.114978 -1.591398 0
M  V30 16 O -0.170714 -2.737111 -2.662134 0
M  V30 17 N -1.709524 -1.750749 -1.716900 0
M  V30 18 C -2.418455 -2.161152 -2.913623 0
M  V30 19 C -3.542024 -3.064082 -2.424820 0 CFG=2
M  V30 20 C -4.334382 -3.689159 -3.529911 0
M  V30 21 C -5.744321 -3.697364 -2.917425 0
M  V30 22 C -5.741563 -2.330475 -2.267953 0
M  V30 23 N -4.459979 -2.316227 -1.588450 0
M  V30 24 C -3.996336 -0.967393 -1.351220 0
M  V30 25 C -2.581068 -1.002200 -0.840205 0 CFG=2
M  V30 26 C -2.104560 0.426457 -0.659676 0
M  V30 27 C 1.954968 -2.354088 -0.649812 0
M  V30 28 C 2.312363 -2.930101 -2.003082 0
M  V30 29 C 2.317249 -3.337332 0.418318 0
M  V30 30 N 1.909106 3.384734 4.493627 0
M  V30 31 C 1.106550 4.190932 3.600110 0
M  V30 32 N 2.115079 3.613896 5.799435 0
M  V30 33 H 2.524609 2.131634 8.331117 0
M  V30 34 H 4.264017 2.029080 7.840738 0
M  V30 35 H 3.439482 3.643053 8.114490 0
M  V30 36 H 3.841137 0.960393 5.453252 0
M  V30 37 H 1.575495 2.667208 1.501387 0
M  V30 38 H 4.532651 -0.682343 -1.397537 0
M  V30 39 H -0.068992 -0.652609 1.068560 0
M  V30 40 H 1.016932 -2.044535 1.504850 0
M  V30 41 H -1.813985 -2.729115 -3.614811 0
M  V30 42 H -2.887763 -1.282200 -3.403612 0
M  V30 43 H -3.150294 -3.894350 -1.800990 0
M  V30 44 H -4.311054 -3.108475 -4.452240 0
M  V30 45 H -4.044001 -4.768945 -3.688774 0
M  V30 46 H -5.766604 -4.439554 -2.091893 0
M  V30 47 H -6.520458 -3.831792 -3.669531 0
M  V30 48 H -6.555659 -2.167797 -1.557075 0
M  V30 49 H -5.770865 -1.589060 -3.100414 0
M  V30 50 H -4.167380 -0.270859 -2.186088 0
M  V30 51 H -4.610803 -0.578542 -0.484975 0
M  V30 52 H -2.596534 -1.518992 0.136040 0
M  V30 53 H -2.040779 0.656672 0.432972 0
M  V30 54 H -2.841249 1.142136 -1.086013 0
M  V30 55 H -1.122157 0.584173 -1.114953 0
M  V30 56 H 2.093916 -2.235172 -2.811672 0
M  V30 57 H 1.772541 -3.885057 -2.109835 0
M  V30 58 H 3.386993 -3.202920 -1.930940 0
M  V30 59 H 2.872104 -2.816315 1.223566 0
M  V30 60 H 1.442932 -3.907306 0.800428 0
M  V30 61 H 3.059886 -4.055028 -0.014009 0
M  V30 62 H 0.670123 5.039465 4.188381 0
M  V30 63 H 0.256545 3.574005 3.239562 0
M  V30 64 H 1.716130 4.632022 2.803727 0
M  V30 END ATOM
M  V30 BEGIN BOND
M  V30 1 1 1 2
M  V30 2 1 2 3
M  V30 3 2 3 4
M  V30 4 1 4 5
M  V30 5 2 5 6
M  V30 6 1 5 7
M  V30 7 1 7 8
M  V30 8 2 8 9
M  V30 9 1 9 10
M  V30 10 1 10 11
M  V30 11 2 11 12
M  V30 12 1 12 13
M  V30 13 1 13 14
M  V30 14 1 14 15
M  V30 15 2 15 16
M  V30 16 1 15 17
M  V30 17 1 17 18
M  V30 18 1 18 19
M  V30 19 1 19 20
M  V30 20 1 20 21
M  V30 21 1 21 22
M  V30 22 1 22 23
M  V30 23 1 23 24
M  V30 24 1 24 25
M  V30 25 1 25 26
M  V30 26 1 14 27
M  V30 27 1 27 28
M  V30 28 1 27 29
M  V30 29 1 4 30
M  V30 30 1 30 31
M  V30 31 1 30 32
M  V30 32 2 32 2
M  V30 33 1 12 8
M  V30 34 1 25 17
M  V30 35 1 27 11
M  V30 36 1 23 19
M  V30 37 1 1 33
M  V30 38 1 1 34
M  V30 39 1 1 35
M  V30 40 1 3 36
M  V30 41 1 7 37
M  V30 42 1 10 38
M  V30 43 1 13 39
M  V30 44 1 13 40
M  V30 45 1 18 41
M  V30 46 1 18 42
M  V30 47 1 19 43 CFG=1
M  V30 48 1 20 44
M  V30 49 1 20 45
M  V30 50 1 21 46
M  V30 51 1 21 47
M  V30 52 1 22 48
M  V30 53 1 22 49
M  V30 54 1 24 50
M  V30 55 1 24 51
M  V30 56 1 25 52 CFG=1
M  V30 57 1 26 53
M  V30 58 1 26 54
M  V30 59 1 26 55
M  V30 60 1 28 56
M  V30 61 1 28 57
M  V30 62 1 28 58
M  V30 63 1 29 59
M  V30 64 1 29 60
M  V30 65 1 29 61
M  V30 66 1 31 62
M  V30 67 1 31 63
M  V30 68 1 31 64
M  V30 END BOND
M  V30 END CTAB
M  END
>  <Dataset>  (742) 
ChEMBL_Kinases

>  <Ligand_Instance>  (742) 
nan

>  <PDB_ID>  (742) 
nan

>  <Standardized_SMILES>  (742) 
Cc1cc(C(=O)Nc2n[nH]c3c2CN(C(=O)N2C[C@@H]4CCCN4C[C@@H]2C)C3(C)C)n(C)n1

>  <Name>  (742) 
nan

>  <Pocket>  (742) 
nan

>  <ATP_Site>  (742) 
nan

>  <Peripheral>  (742) 
nan

>  <Num_H_Atoms_ProtBoundConf>  (742) 
nan

>  <Num_Resolved_Atoms>  (742) 
nan

>  <Num_Not_Resolved_Atoms>  (742) 
nan

$$$$
CHEMBL3662757
     RDKit          3D

  0  0  0  0  0  0  0  0  0  0999 V3000
M  V30 BEGIN CTAB
M  V30 COUNTS 57 61 0 0 0
M  V30 BEGIN ATOM
M  V30 1 C -1.396757 3.790490 0.443410 0
M  V30 2 C -0.119536 3.011444 0.416872 0 CFG=1
M  V30 3 C 0.634194 3.291929 1.704972 0
M  V30 4 N 2.021956 2.887389 1.586445 0
M  V30 5 C 2.652006 2.558675 2.823835 0
M  V30 6 C 3.084702 1.125929 2.770400 0
M  V30 7 C 3.283092 0.898450 1.274525 0
M  V30 8 C 2.174466 1.754788 0.702166 0 CFG=1
M  V30 9 C 0.931786 0.893973 0.663629 0
M  V30 10 N -0.241879 1.613444 0.192075 0
M  V30 11 C -1.378577 0.969928 -0.420704 0
M  V30 12 O -2.263590 1.832141 -0.768091 0
M  V30 13 N -1.512101 -0.455251 -0.621191 0
M  V30 14 C -0.700624 -1.631038 -0.321027 0
M  V30 15 C -1.680598 -2.737792 -0.426046 0
M  V30 16 C -1.732614 -4.098291 -0.109516 0
M  V30 17 N -0.717493 -4.907391 0.478606 0
M  V30 18 C 0.178337 -5.556274 -0.388168 0
M  V30 19 O 0.206572 -5.518941 -1.644705 0
M  V30 20 C 1.212161 -6.384522 0.300811 0
M  V30 21 C 1.510639 -6.673418 1.558183 0
M  V30 22 N 2.540920 -7.474121 1.719050 0
M  V30 23 C 3.227957 -7.967262 0.958499 0
M  V30 24 S 2.442439 -7.286472 -0.659520 0
M  V30 25 N -2.988065 -4.470353 -0.497440 0
M  V30 26 N -3.617246 -3.421059 -0.997500 0
M  V30 27 C -2.861786 -2.310498 -0.983444 0
M  V30 28 C -2.751641 -0.871170 -1.299283 0
M  V30 29 C -3.951991 -0.173943 -0.734400 0
M  V30 30 C -2.646188 -0.662018 -2.785479 0
M  V30 31 H -1.224132 4.771296 0.985572 0
M  V30 32 H -2.217264 3.304175 1.016202 0
M  V30 33 H -1.718431 4.076033 -0.577326 0
M  V30 34 H 0.510213 3.428744 -0.395929 0
M  V30 35 H 0.631853 4.393894 1.838410 0
M  V30 36 H 0.119672 2.863456 2.588696 0
M  V30 37 H 3.542211 3.240795 2.948088 0
M  V30 38 H 2.023234 2.761932 3.714154 0
M  V30 39 H 2.266228 0.482291 3.132792 0
M  V30 40 H 4.032684 0.971756 3.331480 0
M  V30 41 H 3.177016 -0.148814 0.975889 0
M  V30 42 H 4.269585 1.300544 0.952079 0
M  V30 43 H 2.476256 2.099166 -0.295536 0
M  V30 44 H 0.775924 0.390637 1.620902 0
M  V30 45 H 1.133021 0.126983 -0.111949 0
M  V30 46 H 0.101546 -1.817342 -1.030611 0
M  V30 47 H -0.349423 -1.503267 0.732562 0
M  V30 48 H -0.666716 -4.995266 1.516625 0
M  V30 49 H 0.865798 -6.212595 2.315230 0
M  V30 50 H 4.072003 -8.627740 1.186191 0
M  V30 51 H -4.596855 -3.507952 -1.350458 0
M  V30 52 H -4.820983 -0.877137 -0.825878 0
M  V30 53 H -3.786093 0.152866 0.295489 0
M  V30 54 H -4.208969 0.684474 -1.412100 0
M  V30 55 H -2.448991 0.397221 -2.992790 0
M  V30 56 H -3.603241 -1.008220 -3.219329 0
M  V30 57 H -1.834676 -1.290449 -3.184326 0
M  V30 END ATOM
M  V30 BEGIN BOND
M  V30 1 1 1 2
M  V30 2 1 2 3
M  V30 3 1 3 4
M  V30 4 1 4 5
M  V30 5 1 5 6
M  V30 6 1 6 7
M  V30 7 1 7 8
M  V30 8 1 8 9
M  V30 9 1 9 10
M  V30 10 1 10 11
M  V30 11 2 11 12
M  V30 12 1 11 13
M  V30 13 1 13 14
M  V30 14 1 14 15
M  V30 15 1 15 16
M  V30 16 1 16 17
M  V30 17 1 17 18
M  V30 18 2 18 19
M  V30 19 1 18 20
M  V30 20 2 20 21
M  V30 21 1 21 22
M  V30 22 2 22 23
M  V30 23 1 23 24
M  V30 24 2 16 25
M  V30 25 1 25 26
M  V30 26 1 26 27
M  V30 27 1 27 28
M  V30 28 1 28 29
M  V30 29 1 28 30
M  V30 30 1 10 2
M  V30 31 1 28 13
M  V30 32 1 8 4
M  V30 33 2 27 15
M  V30 34 1 24 20
M  V30 35 1 1 31
M  V30 36 1 1 32
M  V30 37 1 1 33
M  V30 38 1 2 34 CFG=3
M  V30 39 1 3 35
M  V30 40 1 3 36
M  V30 41 1 5 37
M  V30 42 1 5 38
M  V30 43 1 6 39
M  V30 44 1 6 40
M  V30 45 1 7 41
M  V30 46 1 7 42
M  V30 47 1 8 43 CFG=3
M  V30 48 1 9 44
M  V30 49 1 9 45
M  V30 50 1 14 46
M  V30 51 1 14 47
M  V30 52 1 17 48
M  V30 53 1 21 49
M  V30 54 1 23 50
M  V30 55 1 26 51
M  V30 56 1 29 52
M  V30 57 1 29 53
M  V30 58 1 29 54
M  V30 59 1 30 55
M  V30 60 1 30 56
M  V30 61 1 30 57
M  V30 END BOND
M  V30 END CTAB
M  END
>  <Dataset>  (743) 
ChEMBL_Kinases

>  <Ligand_Instance>  (743) 
nan

>  <PDB_ID>  (743) 
nan

>  <Standardized_SMILES>  (743) 
C[C@H]1CN2CCC[C@H]2CN1C(=O)N1Cc2c(NC(=O)c3cncs3)n[nH]c2C1(C)C

>  <Name>  (743) 
nan

>  <Pocket>  (743) 
nan

>  <ATP_Site>  (743) 
nan

>  <Peripheral>  (743) 
nan

>  <Num_H_Atoms_ProtBoundConf>  (743) 
nan

>  <Num_Resolved_Atoms>  (743) 
nan

>  <Num_Not_Resolved_Atoms>  (743) 
nan

$$$$
CHEMBL3662767
     RDKit          3D

  0  0  0  0  0  0  0  0  0  0999 V3000
M  V30 BEGIN CTAB
M  V30 COUNTS 63 68 0 0 0
M  V30 BEGIN ATOM
M  V30 1 C 3.721730 1.782092 2.770762 0
M  V30 2 C 3.501911 0.505222 1.995565 0 CFG=1
M  V30 3 C 4.011754 -0.698244 2.694159 0
M  V30 4 N 3.040975 -1.442721 3.410355 0
M  V30 5 C 2.700816 -0.979550 4.712812 0
M  V30 6 C 1.284592 -1.424187 4.999838 0
M  V30 7 C 0.961376 -2.296390 3.807613 0
M  V30 8 C 1.855551 -1.758199 2.702266 0 CFG=1
M  V30 9 C 1.211060 -0.669395 1.924054 0
M  V30 10 N 2.125156 0.381235 1.543167 0
M  V30 11 C 1.740260 1.444494 0.651513 0
M  V30 12 O 2.645946 2.318616 0.379848 0
M  V30 13 N 0.505943 1.718272 -0.006247 0
M  V30 14 C -0.796583 1.132604 -0.074015 0
M  V30 15 C -1.027633 0.994758 -1.534796 0
M  V30 16 C -1.569695 0.313286 -2.603507 0
M  V30 17 N -2.314660 -0.885244 -2.428678 0
M  V30 18 C -1.747045 -2.165965 -2.430970 0
M  V30 19 O -0.552601 -2.448546 -2.579851 0
M  V30 20 C -2.778022 -3.227303 -2.224510 0
M  V30 21 N -3.943786 -3.323113 -2.056984 0
M  V30 22 C -4.639955 -4.426740 -1.894396 0
M  V30 23 C -5.994661 -4.592179 -1.696389 0
M  V30 24 C -6.517004 -5.847332 -1.548785 0
M  V30 25 C -5.798565 -7.025201 -1.578145 0
M  V30 26 C -4.439122 -6.916467 -1.773387 0
M  V30 27 C -3.911747 -5.613992 -1.924496 0
M  V30 28 S -2.204196 -4.994883 -2.198480 0
M  V30 29 N -1.277963 0.953600 -3.748180 0
M  V30 30 N -0.568966 2.012232 -3.403552 0
M  V30 31 C -0.390042 2.081385 -2.073440 0
M  V30 32 C 0.198647 2.810745 -0.901738 0
M  V30 33 C -0.839364 3.772174 -0.350742 0
M  V30 34 C 1.414511 3.600315 -1.341439 0
M  V30 35 H 2.792478 2.219866 3.186339 0
M  V30 36 H 4.348364 1.526292 3.652927 0
M  V30 37 H 4.294690 2.541984 2.200988 0
M  V30 38 H 4.101763 0.619186 1.044270 0
M  V30 39 H 4.814577 -0.429618 3.443543 0
M  V30 40 H 4.530763 -1.406730 1.991248 0
M  V30 41 H 3.389521 -1.397587 5.493713 0
M  V30 42 H 2.734835 0.109808 4.853054 0
M  V30 43 H 1.257663 -1.967842 5.956142 0
M  V30 44 H 0.573448 -0.566778 4.994651 0
M  V30 45 H -0.100389 -2.198224 3.581084 0
M  V30 46 H 1.305598 -3.318680 4.064369 0
M  V30 47 H 2.090037 -2.658495 2.061838 0
M  V30 48 H 0.892983 -1.139889 0.945674 0
M  V30 49 H 0.285576 -0.281914 2.388100 0
M  V30 50 H -1.544907 1.903742 0.287583 0
M  V30 51 H -0.946221 0.185992 0.458351 0
M  V30 52 H -3.324088 -0.654604 -2.302548 0
M  V30 53 H -6.697529 -3.757297 -1.648837 0
M  V30 54 H -7.601835 -5.966639 -1.391110 0
M  V30 55 H -6.153257 -8.027486 -1.469040 0
M  V30 56 H -3.714774 -7.700599 -1.826960 0
M  V30 57 H -0.187415 2.719560 -4.081365 0
M  V30 58 H -1.829906 3.560755 -0.800255 0
M  V30 59 H -0.926771 3.750797 0.748144 0
M  V30 60 H -0.584768 4.819667 -0.680034 0
M  V30 61 H 1.736631 4.219394 -0.490163 0
M  V30 62 H 2.176033 2.944491 -1.759199 0
M  V30 63 H 1.022820 4.332904 -2.101440 0
M  V30 END ATOM
M  V30 BEGIN BOND
M  V30 1 1 1 2
M  V30 2 1 2 3
M  V30 3 1 3 4
M  V30 4 1 4 5
M  V30 5 1 5 6
M  V30 6 1 6 7
M  V30 7 1 7 8
M  V30 8 1 8 9
M  V30 9 1 9 10
M  V30 10 1 10 11
M  V30 11 2 11 12
M  V30 12 1 11 13
M  V30 13 1 13 14
M  V30 14 1 14 15
M  V30 15 1 15 16
M  V30 16 1 16 17
M  V30 17 1 17 18
M  V30 18 2 18 19
M  V30 19 1 18 20
M  V30 20 2 20 21
M  V30 21 1 21 22
M  V30 22 2 22 23
M  V30 23 1 23 24
M  V30 24 2 24 25
M  V30 25 1 25 26
M  V30 26 2 26 27
M  V30 27 1 27 28
M  V30 28 2 16 29
M  V30 29 1 29 30
M  V30 30 1 30 31
M  V30 31 1 31 32
M  V30 32 1 32 33
M  V30 33 1 32 34
M  V30 34 1 10 2
M  V30 35 1 32 13
M  V30 36 1 8 4
M  V30 37 2 31 15
M  V30 38 1 28 20
M  V30 39 1 27 22
M  V30 40 1 1 35
M  V30 41 1 1 36
M  V30 42 1 1 37
M  V30 43 1 2 38 CFG=3
M  V30 44 1 3 39
M  V30 45 1 3 40
M  V30 46 1 5 41
M  V30 47 1 5 42
M  V30 48 1 6 43
M  V30 49 1 6 44
M  V30 50 1 7 45
M  V30 51 1 7 46
M  V30 52 1 8 47 CFG=3
M  V30 53 1 9 48
M  V30 54 1 9 49
M  V30 55 1 14 50
M  V30 56 1 14 51
M  V30 57 1 17 52
M  V30 58 1 23 53
M  V30 59 1 24 54
M  V30 60 1 25 55
M  V30 61 1 26 56
M  V30 62 1 30 57
M  V30 63 1 33 58
M  V30 64 1 33 59
M  V30 65 1 33 60
M  V30 66 1 34 61
M  V30 67 1 34 62
M  V30 68 1 34 63
M  V30 END BOND
M  V30 END CTAB
M  END
>  <Dataset>  (744) 
ChEMBL_Kinases

>  <Ligand_Instance>  (744) 
nan

>  <PDB_ID>  (744) 
nan

>  <Standardized_SMILES>  (744) 
C[C@H]1CN2CCC[C@H]2CN1C(=O)N1Cc2c(NC(=O)c3nc4ccccc4s3)n[nH]c2C1(C)C

>  <Name>  (744) 
nan

>  <Pocket>  (744) 
nan

>  <ATP_Site>  (744) 
nan

>  <Peripheral>  (744) 
nan

>  <Num_H_Atoms_ProtBoundConf>  (744) 
nan

>  <Num_Resolved_Atoms>  (744) 
nan

>  <Num_Not_Resolved_Atoms>  (744) 
nan

$$$$
CHEMBL3662759
     RDKit          3D

  0  0  0  0  0  0  0  0  0  0999 V3000
M  V30 BEGIN CTAB
M  V30 COUNTS 65 69 0 0 0
M  V30 BEGIN ATOM
M  V30 1 C 3.569664 2.402876 1.033676 0
M  V30 2 C 2.791225 1.570909 2.000301 0 CFG=1
M  V30 3 C 2.583642 2.290536 3.330811 0
M  V30 4 N 1.674281 1.490904 4.124603 0
M  V30 5 C 1.920698 1.488706 5.520873 0
M  V30 6 C 1.165252 0.260037 5.980312 0
M  V30 7 C 0.834045 -0.549493 4.746241 0
M  V30 8 C 1.685684 0.109930 3.683794 0 CFG=1
M  V30 9 C 1.078152 -0.042754 2.304987 0
M  V30 10 N 1.477570 1.160605 1.546105 0
M  V30 11 C 0.764978 1.863480 0.505049 0
M  V30 12 O 1.400596 2.902063 0.110768 0
M  V30 13 N -0.477212 1.639252 -0.159022 0
M  V30 14 C -1.508923 0.651032 -0.109975 0
M  V30 15 C -1.695864 0.337409 -1.571975 0
M  V30 16 C -2.014877 -0.572221 -2.562063 0
M  V30 17 N -2.364191 -1.923791 -2.229625 0
M  V30 18 C -1.194779 -2.723446 -2.212808 0
M  V30 19 O -0.110591 -2.155000 -2.474753 0
M  V30 20 C -1.189691 -4.154781 -1.910344 0
M  V30 21 C 0.031669 -4.795216 -1.943628 0
M  V30 22 C 0.094404 -6.145534 -1.666497 0
M  V30 23 C -1.042492 -6.864319 -1.357216 0
M  V30 24 C -2.275495 -6.201769 -1.326999 0
M  V30 25 O -3.395535 -6.958446 -1.012166 0
M  V30 26 C -4.155588 -7.610216 -2.023350 0
M  V30 27 F -4.621138 -6.601427 -2.879265 0
M  V30 28 F -3.293129 -8.416667 -2.730343 0
M  V30 29 F -5.174816 -8.322856 -1.450330 0
M  V30 30 C -2.336631 -4.842325 -1.606182 0
M  V30 31 N -1.926595 0.044737 -3.757425 0
M  V30 32 N -1.565149 1.304480 -3.558097 0
M  V30 33 C -1.416880 1.510495 -2.224776 0
M  V30 34 C -1.073164 2.492731 -1.164395 0
M  V30 35 C -2.334185 3.077861 -0.561999 0
M  V30 36 C -0.159129 3.567907 -1.692097 0
M  V30 37 H 3.373762 3.492123 1.083915 0
M  V30 38 H 4.651965 2.310531 1.314493 0
M  V30 39 H 3.489897 1.970773 0.020045 0
M  V30 40 H 3.441247 0.662009 2.191144 0
M  V30 41 H 3.543399 2.337444 3.886404 0
M  V30 42 H 2.141019 3.277168 3.155593 0
M  V30 43 H 2.991773 1.466929 5.707792 0
M  V30 44 H 1.396965 2.388634 5.950220 0
M  V30 45 H 0.225659 0.544471 6.537645 0
M  V30 46 H 1.837724 -0.296839 6.637981 0
M  V30 47 H -0.238016 -0.516407 4.560124 0
M  V30 48 H 1.148340 -1.603151 4.883310 0
M  V30 49 H 2.691982 -0.294645 3.775636 0
M  V30 50 H 1.549150 -0.908001 1.799332 0
M  V30 51 H 0.001903 -0.198504 2.339541 0
M  V30 52 H -1.285340 -0.269140 0.453450 0
M  V30 53 H -2.465613 1.043789 0.238642 0
M  V30 54 H -3.273503 -2.350309 -2.020173 0
M  V30 55 H 0.978419 -4.288369 -2.181200 0
M  V30 56 H 1.066565 -6.636002 -1.697172 0
M  V30 57 H -0.998585 -7.917737 -1.140704 0
M  V30 58 H -3.299176 -4.342262 -1.578646 0
M  V30 59 H -1.409814 2.044940 -4.278492 0
M  V30 60 H -3.227734 2.524000 -0.908081 0
M  V30 61 H -2.334088 3.036527 0.544577 0
M  V30 62 H -2.429183 4.167142 -0.800877 0
M  V30 63 H -0.702021 4.021915 -2.556582 0
M  V30 64 H 0.748566 3.100862 -2.076116 0
M  V30 65 H -0.042131 4.338614 -0.939196 0
M  V30 END ATOM
M  V30 BEGIN BOND
M  V30 1 1 1 2
M  V30 2 1 2 3
M  V30 3 1 3 4
M  V30 4 1 4 5
M  V30 5 1 5 6
M  V30 6 1 6 7
M  V30 7 1 7 8
M  V30 8 1 8 9
M  V30 9 1 9 10
M  V30 10 1 10 11
M  V30 11 2 11 12
M  V30 12 1 11 13
M  V30 13 1 13 14
M  V30 14 1 14 15
M  V30 15 1 15 16
M  V30 16 1 16 17
M  V30 17 1 17 18
M  V30 18 2 18 19
M  V30 19 1 18 20
M  V30 20 2 20 21
M  V30 21 1 21 22
M  V30 22 2 22 23
M  V30 23 1 23 24
M  V30 24 1 24 25
M  V30 25 1 25 26
M  V30 26 1 26 27
M  V30 27 1 26 28
M  V30 28 1 26 29
M  V30 29 2 24 30
M  V30 30 2 16 31
M  V30 31 1 31 32
M  V30 32 1 32 33
M  V30 33 1 33 34
M  V30 34 1 34 35
M  V30 35 1 34 36
M  V30 36 1 10 2
M  V30 37 1 34 13
M  V30 38 1 8 4
M  V30 39 2 33 15
M  V30 40 1 30 20
M  V30 41 1 1 37
M  V30 42 1 1 38
M  V30 43 1 1 39
M  V30 44 1 2 40 CFG=1
M  V30 45 1 3 41
M  V30 46 1 3 42
M  V30 47 1 5 43
M  V30 48 1 5 44
M  V30 49 1 6 45
M  V30 50 1 6 46
M  V30 51 1 7 47
M  V30 52 1 7 48
M  V30 53 1 8 49 CFG=3
M  V30 54 1 9 50
M  V30 55 1 9 51
M  V30 56 1 14 52
M  V30 57 1 14 53
M  V30 58 1 17 54
M  V30 59 1 21 55
M  V30 60 1 22 56
M  V30 61 1 23 57
M  V30 62 1 30 58
M  V30 63 1 32 59
M  V30 64 1 35 60
M  V30 65 1 35 61
M  V30 66 1 35 62
M  V30 67 1 36 63
M  V30 68 1 36 64
M  V30 69 1 36 65
M  V30 END BOND
M  V30 END CTAB
M  END
>  <Dataset>  (745) 
ChEMBL_Kinases

>  <Ligand_Instance>  (745) 
nan

>  <PDB_ID>  (745) 
nan

>  <Standardized_SMILES>  (745) 
C[C@H]1CN2CCC[C@H]2CN1C(=O)N1Cc2c(NC(=O)c3cccc(OC(F)(F)F)c3)n[nH]c2C1(C)C

>  <Name>  (745) 
nan

>  <Pocket>  (745) 
nan

>  <ATP_Site>  (745) 
nan

>  <Peripheral>  (745) 
nan

>  <Num_H_Atoms_ProtBoundConf>  (745) 
nan

>  <Num_Resolved_Atoms>  (745) 
nan

>  <Num_Not_Resolved_Atoms>  (745) 
nan

$$$$
CHEMBL3662760
     RDKit          3D

  0  0  0  0  0  0  0  0  0  0999 V3000
M  V30 BEGIN CTAB
M  V30 COUNTS 56 59 0 0 0
M  V30 BEGIN ATOM
M  V30 1 C 3.583600 -1.436384 -0.614158 0
M  V30 2 C 2.307290 -2.109984 -1.102908 0
M  V30 3 C 1.715732 -2.848719 0.060426 0
M  V30 4 N 0.459759 -3.444042 -0.429798 0
M  V30 5 C -0.874755 -3.069799 -0.100239 0
M  V30 6 O -1.702360 -3.836260 -0.702780 0
M  V30 7 N -1.465564 -2.065905 0.722806 0
M  V30 8 C -1.057883 -0.962782 1.582943 0
M  V30 9 C -1.909671 0.147462 1.050877 0
M  V30 10 C -2.014490 1.513739 0.798705 0
M  V30 11 N -0.960151 2.420220 1.112828 0
M  V30 12 C -0.663854 3.168430 2.271289 0
M  V30 13 O -1.389056 3.110874 3.282592 0
M  V30 14 C 0.534730 3.994625 2.185332 0
M  V30 15 C 0.873781 4.747985 3.287921 0
M  V30 16 C 1.996832 5.556303 3.281497 0
M  V30 17 C 2.793802 5.616341 2.163180 0
M  V30 18 C 2.435437 4.858903 1.082007 0
M  V30 19 N 1.353039 4.086518 1.102673 0
M  V30 20 N -3.231982 1.683340 0.251445 0
M  V30 21 N -3.863696 0.525311 0.156548 0
M  V30 22 C -3.075631 -0.450119 0.642155 0
M  V30 23 C -2.885436 -1.892573 0.943638 0
M  V30 24 C -3.755982 -2.753881 0.052451 0
M  V30 25 C -3.254736 -2.078448 2.402738 0
M  V30 26 C 0.834821 -4.491889 -1.341436 0
M  V30 27 C -0.276141 -5.275709 -1.944441 0
M  V30 28 C 1.695384 -3.991798 -2.476888 0
M  V30 29 N 2.693112 -3.047835 -2.128247 0
M  V30 30 H 4.235332 -1.140619 -1.463150 0
M  V30 31 H 3.270968 -0.495054 -0.105518 0
M  V30 32 H 4.107791 -2.048276 0.128854 0
M  V30 33 H 1.581846 -1.373689 -1.490490 0
M  V30 34 H 2.379075 -3.708872 0.345294 0
M  V30 35 H 1.600017 -2.251188 0.956656 0
M  V30 36 H 0.006282 -0.681607 1.481652 0
M  V30 37 H -1.353963 -1.193013 2.608258 0
M  V30 38 H -0.359909 2.450618 0.238382 0
M  V30 39 H 0.279026 4.741439 4.205462 0
M  V30 40 H 2.311649 6.169695 4.118527 0
M  V30 41 H 3.688313 6.217055 2.064564 0
M  V30 42 H 2.969449 4.808836 0.136853 0
M  V30 43 H -4.815261 0.390363 -0.230610 0
M  V30 44 H -3.614366 -2.598115 -1.013386 0
M  V30 45 H -3.707568 -3.785588 0.423754 0
M  V30 46 H -4.814124 -2.425744 0.308263 0
M  V30 47 H -3.338711 -1.143524 2.960843 0
M  V30 48 H -4.245599 -2.628101 2.406324 0
M  V30 49 H -2.542184 -2.811277 2.831246 0
M  V30 50 H 1.455679 -5.227956 -0.750060 0
M  V30 51 H -0.837775 -5.896827 -1.215590 0
M  V30 52 H 0.243117 -6.050185 -2.600300 0
M  V30 53 H -0.904090 -4.722005 -2.660594 0
M  V30 54 H 1.035037 -3.718329 -3.319823 0
M  V30 55 H 2.239160 -4.910743 -2.843908 0
M  V30 56 H 2.858382 -2.447082 -2.991812 0
M  V30 END ATOM
M  V30 BEGIN BOND
M  V30 1 1 1 2
M  V30 2 1 2 3
M  V30 3 1 3 4
M  V30 4 1 4 5
M  V30 5 2 5 6
M  V30 6 1 5 7
M  V30 7 1 7 8
M  V30 8 1 8 9
M  V30 9 1 9 10
M  V30 10 1 10 11
M  V30 11 1 11 12
M  V30 12 2 12 13
M  V30 13 1 12 14
M  V30 14 2 14 15
M  V30 15 1 15 16
M  V30 16 2 16 17
M  V30 17 1 17 18
M  V30 18 2 18 19
M  V30 19 2 10 20
M  V30 20 1 20 21
M  V30 21 1 21 22
M  V30 22 1 22 23
M  V30 23 1 23 24
M  V30 24 1 23 25
M  V30 25 1 4 26
M  V30 26 1 26 27
M  V30 27 1 26 28
M  V30 28 1 28 29
M  V30 29 1 29 2
M  V30 30 1 23 7
M  V30 31 2 22 9
M  V30 32 1 19 14
M  V30 33 1 1 30
M  V30 34 1 1 31
M  V30 35 1 1 32
M  V30 36 1 2 33
M  V30 37 1 3 34
M  V30 38 1 3 35
M  V30 39 1 8 36
M  V30 40 1 8 37
M  V30 41 1 11 38
M  V30 42 1 15 39
M  V30 43 1 16 40
M  V30 44 1 17 41
M  V30 45 1 18 42
M  V30 46 1 21 43
M  V30 47 1 24 44
M  V30 48 1 24 45
M  V30 49 1 24 46
M  V30 50 1 25 47
M  V30 51 1 25 48
M  V30 52 1 25 49
M  V30 53 1 26 50
M  V30 54 1 27 51
M  V30 55 1 27 52
M  V30 56 1 27 53
M  V30 57 1 28 54
M  V30 58 1 28 55
M  V30 59 1 29 56
M  V30 END BOND
M  V30 END CTAB
M  END
>  <Dataset>  (746) 
ChEMBL_Kinases

>  <Ligand_Instance>  (746) 
nan

>  <PDB_ID>  (746) 
nan

>  <Standardized_SMILES>  (746) 
CC1CN(C(=O)N2Cc3c(NC(=O)c4ccccn4)n[nH]c3C2(C)C)C(C)CN1

>  <Name>  (746) 
nan

>  <Pocket>  (746) 
nan

>  <ATP_Site>  (746) 
nan

>  <Peripheral>  (746) 
nan

>  <Num_H_Atoms_ProtBoundConf>  (746) 
nan

>  <Num_Resolved_Atoms>  (746) 
nan

>  <Num_Not_Resolved_Atoms>  (746) 
nan

$$$$
CHEMBL3662761
     RDKit          3D

  0  0  0  0  0  0  0  0  0  0999 V3000
M  V30 BEGIN CTAB
M  V30 COUNTS 64 68 0 0 0
M  V30 BEGIN ATOM
M  V30 1 C 8.138513 -3.310338 4.560067 0
M  V30 2 O 8.250023 -1.904316 4.444300 0
M  V30 3 C 7.255159 -1.099252 3.962638 0
M  V30 4 C 7.345091 0.271053 3.842341 0
M  V30 5 C 6.336713 1.075706 3.355449 0
M  V30 6 C 5.141997 0.485084 2.953882 0
M  V30 7 C 4.051577 1.306402 2.433138 0
M  V30 8 O 4.141964 2.548392 2.327115 0
M  V30 9 N 2.868347 0.629979 2.046584 0
M  V30 10 C 1.784460 1.401494 1.534008 0
M  V30 11 N 1.726316 2.735424 1.358239 0
M  V30 12 N 0.544627 3.083703 0.855973 0
M  V30 13 C -0.234118 1.996044 0.676000 0
M  V30 14 C 0.550953 0.955390 1.102711 0
M  V30 15 C -0.249389 -0.278126 0.934312 0
M  V30 16 N -1.252051 0.031078 -0.060940 0
M  V30 17 C -1.698365 -0.935202 -0.987851 0
M  V30 18 O -0.902930 -1.730436 -0.438312 0
M  V30 19 N -2.484568 -1.337634 -2.051370 0
M  V30 20 C -3.475606 -0.587266 -2.839803 0
M  V30 21 C -4.872363 -1.123748 -2.606696 0 CFG=2
M  V30 22 C -5.574835 -0.448165 -1.477745 0
M  V30 23 C -5.963175 -1.578480 -0.562863 0
M  V30 24 C -5.124127 -2.769788 -0.961213 0
M  V30 25 N -4.865601 -2.536994 -2.339225 0
M  V30 26 C -3.764662 -3.230055 -2.914481 0
M  V30 27 C -2.402743 -2.687667 -2.549345 0 CFG=2
M  V30 28 C -1.667489 -3.658794 -1.696998 0
M  V30 29 C -1.539426 1.425224 0.227556 0
M  V30 30 C -2.566783 1.548153 1.317651 0
M  V30 31 C -1.921531 2.217587 -1.006000 0
M  V30 32 N 5.063791 -0.854630 3.075300 0
M  V30 33 C 6.048984 -1.634015 3.550225 0
M  V30 34 H 7.675375 -3.699223 3.610817 0
M  V30 35 H 9.129492 -3.777119 4.698335 0
M  V30 36 H 7.424333 -3.541313 5.373644 0
M  V30 37 H 8.283129 0.744780 4.156623 0
M  V30 38 H 6.474846 2.146101 3.288097 0
M  V30 39 H 2.736378 -0.404317 2.112699 0
M  V30 40 H 0.225960 4.054959 0.620032 0
M  V30 41 H 0.353309 -1.163460 0.757290 0
M  V30 42 H -0.783990 -0.469246 1.911217 0
M  V30 43 H -3.501265 0.474379 -2.615115 0
M  V30 44 H -3.182135 -0.730709 -3.905621 0
M  V30 45 H -5.456832 -0.958935 -3.536684 0
M  V30 46 H -6.479076 0.124492 -1.803586 0
M  V30 47 H -4.935642 0.305210 -0.966180 0
M  V30 48 H -5.764730 -1.356461 0.508682 0
M  V30 49 H -7.048744 -1.761929 -0.685600 0
M  V30 50 H -4.267625 -2.866032 -0.298918 0
M  V30 51 H -5.692405 -3.725086 -0.876487 0
M  V30 52 H -3.813879 -4.280618 -2.601069 0
M  V30 53 H -3.909739 -3.224338 -4.023501 0
M  V30 54 H -1.826819 -2.599118 -3.519422 0
M  V30 55 H -0.563342 -3.576504 -1.769529 0
M  V30 56 H -1.866937 -4.698196 -2.115784 0
M  V30 57 H -2.054674 -3.707116 -0.660014 0
M  V30 58 H -2.453969 2.483565 1.893305 0
M  V30 59 H -2.453058 0.685575 2.003969 0
M  V30 60 H -3.605693 1.499522 0.938388 0
M  V30 61 H -3.021804 2.292051 -1.123930 0
M  V30 62 H -1.430533 3.205231 -1.024548 0
M  V30 63 H -1.543143 1.652170 -1.883238 0
M  V30 64 H 5.874925 -2.719501 3.605196 0
M  V30 END ATOM
M  V30 BEGIN BOND
M  V30 1 1 1 2
M  V30 2 1 2 3
M  V30 3 2 3 4
M  V30 4 1 4 5
M  V30 5 2 5 6
M  V30 6 1 6 7
M  V30 7 2 7 8
M  V30 8 1 7 9
M  V30 9 1 9 10
M  V30 10 2 10 11
M  V30 11 1 11 12
M  V30 12 1 12 13
M  V30 13 2 13 14
M  V30 14 1 14 15
M  V30 15 1 15 16
M  V30 16 1 16 17
M  V30 17 2 17 18
M  V30 18 1 17 19
M  V30 19 1 19 20
M  V30 20 1 20 21
M  V30 21 1 21 22
M  V30 22 1 22 23
M  V30 23 1 23 24
M  V30 24 1 24 25
M  V30 25 1 25 26
M  V30 26 1 26 27
M  V30 27 1 27 28
M  V30 28 1 16 29
M  V30 29 1 29 30
M  V30 30 1 29 31
M  V30 31 1 6 32
M  V30 32 2 32 33
M  V30 33 1 33 3
M  V30 34 1 14 10
M  V30 35 1 27 19
M  V30 36 1 29 13
M  V30 37 1 25 21
M  V30 38 1 1 34
M  V30 39 1 1 35
M  V30 40 1 1 36
M  V30 41 1 4 37
M  V30 42 1 5 38
M  V30 43 1 9 39
M  V30 44 1 12 40
M  V30 45 1 15 41
M  V30 46 1 15 42
M  V30 47 1 20 43
M  V30 48 1 20 44
M  V30 49 1 21 45 CFG=3
M  V30 50 1 22 46
M  V30 51 1 22 47
M  V30 52 1 23 48
M  V30 53 1 23 49
M  V30 54 1 24 50
M  V30 55 1 24 51
M  V30 56 1 26 52
M  V30 57 1 26 53
M  V30 58 1 27 54 CFG=3
M  V30 59 1 28 55
M  V30 60 1 28 56
M  V30 61 1 28 57
M  V30 62 1 30 58
M  V30 63 1 30 59
M  V30 64 1 30 60
M  V30 65 1 31 61
M  V30 66 1 31 62
M  V30 67 1 31 63
M  V30 68 1 33 64
M  V30 END BOND
M  V30 END CTAB
M  END
>  <Dataset>  (747) 
ChEMBL_Kinases

>  <Ligand_Instance>  (747) 
nan

>  <PDB_ID>  (747) 
nan

>  <Standardized_SMILES>  (747) 
COc1ccc(C(=O)Nc2n[nH]c3c2CN(C(=O)N2C[C@@H]4CCCN4C[C@@H]2C)C3(C)C)nc1

>  <Name>  (747) 
nan

>  <Pocket>  (747) 
nan

>  <ATP_Site>  (747) 
nan

>  <Peripheral>  (747) 
nan

>  <Num_H_Atoms_ProtBoundConf>  (747) 
nan

>  <Num_Resolved_Atoms>  (747) 
nan

>  <Num_Not_Resolved_Atoms>  (747) 
nan

$$$$
CHEMBL3662762
     RDKit          3D

  0  0  0  0  0  0  0  0  0  0999 V3000
M  V30 BEGIN CTAB
M  V30 COUNTS 65 69 0 0 0
M  V30 BEGIN ATOM
M  V30 1 C 1.451331 -0.928418 7.637633 0
M  V30 2 O 1.742693 0.437494 7.806878 0
M  V30 3 C 2.029973 1.184728 6.673277 0
M  V30 4 C 2.038154 0.629223 5.390983 0
M  V30 5 C 2.329760 1.412823 4.295218 0
M  V30 6 C 2.316766 0.761719 2.991880 0
M  V30 7 O 2.041165 -0.470401 2.952115 0
M  V30 8 N 2.600976 1.479178 1.814773 0
M  V30 9 C 2.657624 1.100303 0.448136 0
M  V30 10 N 3.770535 0.646570 -0.200289 0
M  V30 11 N 3.406295 0.403153 -1.470140 0
M  V30 12 C 2.119475 0.677436 -1.668086 0
M  V30 13 C 1.641459 1.113940 -0.474845 0
M  V30 14 C 0.205571 1.407946 -0.730350 0
M  V30 15 N -0.184313 0.480565 -1.774392 0
M  V30 16 C -1.326302 -0.322347 -1.823225 0
M  V30 17 O -1.579030 0.206280 -0.713549 0
M  V30 18 N -2.466770 -1.128168 -1.878313 0
M  V30 19 C -3.430208 -1.104714 -0.795417 0
M  V30 20 C -3.694757 -2.499486 -0.300754 0 CFG=2
M  V30 21 C -2.496908 -3.228097 0.204900 0
M  V30 22 C -3.013780 -4.673759 0.195879 0
M  V30 23 C -4.123849 -4.678128 -0.813927 0
M  V30 24 N -4.213469 -3.335089 -1.357712 0
M  V30 25 C -3.474118 -3.271948 -2.564596 0
M  V30 26 C -2.818275 -2.011572 -2.934513 0 CFG=2
M  V30 27 C -1.537786 -2.372107 -3.692519 0
M  V30 28 C 0.965659 0.725389 -2.604058 0
M  V30 29 C 1.221735 -0.351247 -3.639786 0
M  V30 30 C 0.900482 2.090048 -3.209532 0
M  V30 31 C 2.613187 2.748212 4.477494 0
M  V30 32 C 2.622071 3.360257 5.717775 0
M  V30 33 C 2.323214 2.540955 6.804168 0
M  V30 34 Cl 2.325471 3.292163 8.398253 0
M  V30 35 H 2.306772 -1.446562 7.178019 0
M  V30 36 H 0.561096 -1.101948 7.003918 0
M  V30 37 H 1.269152 -1.348999 8.644476 0
M  V30 38 H 1.806549 -0.413773 5.341649 0
M  V30 39 H 2.832186 2.495096 1.807496 0
M  V30 40 H 4.058442 0.041554 -2.214469 0
M  V30 41 H -0.391081 1.371672 0.177902 0
M  V30 42 H 0.172545 2.476104 -1.089307 0
M  V30 43 H -4.400230 -0.755928 -1.231560 0
M  V30 44 H -3.172559 -0.467781 0.044506 0
M  V30 45 H -4.453610 -2.467079 0.502612 0
M  V30 46 H -2.262920 -3.003794 1.281837 0
M  V30 47 H -1.610926 -3.141085 -0.432161 0
M  V30 48 H -2.214375 -5.393755 0.016831 0
M  V30 49 H -3.499537 -4.897069 1.189140 0
M  V30 50 H -3.821546 -5.393539 -1.628841 0
M  V30 51 H -5.093087 -5.049185 -0.406569 0
M  V30 52 H -2.774514 -4.156286 -2.630195 0
M  V30 53 H -4.217675 -3.500639 -3.387696 0
M  V30 54 H -3.414165 -1.415419 -3.673455 0
M  V30 55 H -1.258824 -1.608067 -4.411023 0
M  V30 56 H -1.812033 -3.280954 -4.307986 0
M  V30 57 H -0.772351 -2.728159 -2.998224 0
M  V30 58 H 1.144157 -1.348255 -3.185557 0
M  V30 59 H 2.300247 -0.283917 -3.978829 0
M  V30 60 H 0.647062 -0.201387 -4.572298 0
M  V30 61 H 1.364745 2.027033 -4.222362 0
M  V30 62 H -0.129090 2.506640 -3.232739 0
M  V30 63 H 1.499258 2.783390 -2.587747 0
M  V30 64 H 2.841965 3.371699 3.636878 0
M  V30 65 H 2.849254 4.399684 5.807186 0
M  V30 END ATOM
M  V30 BEGIN BOND
M  V30 1 1 1 2
M  V30 2 1 2 3
M  V30 3 2 3 4
M  V30 4 1 4 5
M  V30 5 1 5 6
M  V30 6 2 6 7
M  V30 7 1 6 8
M  V30 8 1 8 9
M  V30 9 2 9 10
M  V30 10 1 10 11
M  V30 11 1 11 12
M  V30 12 2 12 13
M  V30 13 1 13 14
M  V30 14 1 14 15
M  V30 15 1 15 16
M  V30 16 2 16 17
M  V30 17 1 16 18
M  V30 18 1 18 19
M  V30 19 1 19 20
M  V30 20 1 20 21
M  V30 21 1 21 22
M  V30 22 1 22 23
M  V30 23 1 23 24
M  V30 24 1 24 25
M  V30 25 1 25 26
M  V30 26 1 26 27
M  V30 27 1 15 28
M  V30 28 1 28 29
M  V30 29 1 28 30
M  V30 30 2 5 31
M  V30 31 1 31 32
M  V30 32 2 32 33
M  V30 33 1 33 34
M  V30 34 1 33 3
M  V30 35 1 13 9
M  V30 36 1 26 18
M  V30 37 1 28 12
M  V30 38 1 24 20
M  V30 39 1 1 35
M  V30 40 1 1 36
M  V30 41 1 1 37
M  V30 42 1 4 38
M  V30 43 1 8 39
M  V30 44 1 11 40
M  V30 45 1 14 41
M  V30 46 1 14 42
M  V30 47 1 19 43
M  V30 48 1 19 44
M  V30 49 1 20 45 CFG=1
M  V30 50 1 21 46
M  V30 51 1 21 47
M  V30 52 1 22 48
M  V30 53 1 22 49
M  V30 54 1 23 50
M  V30 55 1 23 51
M  V30 56 1 25 52
M  V30 57 1 25 53
M  V30 58 1 26 54 CFG=3
M  V30 59 1 27 55
M  V30 60 1 27 56
M  V30 61 1 27 57
M  V30 62 1 29 58
M  V30 63 1 29 59
M  V30 64 1 29 60
M  V30 65 1 30 61
M  V30 66 1 30 62
M  V30 67 1 30 63
M  V30 68 1 31 64
M  V30 69 1 32 65
M  V30 END BOND
M  V30 END CTAB
M  END
>  <Dataset>  (748) 
ChEMBL_Kinases

>  <Ligand_Instance>  (748) 
nan

>  <PDB_ID>  (748) 
nan

>  <Standardized_SMILES>  (748) 
COc1cc(C(=O)Nc2n[nH]c3c2CN(C(=O)N2C[C@@H]4CCCN4C[C@@H]2C)C3(C)C)ccc1Cl

>  <Name>  (748) 
nan

>  <Pocket>  (748) 
nan

>  <ATP_Site>  (748) 
nan

>  <Peripheral>  (748) 
nan

>  <Num_H_Atoms_ProtBoundConf>  (748) 
nan

>  <Num_Resolved_Atoms>  (748) 
nan

>  <Num_Not_Resolved_Atoms>  (748) 
nan

$$$$
CHEMBL3662763
     RDKit          3D

  0  0  0  0  0  0  0  0  0  0999 V3000
M  V30 BEGIN CTAB
M  V30 COUNTS 66 70 0 0 0
M  V30 BEGIN ATOM
M  V30 1 C 6.811097 0.266444 7.600240 0
M  V30 2 C 6.848458 -0.649131 6.403306 0
M  V30 3 C 6.155271 -0.087058 5.236335 0
M  V30 4 C 6.702987 0.701561 4.245450 0
M  V30 5 C 5.947858 1.176541 3.187647 0
M  V30 6 C 4.594130 0.874880 3.080519 0
M  V30 7 C 3.837531 1.397939 1.946845 0
M  V30 8 O 4.307263 2.110242 1.040127 0
M  V30 9 N 2.448560 1.041045 1.911132 0
M  V30 10 C 1.645615 1.515175 0.833326 0
M  V30 11 N 2.098734 2.285391 -0.170930 0
M  V30 12 N 1.065799 2.513567 -0.964473 0
M  V30 13 C -0.047680 1.914222 -0.506219 0
M  V30 14 C 0.299461 1.260012 0.658063 0
M  V30 15 C -0.915488 0.562596 1.226940 0
M  V30 16 N -1.681886 0.427713 0.009705 0
M  V30 17 C -2.494671 -0.601755 -0.506012 0
M  V30 18 O -2.016123 -0.907573 0.612708 0
M  V30 19 N -3.305768 -1.628989 -1.020743 0
M  V30 20 C -3.973649 -1.508165 -2.307337 0
M  V30 21 C -3.396064 -2.618717 -3.157875 0 CFG=2
M  V30 22 C -3.997086 -2.684832 -4.534040 0
M  V30 23 C -3.745654 -4.137470 -4.904178 0
M  V30 24 C -3.398706 -4.807005 -3.566671 0
M  V30 25 N -3.884386 -3.872056 -2.580875 0
M  V30 26 C -3.326139 -4.077413 -1.274983 0
M  V30 27 C -3.590160 -2.902010 -0.386132 0 CFG=2
M  V30 28 C -5.013006 -2.926063 0.128779 0
M  V30 29 C -1.495299 1.675657 -0.751711 0
M  V30 30 C -1.796278 1.500471 -2.215423 0
M  V30 31 C -2.304602 2.767265 -0.114784 0
M  V30 32 N 4.055265 0.098045 4.056805 0
M  V30 33 C 4.792151 -0.361979 5.083710 0
M  V30 34 H 7.178987 -0.273460 8.487984 0
M  V30 35 H 7.489308 1.119201 7.406060 0
M  V30 36 H 5.765470 0.600175 7.823958 0
M  V30 37 H 6.343039 -1.611857 6.673971 0
M  V30 38 H 7.935304 -0.808575 6.181786 0
M  V30 39 H 7.764745 0.925205 4.349633 0
M  V30 40 H 6.465281 1.793861 2.449561 0
M  V30 41 H 2.025521 0.443515 2.659563 0
M  V30 42 H 1.151277 3.093749 -1.830018 0
M  V30 43 H -0.646350 -0.360554 1.727930 0
M  V30 44 H -1.385497 1.308233 1.909191 0
M  V30 45 H -5.058283 -1.684818 -2.105702 0
M  V30 46 H -3.808163 -0.511384 -2.773870 0
M  V30 47 H -2.307375 -2.537517 -3.140426 0
M  V30 48 H -3.484919 -1.991746 -5.224864 0
M  V30 49 H -5.082107 -2.483955 -4.421740 0
M  V30 50 H -2.922114 -4.191384 -5.625689 0
M  V30 51 H -4.683511 -4.553999 -5.313798 0
M  V30 52 H -2.298339 -4.954153 -3.489525 0
M  V30 53 H -3.932980 -5.786701 -3.494688 0
M  V30 54 H -3.850744 -4.945093 -0.820012 0
M  V30 55 H -2.249221 -4.368456 -1.318577 0
M  V30 56 H -2.939572 -3.017750 0.513665 0
M  V30 57 H -5.112476 -3.517993 1.050941 0
M  V30 58 H -5.719564 -3.325511 -0.624683 0
M  V30 59 H -5.338676 -1.884914 0.322303 0
M  V30 60 H -1.257696 2.328901 -2.745973 0
M  V30 61 H -2.860982 1.681998 -2.389902 0
M  V30 62 H -1.440279 0.494961 -2.516249 0
M  V30 63 H -2.880854 3.250740 -0.945224 0
M  V30 64 H -1.711460 3.506361 0.455422 0
M  V30 65 H -3.038571 2.339792 0.603324 0
M  V30 66 H 4.220046 -0.969723 5.783633 0
M  V30 END ATOM
M  V30 BEGIN BOND
M  V30 1 1 1 2
M  V30 2 1 2 3
M  V30 3 2 3 4
M  V30 4 1 4 5
M  V30 5 2 5 6
M  V30 6 1 6 7
M  V30 7 2 7 8
M  V30 8 1 7 9
M  V30 9 1 9 10
M  V30 10 2 10 11
M  V30 11 1 11 12
M  V30 12 1 12 13
M  V30 13 2 13 14
M  V30 14 1 14 15
M  V30 15 1 15 16
M  V30 16 1 16 17
M  V30 17 2 17 18
M  V30 18 1 17 19
M  V30 19 1 19 20
M  V30 20 1 20 21
M  V30 21 1 21 22
M  V30 22 1 22 23
M  V30 23 1 23 24
M  V30 24 1 24 25
M  V30 25 1 25 26
M  V30 26 1 26 27
M  V30 27 1 27 28
M  V30 28 1 16 29
M  V30 29 1 29 30
M  V30 30 1 29 31
M  V30 31 1 6 32
M  V30 32 2 32 33
M  V30 33 1 33 3
M  V30 34 1 14 10
M  V30 35 1 27 19
M  V30 36 1 29 13
M  V30 37 1 25 21
M  V30 38 1 1 34
M  V30 39 1 1 35
M  V30 40 1 1 36
M  V30 41 1 2 37
M  V30 42 1 2 38
M  V30 43 1 4 39
M  V30 44 1 5 40
M  V30 45 1 9 41
M  V30 46 1 12 42
M  V30 47 1 15 43
M  V30 48 1 15 44
M  V30 49 1 20 45
M  V30 50 1 20 46
M  V30 51 1 21 47 CFG=3
M  V30 52 1 22 48
M  V30 53 1 22 49
M  V30 54 1 23 50
M  V30 55 1 23 51
M  V30 56 1 24 52
M  V30 57 1 24 53
M  V30 58 1 26 54
M  V30 59 1 26 55
M  V30 60 1 27 56 CFG=1
M  V30 61 1 28 57
M  V30 62 1 28 58
M  V30 63 1 28 59
M  V30 64 1 30 60
M  V30 65 1 30 61
M  V30 66 1 30 62
M  V30 67 1 31 63
M  V30 68 1 31 64
M  V30 69 1 31 65
M  V30 70 1 33 66
M  V30 END BOND
M  V30 END CTAB
M  END
>  <Dataset>  (749) 
ChEMBL_Kinases

>  <Ligand_Instance>  (749) 
nan

>  <PDB_ID>  (749) 
nan

>  <Standardized_SMILES>  (749) 
CCc1ccc(C(=O)Nc2n[nH]c3c2CN(C(=O)N2C[C@@H]4CCCN4C[C@@H]2C)C3(C)C)nc1

>  <Name>  (749) 
nan

>  <Pocket>  (749) 
nan

>  <ATP_Site>  (749) 
nan

>  <Peripheral>  (749) 
nan

>  <Num_H_Atoms_ProtBoundConf>  (749) 
nan

>  <Num_Resolved_Atoms>  (749) 
nan

>  <Num_Not_Resolved_Atoms>  (749) 
nan

$$$$
CHEMBL3662764
     RDKit          3D

  0  0  0  0  0  0  0  0  0  0999 V3000
M  V30 BEGIN CTAB
M  V30 COUNTS 66 70 0 0 0
M  V30 BEGIN ATOM
M  V30 1 C 6.135612 -3.396523 1.514446 0
M  V30 2 C 5.576094 -2.047121 1.765145 0
M  V30 3 C 6.069592 -1.349929 2.862118 0
M  V30 4 C 5.557817 -0.078711 3.117269 0
M  V30 5 C 6.039388 0.726374 4.274919 0
M  V30 6 N 4.628319 0.431154 2.324251 0
M  V30 7 C 4.110552 -0.187267 1.252247 0
M  V30 8 C 3.091400 0.368013 0.380031 0
M  V30 9 O 2.647586 -0.279499 -0.620426 0
M  V30 10 N 2.564922 1.669462 0.637508 0
M  V30 11 C 1.553270 2.331350 -0.151014 0
M  V30 12 N 1.606995 3.137296 -1.206357 0
M  V30 13 N 0.378102 3.469772 -1.549075 0
M  V30 14 C -0.508275 2.888933 -0.725751 0
M  V30 15 C 0.215812 2.150267 0.184272 0
M  V30 16 C -0.775698 1.511520 1.091431 0
M  V30 17 N -1.923295 1.349464 0.186879 0
M  V30 18 C -2.870793 0.381448 -0.227658 0
M  V30 19 O -3.774238 0.565100 -1.066011 0
M  V30 20 N -3.083616 -0.974196 0.135058 0
M  V30 21 C -4.183507 -1.644206 -0.529308 0
M  V30 22 C -3.561126 -2.714085 -1.395015 0 CFG=2
M  V30 23 C -4.251460 -4.034468 -1.340814 0
M  V30 24 C -3.120248 -5.036891 -1.410507 0
M  V30 25 C -1.929346 -4.196489 -1.769536 0
M  V30 26 N -2.155685 -2.903498 -1.160535 0
M  V30 27 C -1.819956 -3.003086 0.240201 0
M  V30 28 C -2.424886 -1.905440 1.065365 0 CFG=2
M  V30 29 C -3.470016 -2.537070 1.987176 0
M  V30 30 C -1.944253 2.689577 -0.359735 0
M  V30 31 C -2.843543 2.850898 -1.553773 0
M  V30 32 C -2.369007 3.634626 0.737778 0
M  V30 33 C 4.605606 -1.446989 0.984487 0
M  V30 34 H 5.601187 -4.130355 2.150051 0
M  V30 35 H 7.196572 -3.403452 1.854302 0
M  V30 36 H 6.079227 -3.694178 0.451033 0
M  V30 37 H 6.818782 -1.707257 3.538516 0
M  V30 38 H 6.449846 1.674808 3.858745 0
M  V30 39 H 6.778106 0.180769 4.888136 0
M  V30 40 H 5.137106 1.035625 4.845235 0
M  V30 41 H 2.889094 2.254418 1.446484 0
M  V30 42 H 0.088698 4.100178 -2.350044 0
M  V30 43 H -0.418206 0.568371 1.501311 0
M  V30 44 H -0.977053 2.283623 1.870678 0
M  V30 45 H -4.801053 -2.180127 0.238755 0
M  V30 46 H -4.858813 -0.984618 -1.076139 0
M  V30 47 H -3.645510 -2.321257 -2.448292 0
M  V30 48 H -4.931763 -4.194368 -0.503310 0
M  V30 49 H -4.881506 -4.207372 -2.262605 0
M  V30 50 H -2.954942 -5.559907 -0.445644 0
M  V30 51 H -3.254227 -5.810320 -2.186143 0
M  V30 52 H -1.027554 -4.634068 -1.281105 0
M  V30 53 H -1.768217 -4.120993 -2.862839 0
M  V30 54 H -0.716701 -2.905522 0.314112 0
M  V30 55 H -2.063176 -4.010596 0.658469 0
M  V30 56 H -1.697899 -1.425842 1.714640 0
M  V30 57 H -4.319402 -1.889912 2.195446 0
M  V30 58 H -2.940218 -2.884787 2.904047 0
M  V30 59 H -3.836297 -3.455827 1.499442 0
M  V30 60 H -2.628933 3.869438 -1.953044 0
M  V30 61 H -3.879647 2.885076 -1.203164 0
M  V30 62 H -2.613520 2.126810 -2.340478 0
M  V30 63 H -3.050282 4.428834 0.366875 0
M  V30 64 H -1.451634 4.119675 1.128771 0
M  V30 65 H -2.830596 3.071069 1.568360 0
M  V30 66 H 4.293198 -2.072024 0.161569 0
M  V30 END ATOM
M  V30 BEGIN BOND
M  V30 1 1 1 2
M  V30 2 2 2 3
M  V30 3 1 3 4
M  V30 4 1 4 5
M  V30 5 2 4 6
M  V30 6 1 6 7
M  V30 7 1 7 8
M  V30 8 2 8 9
M  V30 9 1 8 10
M  V30 10 1 10 11
M  V30 11 2 11 12
M  V30 12 1 12 13
M  V30 13 1 13 14
M  V30 14 2 14 15
M  V30 15 1 15 16
M  V30 16 1 16 17
M  V30 17 1 17 18
M  V30 18 2 18 19
M  V30 19 1 18 20
M  V30 20 1 20 21
M  V30 21 1 21 22
M  V30 22 1 22 23
M  V30 23 1 23 24
M  V30 24 1 24 25
M  V30 25 1 25 26
M  V30 26 1 26 27
M  V30 27 1 27 28
M  V30 28 1 28 29
M  V30 29 1 17 30
M  V30 30 1 30 31
M  V30 31 1 30 32
M  V30 32 2 7 33
M  V30 33 1 33 2
M  V30 34 1 15 11
M  V30 35 1 28 20
M  V30 36 1 30 14
M  V30 37 1 26 22
M  V30 38 1 1 34
M  V30 39 1 1 35
M  V30 40 1 1 36
M  V30 41 1 3 37
M  V30 42 1 5 38
M  V30 43 1 5 39
M  V30 44 1 5 40
M  V30 45 1 10 41
M  V30 46 1 13 42
M  V30 47 1 16 43
M  V30 48 1 16 44
M  V30 49 1 21 45
M  V30 50 1 21 46
M  V30 51 1 22 47 CFG=3
M  V30 52 1 23 48
M  V30 53 1 23 49
M  V30 54 1 24 50
M  V30 55 1 24 51
M  V30 56 1 25 52
M  V30 57 1 25 53
M  V30 58 1 27 54
M  V30 59 1 27 55
M  V30 60 1 28 56 CFG=1
M  V30 61 1 29 57
M  V30 62 1 29 58
M  V30 63 1 29 59
M  V30 64 1 31 60
M  V30 65 1 31 61
M  V30 66 1 31 62
M  V30 67 1 32 63
M  V30 68 1 32 64
M  V30 69 1 32 65
M  V30 70 1 33 66
M  V30 END BOND
M  V30 END CTAB
M  END
>  <Dataset>  (750) 
ChEMBL_Kinases

>  <Ligand_Instance>  (750) 
nan

>  <PDB_ID>  (750) 
nan

>  <Standardized_SMILES>  (750) 
Cc1cc(C)nc(C(=O)Nc2n[nH]c3c2CN(C(=O)N2C[C@@H]4CCCN4C[C@@H]2C)C3(C)C)c1

>  <Name>  (750) 
nan

>  <Pocket>  (750) 
nan

>  <ATP_Site>  (750) 
nan

>  <Peripheral>  (750) 
nan

>  <Num_H_Atoms_ProtBoundConf>  (750) 
nan

>  <Num_Resolved_Atoms>  (750) 
nan

>  <Num_Not_Resolved_Atoms>  (750) 
nan

$$$$
CHEMBL3662765
     RDKit          3D

  0  0  0  0  0  0  0  0  0  0999 V3000
M  V30 BEGIN CTAB
M  V30 COUNTS 64 68 0 0 0
M  V30 BEGIN ATOM
M  V30 1 C 1.423745 -1.240465 8.950743 0
M  V30 2 C 1.389366 -0.711416 7.575148 0
M  V30 3 C 2.355341 -0.823038 6.595090 0
M  V30 4 C 1.904274 -0.185716 5.480692 0
M  V30 5 C 2.647537 -0.086728 4.229888 0
M  V30 6 O 3.781777 -0.630306 4.187183 0
M  V30 7 N 2.035189 0.609347 3.171403 0
M  V30 8 C 2.444504 0.903396 1.839131 0
M  V30 9 N 3.128379 1.967243 1.366972 0
M  V30 10 N 3.313821 1.870036 0.057477 0
M  V30 11 C 2.743090 0.710906 -0.379561 0
M  V30 12 C 2.187474 0.088704 0.745842 0
M  V30 13 C 1.587552 -1.156650 0.205903 0
M  V30 14 N 1.284169 -0.827058 -1.173347 0
M  V30 15 C 0.168257 -1.038058 -2.018487 0
M  V30 16 O -0.197205 -1.563777 -0.935577 0
M  V30 17 N -1.068026 -1.405037 -2.557933 0
M  V30 18 C -2.158774 -2.107079 -1.907602 0
M  V30 19 C -3.345261 -1.198305 -1.981687 0 CFG=2
M  V30 20 C -4.606009 -1.798374 -1.432020 0
M  V30 21 C -5.663225 -1.014628 -2.216848 0
M  V30 22 C -4.887432 -0.311080 -3.318033 0
M  V30 23 N -3.688468 -1.082650 -3.398600 0
M  V30 24 C -2.648751 -0.461425 -4.182292 0
M  V30 25 C -1.296731 -1.041630 -3.941817 0 CFG=2
M  V30 26 C -1.195949 -2.332714 -4.745747 0
M  V30 27 C 2.477921 -0.154393 -1.585864 0
M  V30 28 C 3.659033 -1.073295 -1.772883 0
M  V30 29 C 2.203776 0.687897 -2.796234 0
M  V30 30 N 0.690574 0.292405 5.804450 0
M  V30 31 N 0.372766 -0.011704 7.042494 0
M  V30 32 C -0.881754 0.393816 7.615315 0
M  V30 33 H 0.825187 -0.628927 9.659763 0
M  V30 34 H 2.456607 -1.244203 9.351856 0
M  V30 35 H 0.974767 -2.258175 8.933832 0
M  V30 36 H 3.284314 -1.334486 6.738133 0
M  V30 37 H 1.070440 1.044505 3.280773 0
M  V30 38 H 3.813656 2.570572 -0.523348 0
M  V30 39 H 0.718037 -1.508762 0.779195 0
M  V30 40 H 2.361737 -1.958754 0.194141 0
M  V30 41 H -1.915475 -2.441864 -0.890515 0
M  V30 42 H -2.406228 -2.986019 -2.566150 0
M  V30 43 H -3.202914 -0.214057 -1.501069 0
M  V30 44 H -4.696938 -2.854321 -1.765812 0
M  V30 45 H -4.729387 -1.676397 -0.348256 0
M  V30 46 H -6.089551 -0.281402 -1.497415 0
M  V30 47 H -6.423122 -1.670268 -2.661845 0
M  V30 48 H -5.457172 -0.308391 -4.273159 0
M  V30 49 H -4.666898 0.713433 -2.998092 0
M  V30 50 H -2.906280 -0.683549 -5.249576 0
M  V30 51 H -2.583363 0.623788 -4.077323 0
M  V30 52 H -0.543232 -0.349263 -4.353678 0
M  V30 53 H -2.063234 -2.452991 -5.429320 0
M  V30 54 H -1.084621 -3.230459 -4.102354 0
M  V30 55 H -0.298337 -2.332146 -5.397638 0
M  V30 56 H 4.212465 -0.681717 -2.673791 0
M  V30 57 H 3.268780 -2.055716 -2.069393 0
M  V30 58 H 4.362392 -1.068347 -0.941760 0
M  V30 59 H 2.771826 1.659527 -2.722544 0
M  V30 60 H 1.126523 0.983781 -2.852348 0
M  V30 61 H 2.508214 0.225576 -3.743336 0
M  V30 62 H -1.056986 -0.090209 8.592474 0
M  V30 63 H -1.720111 0.133951 6.938891 0
M  V30 64 H -0.861585 1.501688 7.780183 0
M  V30 END ATOM
M  V30 BEGIN BOND
M  V30 1 1 1 2
M  V30 2 2 2 3
M  V30 3 1 3 4
M  V30 4 1 4 5
M  V30 5 2 5 6
M  V30 6 1 5 7
M  V30 7 1 7 8
M  V30 8 2 8 9
M  V30 9 1 9 10
M  V30 10 1 10 11
M  V30 11 2 11 12
M  V30 12 1 12 13
M  V30 13 1 13 14
M  V30 14 1 14 15
M  V30 15 2 15 16
M  V30 16 1 15 17
M  V30 17 1 17 18
M  V30 18 1 18 19
M  V30 19 1 19 20
M  V30 20 1 20 21
M  V30 21 1 21 22
M  V30 22 1 22 23
M  V30 23 1 23 24
M  V30 24 1 24 25
M  V30 25 1 25 26
M  V30 26 1 14 27
M  V30 27 1 27 28
M  V30 28 1 27 29
M  V30 29 2 4 30
M  V30 30 1 30 31
M  V30 31 1 31 32
M  V30 32 1 31 2
M  V30 33 1 12 8
M  V30 34 1 25 17
M  V30 35 1 27 11
M  V30 36 1 23 19
M  V30 37 1 1 33
M  V30 38 1 1 34
M  V30 39 1 1 35
M  V30 40 1 3 36
M  V30 41 1 7 37
M  V30 42 1 10 38
M  V30 43 1 13 39
M  V30 44 1 13 40
M  V30 45 1 18 41
M  V30 46 1 18 42
M  V30 47 1 19 43 CFG=1
M  V30 48 1 20 44
M  V30 49 1 20 45
M  V30 50 1 21 46
M  V30 51 1 21 47
M  V30 52 1 22 48
M  V30 53 1 22 49
M  V30 54 1 24 50
M  V30 55 1 24 51
M  V30 56 1 25 52 CFG=3
M  V30 57 1 26 53
M  V30 58 1 26 54
M  V30 59 1 26 55
M  V30 60 1 28 56
M  V30 61 1 28 57
M  V30 62 1 28 58
M  V30 63 1 29 59
M  V30 64 1 29 60
M  V30 65 1 29 61
M  V30 66 1 32 62
M  V30 67 1 32 63
M  V30 68 1 32 64
M  V30 END BOND
M  V30 END CTAB
M  END
>  <Dataset>  (751) 
ChEMBL_Kinases

>  <Ligand_Instance>  (751) 
nan

>  <PDB_ID>  (751) 
nan

>  <Standardized_SMILES>  (751) 
Cc1cc(C(=O)Nc2n[nH]c3c2CN(C(=O)N2C[C@@H]4CCCN4C[C@@H]2C)C3(C)C)nn1C

>  <Name>  (751) 
nan

>  <Pocket>  (751) 
nan

>  <ATP_Site>  (751) 
nan

>  <Peripheral>  (751) 
nan

>  <Num_H_Atoms_ProtBoundConf>  (751) 
nan

>  <Num_Resolved_Atoms>  (751) 
nan

>  <Num_Not_Resolved_Atoms>  (751) 
nan

$$$$
CHEMBL3662766
     RDKit          3D

  0  0  0  0  0  0  0  0  0  0999 V3000
M  V30 BEGIN CTAB
M  V30 COUNTS 66 70 0 0 0
M  V30 BEGIN ATOM
M  V30 1 C 5.605968 -3.484598 2.856251 0
M  V30 2 C 6.325793 -2.595442 1.869551 0
M  V30 3 C 5.781465 -1.195246 1.909153 0
M  V30 4 C 6.240659 -0.185699 2.717088 0
M  V30 5 C 5.658128 1.050450 2.658994 0
M  V30 6 N 4.630018 1.335346 1.827826 0
M  V30 7 C 4.132997 0.369442 1.002045 0
M  V30 8 C 3.028821 0.557188 0.064143 0
M  V30 9 O 2.592729 -0.367208 -0.689649 0
M  V30 10 N 2.453060 1.855089 0.035781 0
M  V30 11 C 1.374783 2.348692 -0.760940 0
M  V30 12 N 1.312088 2.935599 -1.974976 0
M  V30 13 N 0.053433 3.209155 -2.271308 0
M  V30 14 C -0.738620 2.810501 -1.263686 0
M  V30 15 C 0.062215 2.259312 -0.286132 0
M  V30 16 C -0.868174 1.839842 0.796334 0
M  V30 17 N -2.048452 1.457226 0.012205 0
M  V30 18 C -2.954282 0.404136 -0.185560 0
M  V30 19 O -3.920204 0.398411 -0.991399 0
M  V30 20 N -3.047431 -0.878072 0.419177 0
M  V30 21 C -4.111432 -1.766683 -0.000555 0
M  V30 22 C -3.460856 -2.869446 -0.795328 0 CFG=2
M  V30 23 C -4.016385 -4.228840 -0.526694 0
M  V30 24 C -2.802697 -5.099341 -0.590510 0
M  V30 25 C -1.706847 -4.235563 -1.130762 0
M  V30 26 N -2.031458 -2.911176 -0.633689 0
M  V30 27 C -1.599157 -2.744560 0.729908 0
M  V30 28 C -2.300661 -1.627557 1.442469 0 CFG=2
M  V30 29 C -3.228716 -2.216656 2.488996 0
M  V30 30 C -2.140545 2.698838 -0.723203 0
M  V30 31 C -3.150866 2.702947 -1.829200 0
M  V30 32 C -2.379546 3.901013 0.176919 0
M  V30 33 C 4.723145 -0.876523 1.063306 0
M  V30 34 H 6.305216 -4.288071 3.182961 0
M  V30 35 H 5.296472 -2.964653 3.777013 0
M  V30 36 H 4.737778 -4.003517 2.386963 0
M  V30 37 H 6.160561 -3.020665 0.858782 0
M  V30 38 H 7.402118 -2.621487 2.121724 0
M  V30 39 H 7.064192 -0.429605 3.376855 0
M  V30 40 H 6.008190 1.853455 3.287706 0
M  V30 41 H 2.803185 2.637681 0.656493 0
M  V30 42 H -0.276636 3.665673 -3.153938 0
M  V30 43 H -0.473604 1.040804 1.419525 0
M  V30 44 H -1.052713 2.772692 1.390433 0
M  V30 45 H -4.687739 -2.206609 0.839197 0
M  V30 46 H -4.856796 -1.205552 -0.597227 0
M  V30 47 H -3.660485 -2.639127 -1.873663 0
M  V30 48 H -4.587537 -4.332136 0.410894 0
M  V30 49 H -4.739934 -4.542750 -1.330081 0
M  V30 50 H -2.476665 -5.501632 0.391250 0
M  V30 51 H -2.962769 -5.944626 -1.318832 0
M  V30 52 H -1.693512 -4.179732 -2.255105 0
M  V30 53 H -0.700482 -4.527800 -0.768377 0
M  V30 54 H -0.515754 -2.502671 0.714358 0
M  V30 55 H -1.689508 -3.674661 1.325819 0
M  V30 56 H -1.625736 -0.966482 1.979374 0
M  V30 57 H -2.694225 -2.278709 3.482475 0
M  V30 58 H -3.472336 -3.273569 2.254535 0
M  V30 59 H -4.114110 -1.597371 2.698186 0
M  V30 60 H -3.108198 3.677488 -2.369855 0
M  V30 61 H -4.162081 2.678885 -1.377390 0
M  V30 62 H -3.078430 1.897282 -2.552398 0
M  V30 63 H -1.450064 4.486150 0.366100 0
M  V30 64 H -2.883337 3.622934 1.123457 0
M  V30 65 H -3.071319 4.617834 -0.356450 0
M  V30 66 H 4.344068 -1.674332 0.409898 0
M  V30 END ATOM
M  V30 BEGIN BOND
M  V30 1 1 1 2
M  V30 2 1 2 3
M  V30 3 2 3 4
M  V30 4 1 4 5
M  V30 5 2 5 6
M  V30 6 1 6 7
M  V30 7 1 7 8
M  V30 8 2 8 9
M  V30 9 1 8 10
M  V30 10 1 10 11
M  V30 11 2 11 12
M  V30 12 1 12 13
M  V30 13 1 13 14
M  V30 14 2 14 15
M  V30 15 1 15 16
M  V30 16 1 16 17
M  V30 17 1 17 18
M  V30 18 2 18 19
M  V30 19 1 18 20
M  V30 20 1 20 21
M  V30 21 1 21 22
M  V30 22 1 22 23
M  V30 23 1 23 24
M  V30 24 1 24 25
M  V30 25 1 25 26
M  V30 26 1 26 27
M  V30 27 1 27 28
M  V30 28 1 28 29
M  V30 29 1 17 30
M  V30 30 1 30 31
M  V30 31 1 30 32
M  V30 32 2 7 33
M  V30 33 1 33 3
M  V30 34 1 15 11
M  V30 35 1 28 20
M  V30 36 1 30 14
M  V30 37 1 26 22
M  V30 38 1 1 34
M  V30 39 1 1 35
M  V30 40 1 1 36
M  V30 41 1 2 37
M  V30 42 1 2 38
M  V30 43 1 4 39
M  V30 44 1 5 40
M  V30 45 1 10 41
M  V30 46 1 13 42
M  V30 47 1 16 43
M  V30 48 1 16 44
M  V30 49 1 21 45
M  V30 50 1 21 46
M  V30 51 1 22 47 CFG=3
M  V30 52 1 23 48
M  V30 53 1 23 49
M  V30 54 1 24 50
M  V30 55 1 24 51
M  V30 56 1 25 52
M  V30 57 1 25 53
M  V30 58 1 27 54
M  V30 59 1 27 55
M  V30 60 1 28 56 CFG=1
M  V30 61 1 29 57
M  V30 62 1 29 58
M  V30 63 1 29 59
M  V30 64 1 31 60
M  V30 65 1 31 61
M  V30 66 1 31 62
M  V30 67 1 32 63
M  V30 68 1 32 64
M  V30 69 1 32 65
M  V30 70 1 33 66
M  V30 END BOND
M  V30 END CTAB
M  END
>  <Dataset>  (752) 
ChEMBL_Kinases

>  <Ligand_Instance>  (752) 
nan

>  <PDB_ID>  (752) 
nan

>  <Standardized_SMILES>  (752) 
CCc1ccnc(C(=O)Nc2n[nH]c3c2CN(C(=O)N2C[C@@H]4CCCN4C[C@@H]2C)C3(C)C)c1

>  <Name>  (752) 
nan

>  <Pocket>  (752) 
nan

>  <ATP_Site>  (752) 
nan

>  <Peripheral>  (752) 
nan

>  <Num_H_Atoms_ProtBoundConf>  (752) 
nan

>  <Num_Resolved_Atoms>  (752) 
nan

>  <Num_Not_Resolved_Atoms>  (752) 
nan

$$$$
CHEMBL3662758
     RDKit          3D

  0  0  0  0  0  0  0  0  0  0999 V3000
M  V30 BEGIN CTAB
M  V30 COUNTS 57 61 0 0 0
M  V30 BEGIN ATOM
M  V30 1 C -1.561374 3.635320 0.774930 0
M  V30 2 C -0.191375 3.018161 0.611439 0 CFG=1
M  V30 3 C 0.541273 3.263460 1.908271 0
M  V30 4 N 1.925962 2.874660 1.842672 0
M  V30 5 C 2.526816 2.705381 3.126968 0
M  V30 6 C 3.562246 1.639242 3.021253 0
M  V30 7 C 3.146440 0.852198 1.823470 0
M  V30 8 C 2.145900 1.693403 1.063066 0 CFG=1
M  V30 9 C 0.902477 0.867339 0.866306 0
M  V30 10 N -0.226392 1.617012 0.353612 0
M  V30 11 C -1.284465 0.958355 -0.354993 0
M  V30 12 O -2.173268 1.796166 -0.753839 0
M  V30 13 N -1.388115 -0.458211 -0.615614 0
M  V30 14 C -0.590493 -1.634814 -0.293243 0
M  V30 15 C -1.536609 -2.780112 -0.510412 0
M  V30 16 C -1.783130 -4.126555 -0.345811 0
M  V30 17 N -0.838769 -5.009166 0.292407 0
M  V30 18 C 0.139819 -5.661288 -0.504812 0
M  V30 19 O 0.031515 -5.354674 -1.718927 0
M  V30 20 C 1.132805 -6.565224 0.032487 0
M  V30 21 C 1.187213 -6.864112 1.445747 0
M  V30 22 S 2.643953 -8.060475 1.513734 0
M  V30 23 C 2.871398 -7.907029 -0.363720 0
M  V30 24 N 2.053788 -7.186426 -0.674477 0
M  V30 25 N -3.006468 -4.433046 -0.868002 0
M  V30 26 N -3.548021 -3.315776 -1.362372 0
M  V30 27 C -2.665077 -2.326989 -1.146867 0
M  V30 28 C -2.550365 -0.878195 -1.399775 0
M  V30 29 C -3.820195 -0.209149 -0.968069 0
M  V30 30 C -2.325826 -0.581210 -2.874463 0
M  V30 31 H -2.299211 2.976174 1.232770 0
M  V30 32 H -1.439948 4.556504 1.424777 0
M  V30 33 H -1.969281 4.026643 -0.172090 0
M  V30 34 H 0.335754 3.517387 -0.217278 0
M  V30 35 H 0.038240 2.757802 2.745989 0
M  V30 36 H 0.506588 4.354202 2.108429 0
M  V30 37 H 3.023541 3.681175 3.395961 0
M  V30 38 H 1.752251 2.490919 3.898503 0
M  V30 39 H 3.600989 0.977749 3.928415 0
M  V30 40 H 4.568963 2.087855 2.891967 0
M  V30 41 H 2.708732 -0.112638 2.166860 0
M  V30 42 H 4.017622 0.578640 1.187321 0
M  V30 43 H 2.584667 1.982971 0.093114 0
M  V30 44 H 1.152128 0.127678 0.079554 0
M  V30 45 H 0.677238 0.309201 1.790054 0
M  V30 46 H 0.226578 -1.794752 -0.995297 0
M  V30 47 H -0.271774 -1.607375 0.776411 0
M  V30 48 H -0.872434 -5.168715 1.330928 0
M  V30 49 H 0.473911 -6.419867 2.197964 0
M  V30 50 H 3.662221 -8.447369 -0.932485 0
M  V30 51 H -4.489702 -3.317454 -1.813397 0
M  V30 52 H -4.662219 -0.908874 -1.102742 0
M  V30 53 H -3.781369 0.147933 0.071265 0
M  V30 54 H -4.007532 0.656704 -1.652541 0
M  V30 55 H -1.721420 0.325274 -2.973430 0
M  V30 56 H -3.305579 -0.425489 -3.352939 0
M  V30 57 H -1.768605 -1.434276 -3.337959 0
M  V30 END ATOM
M  V30 BEGIN BOND
M  V30 1 1 1 2
M  V30 2 1 2 3
M  V30 3 1 3 4
M  V30 4 1 4 5
M  V30 5 1 5 6
M  V30 6 1 6 7
M  V30 7 1 7 8
M  V30 8 1 8 9
M  V30 9 1 9 10
M  V30 10 1 10 11
M  V30 11 2 11 12
M  V30 12 1 11 13
M  V30 13 1 13 14
M  V30 14 1 14 15
M  V30 15 1 15 16
M  V30 16 1 16 17
M  V30 17 1 17 18
M  V30 18 2 18 19
M  V30 19 1 18 20
M  V30 20 2 20 21
M  V30 21 1 21 22
M  V30 22 1 22 23
M  V30 23 2 23 24
M  V30 24 2 16 25
M  V30 25 1 25 26
M  V30 26 1 26 27
M  V30 27 1 27 28
M  V30 28 1 28 29
M  V30 29 1 28 30
M  V30 30 1 10 2
M  V30 31 1 28 13
M  V30 32 1 8 4
M  V30 33 2 27 15
M  V30 34 1 24 20
M  V30 35 1 1 31
M  V30 36 1 1 32
M  V30 37 1 1 33
M  V30 38 1 2 34 CFG=3
M  V30 39 1 3 35
M  V30 40 1 3 36
M  V30 41 1 5 37
M  V30 42 1 5 38
M  V30 43 1 6 39
M  V30 44 1 6 40
M  V30 45 1 7 41
M  V30 46 1 7 42
M  V30 47 1 8 43 CFG=3
M  V30 48 1 9 44
M  V30 49 1 9 45
M  V30 50 1 14 46
M  V30 51 1 14 47
M  V30 52 1 17 48
M  V30 53 1 21 49
M  V30 54 1 23 50
M  V30 55 1 26 51
M  V30 56 1 29 52
M  V30 57 1 29 53
M  V30 58 1 29 54
M  V30 59 1 30 55
M  V30 60 1 30 56
M  V30 61 1 30 57
M  V30 END BOND
M  V30 END CTAB
M  END
>  <Dataset>  (753) 
ChEMBL_Kinases

>  <Ligand_Instance>  (753) 
nan

>  <PDB_ID>  (753) 
nan

>  <Standardized_SMILES>  (753) 
C[C@H]1CN2CCC[C@H]2CN1C(=O)N1Cc2c(NC(=O)c3cscn3)n[nH]c2C1(C)C

>  <Name>  (753) 
nan

>  <Pocket>  (753) 
nan

>  <ATP_Site>  (753) 
nan

>  <Peripheral>  (753) 
nan

>  <Num_H_Atoms_ProtBoundConf>  (753) 
nan

>  <Num_Resolved_Atoms>  (753) 
nan

>  <Num_Not_Resolved_Atoms>  (753) 
nan

$$$$
CHEMBL3662831
     RDKit          3D

  0  0  0  0  0  0  0  0  0  0999 V3000
M  V30 BEGIN CTAB
M  V30 COUNTS 62 65 0 0 0
M  V30 BEGIN ATOM
M  V30 1 C 1.021415 -5.030930 5.386659 0
M  V30 2 C 0.867732 -4.915262 3.898026 0
M  V30 3 C 1.486828 -3.662927 3.351373 0 CFG=1
M  V30 4 C 1.283835 -3.642640 1.875604 0
M  V30 5 N 1.081546 -2.331846 1.298399 0
M  V30 6 C 0.990368 -2.453350 -0.113007 0
M  V30 7 O 1.123491 -3.697545 -0.246115 0
M  V30 8 N 0.804699 -1.493674 -1.125765 0
M  V30 9 C 0.624146 -0.058717 -1.377926 0
M  V30 10 C -0.596184 -0.082477 -2.193776 0
M  V30 11 C -1.771654 0.588569 -2.521516 0
M  V30 12 N -2.151094 1.833704 -1.946833 0
M  V30 13 C -1.932577 3.178025 -2.282690 0
M  V30 14 O -1.257912 3.453641 -3.310471 0
M  V30 15 C -2.512417 4.191440 -1.402332 0
M  V30 16 C -2.292369 5.499658 -1.740626 0
M  V30 17 C -2.817361 6.508570 -0.943729 0
M  V30 18 C -3.548953 6.149356 0.171132 0
M  V30 19 C -3.763044 4.824850 0.500394 0
M  V30 20 N -3.234608 3.883396 -0.301915 0
M  V30 21 N -2.390021 -0.181156 -3.436734 0
M  V30 22 N -1.680543 -1.266255 -3.688835 0
M  V30 23 C -0.552238 -1.247605 -2.935704 0
M  V30 24 C 0.742137 -1.901111 -2.517203 0
M  V30 25 C 1.819269 -1.308370 -3.372940 0
M  V30 26 C 0.615739 -3.395422 -2.701849 0
M  V30 27 C 0.979487 -1.075021 2.014707 0 CFG=1
M  V30 28 C -0.465662 -0.653202 2.194690 0
M  V30 29 C 1.613024 -1.273254 3.400192 0
M  V30 30 N 1.154793 -2.471425 4.006731 0
M  V30 31 C 0.048270 -2.396760 4.864180 0
M  V30 32 H 0.084465 -4.828379 5.939567 0
M  V30 33 H 1.374534 -6.053257 5.659190 0
M  V30 34 H 1.861043 -4.361407 5.701959 0
M  V30 35 H -0.174541 -5.071304 3.556422 0
M  V30 36 H 1.436530 -5.753007 3.441423 0
M  V30 37 H 2.599525 -3.814430 3.502770 0
M  V30 38 H 2.103790 -4.164721 1.337900 0
M  V30 39 H 0.330804 -4.203267 1.647869 0
M  V30 40 H 1.525371 0.256092 -1.980976 0
M  V30 41 H 0.581970 0.556599 -0.493042 0
M  V30 42 H -2.714455 1.573017 -1.088584 0
M  V30 43 H -1.725742 5.794177 -2.604147 0
M  V30 44 H -2.669841 7.555388 -1.170925 0
M  V30 45 H -3.985667 6.897334 0.834252 0
M  V30 46 H -4.321646 4.457910 1.351868 0
M  V30 47 H -1.891729 -2.052743 -4.347846 0
M  V30 48 H 2.775903 -1.112495 -2.821386 0
M  V30 49 H 1.489879 -0.397978 -3.908221 0
M  V30 50 H 2.054057 -2.054365 -4.169491 0
M  V30 51 H 1.551466 -3.930174 -2.530265 0
M  V30 52 H 0.347248 -3.535961 -3.780819 0
M  V30 53 H -0.241015 -3.784201 -2.138977 0
M  V30 54 H 1.515462 -0.241754 1.561944 0
M  V30 55 H -0.454745 0.178395 2.952387 0
M  V30 56 H -0.854888 -0.219990 1.251390 0
M  V30 57 H -1.065581 -1.521623 2.536040 0
M  V30 58 H 2.701124 -1.360234 3.199330 0
M  V30 59 H 1.413346 -0.399836 4.038017 0
M  V30 60 H -0.336888 -1.333981 4.811346 0
M  V30 61 H 0.423271 -2.455967 5.928752 0
M  V30 62 H -0.824374 -3.012339 4.663838 0
M  V30 END ATOM
M  V30 BEGIN BOND
M  V30 1 1 1 2
M  V30 2 1 2 3
M  V30 3 1 3 4
M  V30 4 1 4 5
M  V30 5 1 5 6
M  V30 6 2 6 7
M  V30 7 1 6 8
M  V30 8 1 8 9
M  V30 9 1 9 10
M  V30 10 1 10 11
M  V30 11 1 11 12
M  V30 12 1 12 13
M  V30 13 2 13 14
M  V30 14 1 13 15
M  V30 15 2 15 16
M  V30 16 1 16 17
M  V30 17 2 17 18
M  V30 18 1 18 19
M  V30 19 2 19 20
M  V30 20 2 11 21
M  V30 21 1 21 22
M  V30 22 1 22 23
M  V30 23 1 23 24
M  V30 24 1 24 25
M  V30 25 1 24 26
M  V30 26 1 5 27
M  V30 27 1 27 28
M  V30 28 1 27 29
M  V30 29 1 29 30
M  V30 30 1 30 31
M  V30 31 1 30 3
M  V30 32 1 24 8
M  V30 33 2 23 10
M  V30 34 1 20 15
M  V30 35 1 1 32
M  V30 36 1 1 33
M  V30 37 1 1 34
M  V30 38 1 2 35
M  V30 39 1 2 36
M  V30 40 1 3 37 CFG=3
M  V30 41 1 4 38
M  V30 42 1 4 39
M  V30 43 1 9 40
M  V30 44 1 9 41
M  V30 45 1 12 42
M  V30 46 1 16 43
M  V30 47 1 17 44
M  V30 48 1 18 45
M  V30 49 1 19 46
M  V30 50 1 22 47
M  V30 51 1 25 48
M  V30 52 1 25 49
M  V30 53 1 25 50
M  V30 54 1 26 51
M  V30 55 1 26 52
M  V30 56 1 26 53
M  V30 57 1 27 54 CFG=3
M  V30 58 1 28 55
M  V30 59 1 28 56
M  V30 60 1 28 57
M  V30 61 1 29 58
M  V30 62 1 29 59
M  V30 63 1 31 60
M  V30 64 1 31 61
M  V30 65 1 31 62
M  V30 END BOND
M  V30 END CTAB
M  END
>  <Dataset>  (754) 
ChEMBL_Kinases

>  <Ligand_Instance>  (754) 
nan

>  <PDB_ID>  (754) 
nan

>  <Standardized_SMILES>  (754) 
CC[C@H]1CN(C(=O)N2Cc3c(NC(=O)c4ccccn4)n[nH]c3C2(C)C)[C@@H](C)CN1C

>  <Name>  (754) 
nan

>  <Pocket>  (754) 
nan

>  <ATP_Site>  (754) 
nan

>  <Peripheral>  (754) 
nan

>  <Num_H_Atoms_ProtBoundConf>  (754) 
nan

>  <Num_Resolved_Atoms>  (754) 
nan

>  <Num_Not_Resolved_Atoms>  (754) 
nan

$$$$
CHEMBL3662824
     RDKit          3D

  0  0  0  0  0  0  0  0  0  0999 V3000
M  V30 BEGIN CTAB
M  V30 COUNTS 63 66 0 0 0
M  V30 BEGIN ATOM
M  V30 1 C 2.862730 1.654101 3.788903 0
M  V30 2 C 3.038075 0.662668 2.685080 0 CFG=1
M  V30 3 C 3.320984 -0.701029 3.280410 0
M  V30 4 N 3.785294 -1.627146 2.276603 0
M  V30 5 C 5.162628 -1.411571 1.908896 0
M  V30 6 C 2.883446 -1.664074 1.185779 0
M  V30 7 C 3.464909 -2.369456 -0.030143 0
M  V30 8 C 1.645964 -2.444644 1.568941 0
M  V30 9 C 2.435127 -0.312107 0.665289 0
M  V30 10 N 1.943570 0.560588 1.748646 0
M  V30 11 C 0.669579 1.188713 1.878978 0
M  V30 12 O 0.633956 1.857962 2.969967 0
M  V30 13 N -0.513305 1.224945 1.087092 0
M  V30 14 C -1.072764 0.716158 -0.173883 0
M  V30 15 C -2.298972 0.040527 0.321871 0
M  V30 16 C -3.211298 -0.990417 0.239531 0
M  V30 17 N -3.141890 -2.041214 -0.713416 0
M  V30 18 C -3.765160 -1.941549 -1.964095 0
M  V30 19 O -4.354025 -0.808178 -2.053979 0
M  V30 20 C -3.787418 -2.917068 -3.037349 0
M  V30 21 C -4.496203 -2.538910 -4.182600 0
M  V30 22 C -4.608224 -3.344328 -5.272920 0
M  V30 23 C -4.034271 -4.583920 -5.326495 0
M  V30 24 F -4.095289 -5.444696 -6.364004 0
M  V30 25 C -3.330202 -4.981456 -4.211820 0
M  V30 26 C -3.220837 -4.168232 -3.119136 0
M  V30 27 F -2.536732 -4.542375 -2.023359 0
M  V30 28 N -4.141572 -0.831335 1.183642 0
M  V30 29 N -3.835995 0.264757 1.849042 0
M  V30 30 C -2.723385 0.831208 1.362843 0
M  V30 31 C -1.718207 1.953182 1.446585 0
M  V30 32 C -1.707435 2.557608 2.815085 0
M  V30 33 C -2.132428 2.986863 0.449128 0
M  V30 34 H 2.718233 2.690365 3.428736 0
M  V30 35 H 2.178530 1.332842 4.578925 0
M  V30 36 H 3.870262 1.708271 4.320241 0
M  V30 37 H 3.991214 0.929164 2.133179 0
M  V30 38 H 4.036123 -0.620511 4.106700 0
M  V30 39 H 2.349255 -1.085822 3.654822 0
M  V30 40 H 5.283698 -0.487064 1.325228 0
M  V30 41 H 5.766731 -1.463302 2.824958 0
M  V30 42 H 5.450575 -2.281800 1.274895 0
M  V30 43 H 3.987376 -3.290988 0.224436 0
M  V30 44 H 4.112340 -1.613351 -0.527743 0
M  V30 45 H 2.610381 -2.514310 -0.728981 0
M  V30 46 H 1.853962 -3.219839 2.311390 0
M  V30 47 H 0.877580 -1.765798 1.955693 0
M  V30 48 H 1.211673 -2.933006 0.662338 0
M  V30 49 H 3.318353 0.246791 0.230745 0
M  V30 50 H 1.693594 -0.541374 -0.088805 0
M  V30 51 H -1.418061 1.544049 -0.835278 0
M  V30 52 H -0.421631 0.083107 -0.748657 0
M  V30 53 H -2.620288 -2.908979 -0.490660 0
M  V30 54 H -4.992882 -1.557090 -4.231758 0
M  V30 55 H -5.164042 -3.010807 -6.132113 0
M  V30 56 H -2.841007 -5.937680 -4.152103 0
M  V30 57 H -4.376439 0.667883 2.661320 0
M  V30 58 H -1.037082 3.436918 2.808193 0
M  V30 59 H -1.565056 1.876411 3.643033 0
M  V30 60 H -2.739340 3.013725 2.936779 0
M  V30 61 H -2.975573 2.653286 -0.224854 0
M  V30 62 H -2.603559 3.850936 1.006694 0
M  V30 63 H -1.331032 3.429829 -0.146174 0
M  V30 END ATOM
M  V30 BEGIN BOND
M  V30 1 1 1 2
M  V30 2 1 2 3
M  V30 3 1 3 4
M  V30 4 1 4 5
M  V30 5 1 4 6
M  V30 6 1 6 7
M  V30 7 1 6 8
M  V30 8 1 6 9
M  V30 9 1 9 10
M  V30 10 1 10 11
M  V30 11 2 11 12
M  V30 12 1 11 13
M  V30 13 1 13 14
M  V30 14 1 14 15
M  V30 15 1 15 16
M  V30 16 1 16 17
M  V30 17 1 17 18
M  V30 18 2 18 19
M  V30 19 1 18 20
M  V30 20 2 20 21
M  V30 21 1 21 22
M  V30 22 2 22 23
M  V30 23 1 23 24
M  V30 24 1 23 25
M  V30 25 2 25 26
M  V30 26 1 26 27
M  V30 27 2 16 28
M  V30 28 1 28 29
M  V30 29 1 29 30
M  V30 30 1 30 31
M  V30 31 1 31 32
M  V30 32 1 31 33
M  V30 33 1 10 2
M  V30 34 1 31 13
M  V30 35 2 30 15
M  V30 36 1 26 20
M  V30 37 1 1 34
M  V30 38 1 1 35
M  V30 39 1 1 36
M  V30 40 1 2 37 CFG=3
M  V30 41 1 3 38
M  V30 42 1 3 39
M  V30 43 1 5 40
M  V30 44 1 5 41
M  V30 45 1 5 42
M  V30 46 1 7 43
M  V30 47 1 7 44
M  V30 48 1 7 45
M  V30 49 1 8 46
M  V30 50 1 8 47
M  V30 51 1 8 48
M  V30 52 1 9 49
M  V30 53 1 9 50
M  V30 54 1 14 51
M  V30 55 1 14 52
M  V30 56 1 17 53
M  V30 57 1 21 54
M  V30 58 1 22 55
M  V30 59 1 25 56
M  V30 60 1 29 57
M  V30 61 1 32 58
M  V30 62 1 32 59
M  V30 63 1 32 60
M  V30 64 1 33 61
M  V30 65 1 33 62
M  V30 66 1 33 63
M  V30 END BOND
M  V30 END CTAB
M  END
>  <Dataset>  (755) 
ChEMBL_Kinases

>  <Ligand_Instance>  (755) 
nan

>  <PDB_ID>  (755) 
nan

>  <Standardized_SMILES>  (755) 
C[C@H]1CN(C)C(C)(C)CN1C(=O)N1Cc2c(NC(=O)c3ccc(F)cc3F)n[nH]c2C1(C)C

>  <Name>  (755) 
nan

>  <Pocket>  (755) 
nan

>  <ATP_Site>  (755) 
nan

>  <Peripheral>  (755) 
nan

>  <Num_H_Atoms_ProtBoundConf>  (755) 
nan

>  <Num_Resolved_Atoms>  (755) 
nan

>  <Num_Not_Resolved_Atoms>  (755) 
nan

$$$$
CHEMBL3662823
     RDKit          3D

  0  0  0  0  0  0  0  0  0  0999 V3000
M  V30 BEGIN CTAB
M  V30 COUNTS 59 62 0 0 0
M  V30 BEGIN ATOM
M  V30 1 C -1.264716 -3.598157 2.214985 0
M  V30 2 C 0.040794 -4.154282 1.682947 0 CFG=2
M  V30 3 C 0.658228 -3.226089 0.659101 0
M  V30 4 N -0.295619 -3.151776 -0.450535 0
M  V30 5 C -1.242385 -2.216618 -0.914949 0
M  V30 6 O -1.885146 -2.551567 -1.968508 0
M  V30 7 N -1.614801 -0.920957 -0.390465 0
M  V30 8 C -1.257498 -0.043691 0.733637 0
M  V30 9 C -0.969389 1.227422 0.020199 0
M  V30 10 C -0.198088 2.373071 0.005630 0
M  V30 11 N 0.818244 2.754110 0.928627 0
M  V30 12 C 1.540220 3.969132 0.794930 0
M  V30 13 O 1.298101 4.757908 -0.160269 0
M  V30 14 C 2.561351 4.240639 1.815550 0
M  V30 15 C 3.298461 5.391241 1.754362 0
M  V30 16 C 4.267849 5.690138 2.689040 0
M  V30 17 C 4.517347 4.804436 3.734380 0
M  V30 18 C 3.756952 3.654123 3.766880 0
M  V30 19 N 2.823630 3.400335 2.838567 0
M  V30 20 N -0.621311 3.050422 -1.076843 0
M  V30 21 N -1.583589 2.401586 -1.710412 0
M  V30 22 C -1.828236 1.255261 -1.052229 0
M  V30 23 C -2.601000 -0.014799 -0.939666 0
M  V30 24 C -3.721836 0.158147 0.050549 0
M  V30 25 C -3.149083 -0.436795 -2.282396 0
M  V30 26 C -0.158080 -4.412804 -1.201794 0 CFG=1
M  V30 27 C 0.899502 -4.249140 -2.291371 0
M  V30 28 C 0.301304 -5.499370 -0.290984 0
M  V30 29 N -0.165693 -5.423025 1.060903 0
M  V30 30 C 0.601522 -6.424915 1.815230 0
M  V30 31 H -1.930628 -4.448411 2.513379 0
M  V30 32 H -1.838352 -3.086586 1.396806 0
M  V30 33 H -1.157038 -2.963710 3.099956 0
M  V30 34 H 0.720250 -4.222995 2.556534 0
M  V30 35 H 0.943849 -2.260178 1.072072 0
M  V30 36 H 1.630377 -3.697559 0.340823 0
M  V30 37 H -2.126857 0.086734 1.437597 0
M  V30 38 H -0.415626 -0.393960 1.322845 0
M  V30 39 H 1.022377 2.101614 1.723462 0
M  V30 40 H 3.107296 6.091699 0.935047 0
M  V30 41 H 4.815599 6.620163 2.580904 0
M  V30 42 H 5.272514 5.020618 4.476525 0
M  V30 43 H 3.895361 2.910279 4.557911 0
M  V30 44 H -2.102280 2.683791 -2.579609 0
M  V30 45 H -4.685453 0.218359 -0.532796 0
M  V30 46 H -3.649607 1.116088 0.607849 0
M  V30 47 H -3.835227 -0.713712 0.725997 0
M  V30 48 H -3.811788 -1.294561 -2.164232 0
M  V30 49 H -2.368981 -0.560404 -3.028922 0
M  V30 50 H -3.807885 0.433450 -2.593567 0
M  V30 51 H -1.141379 -4.617425 -1.657719 0
M  V30 52 H 1.344147 -5.260613 -2.474139 0
M  V30 53 H 0.453866 -3.906937 -3.224329 0
M  V30 54 H 1.728169 -3.607661 -1.929478 0
M  V30 55 H -0.070232 -6.461021 -0.735103 0
M  V30 56 H 1.414269 -5.596841 -0.350906 0
M  V30 57 H 1.505263 -6.762850 1.255299 0
M  V30 58 H -0.082150 -7.258105 2.082788 0
M  V30 59 H 1.011982 -5.988190 2.759461 0
M  V30 END ATOM
M  V30 BEGIN BOND
M  V30 1 1 1 2
M  V30 2 1 2 3
M  V30 3 1 3 4
M  V30 4 1 4 5
M  V30 5 2 5 6
M  V30 6 1 5 7
M  V30 7 1 7 8
M  V30 8 1 8 9
M  V30 9 1 9 10
M  V30 10 1 10 11
M  V30 11 1 11 12
M  V30 12 2 12 13
M  V30 13 1 12 14
M  V30 14 2 14 15
M  V30 15 1 15 16
M  V30 16 2 16 17
M  V30 17 1 17 18
M  V30 18 2 18 19
M  V30 19 2 10 20
M  V30 20 1 20 21
M  V30 21 1 21 22
M  V30 22 1 22 23
M  V30 23 1 23 24
M  V30 24 1 23 25
M  V30 25 1 4 26
M  V30 26 1 26 27
M  V30 27 1 26 28
M  V30 28 1 28 29
M  V30 29 1 29 30
M  V30 30 1 29 2
M  V30 31 1 23 7
M  V30 32 2 22 9
M  V30 33 1 19 14
M  V30 34 1 1 31
M  V30 35 1 1 32
M  V30 36 1 1 33
M  V30 37 1 2 34 CFG=1
M  V30 38 1 3 35
M  V30 39 1 3 36
M  V30 40 1 8 37
M  V30 41 1 8 38
M  V30 42 1 11 39
M  V30 43 1 15 40
M  V30 44 1 16 41
M  V30 45 1 17 42
M  V30 46 1 18 43
M  V30 47 1 21 44
M  V30 48 1 24 45
M  V30 49 1 24 46
M  V30 50 1 24 47
M  V30 51 1 25 48
M  V30 52 1 25 49
M  V30 53 1 25 50
M  V30 54 1 26 51 CFG=3
M  V30 55 1 27 52
M  V30 56 1 27 53
M  V30 57 1 27 54
M  V30 58 1 28 55
M  V30 59 1 28 56
M  V30 60 1 30 57
M  V30 61 1 30 58
M  V30 62 1 30 59
M  V30 END BOND
M  V30 END CTAB
M  END
>  <Dataset>  (756) 
ChEMBL_Kinases

>  <Ligand_Instance>  (756) 
nan

>  <PDB_ID>  (756) 
nan

>  <Standardized_SMILES>  (756) 
C[C@@H]1CN(C(=O)N2Cc3c(NC(=O)c4ccccn4)n[nH]c3C2(C)C)[C@@H](C)CN1C

>  <Name>  (756) 
nan

>  <Pocket>  (756) 
nan

>  <ATP_Site>  (756) 
nan

>  <Peripheral>  (756) 
nan

>  <Num_H_Atoms_ProtBoundConf>  (756) 
nan

>  <Num_Resolved_Atoms>  (756) 
nan

>  <Num_Not_Resolved_Atoms>  (756) 
nan

$$$$
CHEMBL3662822
     RDKit          3D

  0  0  0  0  0  0  0  0  0  0999 V3000
M  V30 BEGIN CTAB
M  V30 COUNTS 65 69 0 0 0
M  V30 BEGIN ATOM
M  V30 1 C -0.009514 1.157168 3.608001 0
M  V30 2 C 1.423584 1.533924 3.421916 0 CFG=1
M  V30 3 C 2.270873 0.378607 3.968723 0
M  V30 4 N 3.471160 0.377331 3.144809 0
M  V30 5 C 4.584126 -0.298688 3.733449 0
M  V30 6 C 5.741611 0.301048 2.922841 0
M  V30 7 C 5.357150 1.758953 2.777275 0
M  V30 8 C 3.871533 1.773761 3.054071 0 CFG=1
M  V30 9 C 3.073818 2.371253 1.900529 0
M  V30 10 N 1.748570 1.796067 2.010628 0
M  V30 11 C 0.724367 1.442088 1.106255 0
M  V30 12 O 1.798143 1.945061 0.710110 0
M  V30 13 N -0.010298 1.239300 -0.064864 0
M  V30 14 C -1.337774 0.669519 -0.088303 0
M  V30 15 C -1.189636 -0.439394 -1.071844 0
M  V30 16 C -1.596718 -1.712777 -1.414419 0
M  V30 17 N -2.530087 -2.546848 -0.730912 0
M  V30 18 C -2.826768 -3.852530 -1.244974 0
M  V30 19 O -2.211962 -4.161208 -2.298342 0
M  V30 20 C -3.813790 -4.615951 -0.438632 0
M  V30 21 C -5.129416 -3.915580 -0.286964 0
M  V30 22 C -6.138329 -4.295916 -1.341975 0
M  V30 23 C -5.383716 -4.639089 -2.598686 0
M  V30 24 C -4.487305 -5.799771 -2.318155 0
M  V30 25 O -4.014594 -5.843673 -1.026554 0
M  V30 26 N -0.904222 -1.971193 -2.539605 0
M  V30 27 N -0.128051 -0.950480 -2.877732 0
M  V30 28 C -0.272234 0.041832 -1.982359 0
M  V30 29 C 0.085519 1.419619 -1.499226 0
M  V30 30 C -0.911216 2.444553 -1.927115 0
M  V30 31 C 1.491070 1.740607 -1.940352 0
M  V30 32 H -0.704181 1.883310 3.120296 0
M  V30 33 H -0.167072 0.143310 3.180047 0
M  V30 34 H -0.202802 1.107473 4.688217 0
M  V30 35 H 1.609074 2.482330 3.969958 0
M  V30 36 H 1.723675 -0.563868 3.961747 0
M  V30 37 H 2.600419 0.680113 4.984810 0
M  V30 38 H 4.529233 -1.389735 3.601686 0
M  V30 39 H 4.684874 0.010850 4.783431 0
M  V30 40 H 6.703098 0.166239 3.417250 0
M  V30 41 H 5.724562 -0.157220 1.905265 0
M  V30 42 H 5.856857 2.292036 3.633822 0
M  V30 43 H 5.640914 2.198935 1.822291 0
M  V30 44 H 3.630298 2.314752 3.974481 0
M  V30 45 H 3.597586 2.086932 0.989620 0
M  V30 46 H 2.977692 3.484143 2.039517 0
M  V30 47 H -2.122068 1.384996 -0.411044 0
M  V30 48 H -1.616902 0.325394 0.904041 0
M  V30 49 H -2.970775 -2.167735 0.134795 0
M  V30 50 H -3.388594 -4.812830 0.569944 0
M  V30 51 H -5.596900 -4.211355 0.691019 0
M  V30 52 H -5.033570 -2.810522 -0.252575 0
M  V30 53 H -6.859915 -3.479266 -1.528309 0
M  V30 54 H -6.727145 -5.194366 -1.056520 0
M  V30 55 H -4.875666 -3.743143 -2.974221 0
M  V30 56 H -6.082891 -4.949857 -3.425499 0
M  V30 57 H -3.673031 -5.928478 -3.080304 0
M  V30 58 H -5.111151 -6.730905 -2.443251 0
M  V30 59 H 0.517253 -0.882930 -3.709210 0
M  V30 60 H -1.228410 3.096734 -1.064785 0
M  V30 61 H -1.806492 1.942010 -2.347528 0
M  V30 62 H -0.532609 3.089300 -2.762841 0
M  V30 63 H 1.547893 1.437843 -3.023302 0
M  V30 64 H 2.230088 1.114733 -1.429913 0
M  V30 65 H 1.699699 2.825378 -1.925738 0
M  V30 END ATOM
M  V30 BEGIN BOND
M  V30 1 1 1 2
M  V30 2 1 2 3
M  V30 3 1 3 4
M  V30 4 1 4 5
M  V30 5 1 5 6
M  V30 6 1 6 7
M  V30 7 1 7 8
M  V30 8 1 8 9
M  V30 9 1 9 10
M  V30 10 1 10 11
M  V30 11 2 11 12
M  V30 12 1 11 13
M  V30 13 1 13 14
M  V30 14 1 14 15
M  V30 15 1 15 16
M  V30 16 1 16 17
M  V30 17 1 17 18
M  V30 18 2 18 19
M  V30 19 1 18 20
M  V30 20 1 20 21
M  V30 21 1 21 22
M  V30 22 1 22 23
M  V30 23 1 23 24
M  V30 24 1 24 25
M  V30 25 2 16 26
M  V30 26 1 26 27
M  V30 27 1 27 28
M  V30 28 1 28 29
M  V30 29 1 29 30
M  V30 30 1 29 31
M  V30 31 1 10 2
M  V30 32 1 29 13
M  V30 33 1 8 4
M  V30 34 2 28 15
M  V30 35 1 25 20
M  V30 36 1 1 32
M  V30 37 1 1 33
M  V30 38 1 1 34
M  V30 39 1 2 35 CFG=1
M  V30 40 1 3 36
M  V30 41 1 3 37
M  V30 42 1 5 38
M  V30 43 1 5 39
M  V30 44 1 6 40
M  V30 45 1 6 41
M  V30 46 1 7 42
M  V30 47 1 7 43
M  V30 48 1 8 44 CFG=1
M  V30 49 1 9 45
M  V30 50 1 9 46
M  V30 51 1 14 47
M  V30 52 1 14 48
M  V30 53 1 17 49
M  V30 54 1 20 50
M  V30 55 1 21 51
M  V30 56 1 21 52
M  V30 57 1 22 53
M  V30 58 1 22 54
M  V30 59 1 23 55
M  V30 60 1 23 56
M  V30 61 1 24 57
M  V30 62 1 24 58
M  V30 63 1 27 59
M  V30 64 1 30 60
M  V30 65 1 30 61
M  V30 66 1 30 62
M  V30 67 1 31 63
M  V30 68 1 31 64
M  V30 69 1 31 65
M  V30 END BOND
M  V30 END CTAB
M  END
>  <Dataset>  (757) 
ChEMBL_Kinases

>  <Ligand_Instance>  (757) 
nan

>  <PDB_ID>  (757) 
nan

>  <Standardized_SMILES>  (757) 
C[C@H]1CN2CCC[C@H]2CN1C(=O)N1Cc2c(NC(=O)C3CCCCO3)n[nH]c2C1(C)C

>  <Name>  (757) 
nan

>  <Pocket>  (757) 
nan

>  <ATP_Site>  (757) 
nan

>  <Peripheral>  (757) 
nan

>  <Num_H_Atoms_ProtBoundConf>  (757) 
nan

>  <Num_Resolved_Atoms>  (757) 
nan

>  <Num_Not_Resolved_Atoms>  (757) 
nan

$$$$
CHEMBL3662815
     RDKit          3D

  0  0  0  0  0  0  0  0  0  0999 V3000
M  V30 BEGIN CTAB
M  V30 COUNTS 60 64 0 0 0
M  V30 BEGIN ATOM
M  V30 1 C 0.435244 2.630794 1.798531 0
M  V30 2 C 1.786720 2.141556 1.392111 0 CFG=1
M  V30 3 C 2.681302 1.978040 2.607268 0
M  V30 4 N 3.748089 1.047536 2.292221 0
M  V30 5 C 4.952619 1.303650 3.022940 0
M  V30 6 C 6.006214 0.653361 2.150823 0 CFG=1
M  V30 7 F 6.131917 -0.696997 2.431383 0
M  V30 8 C 5.476598 0.743846 0.742341 0
M  V30 9 C 4.109162 1.370513 0.902441 0 CFG=1
M  V30 10 C 3.077936 0.670849 0.040871 0
M  V30 11 N 1.759513 0.921839 0.593971 0
M  V30 12 C 0.511025 0.282364 0.538528 0
M  V30 13 O -0.642948 0.456852 0.993576 0
M  V30 14 N 0.119882 -0.903916 -0.131637 0
M  V30 15 C -1.300101 -1.257693 0.039600 0
M  V30 16 C -1.518377 -2.422966 -0.835850 0
M  V30 17 C -2.482637 -3.262108 -1.274092 0
M  V30 18 N -3.858033 -3.395215 -1.033054 0
M  V30 19 C -4.633502 -2.598493 -0.156155 0
M  V30 20 O -4.084398 -1.690525 0.475945 0
M  V30 21 C -6.081161 -2.814287 0.031197 0
M  V30 22 C -6.798481 -2.016183 0.894295 0
M  V30 23 C -8.159411 -2.165050 1.116338 0
M  V30 24 C -8.760795 -3.183555 0.403578 0
M  V30 25 C -8.063246 -3.993875 -0.464850 0
M  V30 26 N -6.738963 -3.783334 -0.625011 0
M  V30 27 N -1.829076 -4.113655 -2.120932 0
M  V30 28 N -0.569526 -3.812565 -2.188218 0
M  V30 29 C -0.308970 -2.768593 -1.411340 0
M  V30 30 C 0.790885 -1.891481 -0.971382 0
M  V30 31 C 1.523582 -1.220807 -2.113407 0
M  V30 32 C 1.738179 -2.773990 -0.169251 0
M  V30 33 H -0.257419 2.753667 0.948148 0
M  V30 34 H -0.061174 2.049779 2.592898 0
M  V30 35 H 0.584642 3.684001 2.182237 0
M  V30 36 H 2.235393 2.956069 0.766364 0
M  V30 37 H 2.107600 1.568200 3.443745 0
M  V30 38 H 3.097737 2.942210 2.911835 0
M  V30 39 H 5.174438 2.373211 3.168282 0
M  V30 40 H 4.902989 0.725763 3.975892 0
M  V30 41 H 6.992265 1.154157 2.218580 0
M  V30 42 H 6.106523 1.351525 0.083625 0
M  V30 43 H 5.320225 -0.244875 0.262245 0
M  V30 44 H 4.207405 2.440471 0.717946 0
M  V30 45 H 3.343960 -0.395754 0.072112 0
M  V30 46 H 3.187151 1.111796 -0.973016 0
M  V30 47 H -1.426017 -1.445666 1.110774 0
M  V30 48 H -1.864242 -0.351643 -0.335034 0
M  V30 49 H -4.443486 -4.139873 -1.515614 0
M  V30 50 H -6.266921 -1.226574 1.430143 0
M  V30 51 H -8.623078 -1.489604 1.810023 0
M  V30 52 H -9.822826 -3.317233 0.561927 0
M  V30 53 H -8.618129 -4.767759 -0.981332 0
M  V30 54 H 0.087969 -4.373827 -2.802063 0
M  V30 55 H 1.175625 -1.740145 -3.041359 0
M  V30 56 H 2.607742 -1.318508 -2.058482 0
M  V30 57 H 1.147694 -0.177209 -2.228349 0
M  V30 58 H 1.733572 -2.412753 0.859849 0
M  V30 59 H 2.772202 -2.635430 -0.593303 0
M  V30 60 H 1.535591 -3.854873 -0.295985 0
M  V30 END ATOM
M  V30 BEGIN BOND
M  V30 1 1 1 2
M  V30 2 1 2 3
M  V30 3 1 3 4
M  V30 4 1 4 5
M  V30 5 1 5 6
M  V30 6 1 6 7
M  V30 7 1 6 8
M  V30 8 1 8 9
M  V30 9 1 9 10
M  V30 10 1 10 11
M  V30 11 1 11 12
M  V30 12 2 12 13
M  V30 13 1 12 14
M  V30 14 1 14 15
M  V30 15 1 15 16
M  V30 16 1 16 17
M  V30 17 1 17 18
M  V30 18 1 18 19
M  V30 19 2 19 20
M  V30 20 1 19 21
M  V30 21 2 21 22
M  V30 22 1 22 23
M  V30 23 2 23 24
M  V30 24 1 24 25
M  V30 25 2 25 26
M  V30 26 2 17 27
M  V30 27 1 27 28
M  V30 28 1 28 29
M  V30 29 1 29 30
M  V30 30 1 30 31
M  V30 31 1 30 32
M  V30 32 1 11 2
M  V30 33 1 30 14
M  V30 34 1 9 4
M  V30 35 2 29 16
M  V30 36 1 26 21
M  V30 37 1 1 33
M  V30 38 1 1 34
M  V30 39 1 1 35
M  V30 40 1 2 36 CFG=3
M  V30 41 1 3 37
M  V30 42 1 3 38
M  V30 43 1 5 39
M  V30 44 1 5 40
M  V30 45 1 6 41 CFG=3
M  V30 46 1 8 42
M  V30 47 1 8 43
M  V30 48 1 9 44 CFG=1
M  V30 49 1 10 45
M  V30 50 1 10 46
M  V30 51 1 15 47
M  V30 52 1 15 48
M  V30 53 1 18 49
M  V30 54 1 22 50
M  V30 55 1 23 51
M  V30 56 1 24 52
M  V30 57 1 25 53
M  V30 58 1 28 54
M  V30 59 1 31 55
M  V30 60 1 31 56
M  V30 61 1 31 57
M  V30 62 1 32 58
M  V30 63 1 32 59
M  V30 64 1 32 60
M  V30 END BOND
M  V30 END CTAB
M  END
>  <Dataset>  (758) 
ChEMBL_Kinases

>  <Ligand_Instance>  (758) 
nan

>  <PDB_ID>  (758) 
nan

>  <Standardized_SMILES>  (758) 
C[C@H]1CN2C[C@@H](F)C[C@H]2CN1C(=O)N1Cc2c(NC(=O)c3ccccn3)n[nH]c2C1(C)C

>  <Name>  (758) 
nan

>  <Pocket>  (758) 
nan

>  <ATP_Site>  (758) 
nan

>  <Peripheral>  (758) 
nan

>  <Num_H_Atoms_ProtBoundConf>  (758) 
nan

>  <Num_Resolved_Atoms>  (758) 
nan

>  <Num_Not_Resolved_Atoms>  (758) 
nan

$$$$
CHEMBL3662814
     RDKit          3D

  0  0  0  0  0  0  0  0  0  0999 V3000
M  V30 BEGIN CTAB
M  V30 COUNTS 61 66 0 0 0
M  V30 BEGIN ATOM
M  V30 1 C 1.356129 0.850098 3.929941 0
M  V30 2 C 1.835995 1.302844 2.585685 0 CFG=1
M  V30 3 C 3.356421 1.317250 2.491881 0
M  V30 4 N 3.734881 1.194196 1.092657 0
M  V30 5 C 5.020953 1.743082 0.790539 0
M  V30 6 C 4.961099 2.154900 -0.679737 0 CFG=1
M  V30 7 C 4.314369 1.237155 -1.653511 0
M  V30 8 C 3.455683 2.249710 -1.001441 0
M  V30 9 C 2.796568 1.998579 0.329349 0 CFG=1
M  V30 10 C 1.510884 1.224326 0.200561 0
M  V30 11 N 1.313352 0.524892 1.479629 0
M  V30 12 C 0.742224 -0.704441 1.851504 0
M  V30 13 O 0.598156 -0.696751 0.602012 0
M  V30 14 N 0.103625 -1.891251 1.471851 0
M  V30 15 C -0.364844 -2.531636 0.231529 0
M  V30 16 C -1.682981 -3.038975 0.693963 0
M  V30 17 C -2.962793 -3.406363 0.337810 0
M  V30 18 N -3.529079 -3.390322 -0.966773 0
M  V30 19 C -4.156573 -2.146836 -1.276951 0
M  V30 20 O -4.112541 -1.281558 -0.373045 0
M  V30 21 C -4.792843 -1.948786 -2.575693 0
M  V30 22 C -5.393159 -0.744841 -2.858085 0
M  V30 23 C -6.000875 -0.535506 -4.079337 0
M  V30 24 C -6.016818 -1.542503 -5.049545 0
M  V30 25 C -5.398943 -2.740526 -4.720813 0
M  V30 26 N -4.809738 -2.929691 -3.523980 0
M  V30 27 N -3.633136 -3.800218 1.445599 0
M  V30 28 N -2.825577 -3.695012 2.483933 0
M  V30 29 C -1.640542 -3.237260 2.058326 0
M  V30 30 C -0.250466 -2.843040 2.477023 0
M  V30 31 C 0.621109 -4.079616 2.396531 0
M  V30 32 C -0.326876 -2.321179 3.870487 0
M  V30 33 H 0.297217 0.510068 3.835423 0
M  V30 34 H 2.011368 0.019286 4.254610 0
M  V30 35 H 1.359882 1.676706 4.669078 0
M  V30 36 H 1.530751 2.384860 2.475944 0
M  V30 37 H 3.689044 0.411699 3.062611 0
M  V30 38 H 3.795095 2.197988 2.975224 0
M  V30 39 H 5.828126 0.966023 0.902813 0
M  V30 40 H 5.303388 2.615494 1.402065 0
M  V30 41 H 5.629275 2.954861 -1.002662 0
M  V30 42 H 4.161385 0.168128 -1.364582 0
M  V30 43 H 4.556184 1.390287 -2.704571 0
M  V30 44 H 3.112123 3.167410 -1.533871 0
M  V30 45 H 2.608620 2.963699 0.844759 0
M  V30 46 H 1.635393 0.480161 -0.624576 0
M  V30 47 H 0.644151 1.868469 -0.037312 0
M  V30 48 H -0.435179 -1.815071 -0.588541 0
M  V30 49 H 0.257507 -3.409213 0.030841 0
M  V30 50 H -3.518591 -4.168001 -1.662723 0
M  V30 51 H -5.413017 0.079657 -2.140343 0
M  V30 52 H -6.496798 0.394677 -4.372319 0
M  V30 53 H -6.476286 -1.441754 -6.026050 0
M  V30 54 H -5.378251 -3.561645 -5.433599 0
M  V30 55 H -3.058695 -3.926733 3.477758 0
M  V30 56 H 0.073380 -4.930349 1.955430 0
M  V30 57 H 0.956085 -4.349053 3.418681 0
M  V30 58 H 1.537146 -3.858499 1.804557 0
M  V30 59 H 0.658324 -1.964873 4.235466 0
M  V30 60 H -0.588022 -3.183338 4.520184 0
M  V30 61 H -1.131085 -1.592278 3.999237 0
M  V30 END ATOM
M  V30 BEGIN BOND
M  V30 1 1 1 2
M  V30 2 1 2 3
M  V30 3 1 3 4
M  V30 4 1 4 5
M  V30 5 1 5 6
M  V30 6 1 6 7
M  V30 7 1 7 8
M  V30 8 1 8 9
M  V30 9 1 9 10
M  V30 10 1 10 11
M  V30 11 1 11 12
M  V30 12 2 12 13
M  V30 13 1 12 14
M  V30 14 1 14 15
M  V30 15 1 15 16
M  V30 16 1 16 17
M  V30 17 1 17 18
M  V30 18 1 18 19
M  V30 19 2 19 20
M  V30 20 1 19 21
M  V30 21 2 21 22
M  V30 22 1 22 23
M  V30 23 2 23 24
M  V30 24 1 24 25
M  V30 25 2 25 26
M  V30 26 2 17 27
M  V30 27 1 27 28
M  V30 28 1 28 29
M  V30 29 1 29 30
M  V30 30 1 30 31
M  V30 31 1 30 32
M  V30 32 1 11 2
M  V30 33 1 30 14
M  V30 34 1 9 4
M  V30 35 2 29 16
M  V30 36 1 8 6
M  V30 37 1 26 21
M  V30 38 1 1 33
M  V30 39 1 1 34
M  V30 40 1 1 35
M  V30 41 1 2 36 CFG=3
M  V30 42 1 3 37
M  V30 43 1 3 38
M  V30 44 1 5 39
M  V30 45 1 5 40
M  V30 46 1 6 41 CFG=3
M  V30 47 1 7 42
M  V30 48 1 7 43
M  V30 49 1 8 44
M  V30 50 1 9 45 CFG=1
M  V30 51 1 10 46
M  V30 52 1 10 47
M  V30 53 1 15 48
M  V30 54 1 15 49
M  V30 55 1 18 50
M  V30 56 1 22 51
M  V30 57 1 23 52
M  V30 58 1 24 53
M  V30 59 1 25 54
M  V30 60 1 28 55
M  V30 61 1 31 56
M  V30 62 1 31 57
M  V30 63 1 31 58
M  V30 64 1 32 59
M  V30 65 1 32 60
M  V30 66 1 32 61
M  V30 END BOND
M  V30 END CTAB
M  END
>  <Dataset>  (759) 
ChEMBL_Kinases

>  <Ligand_Instance>  (759) 
nan

>  <PDB_ID>  (759) 
nan

>  <Standardized_SMILES>  (759) 
C[C@H]1CN2C[C@H]3CC3[C@H]2CN1C(=O)N1Cc2c(NC(=O)c3ccccn3)n[nH]c2C1(C)C

>  <Name>  (759) 
nan

>  <Pocket>  (759) 
nan

>  <ATP_Site>  (759) 
nan

>  <Peripheral>  (759) 
nan

>  <Num_H_Atoms_ProtBoundConf>  (759) 
nan

>  <Num_Resolved_Atoms>  (759) 
nan

>  <Num_Not_Resolved_Atoms>  (759) 
nan

$$$$
CHEMBL3662813
     RDKit          3D

  0  0  0  0  0  0  0  0  0  0999 V3000
M  V30 BEGIN CTAB
M  V30 COUNTS 58 62 0 0 0
M  V30 BEGIN ATOM
M  V30 1 C 0.194210 3.141164 0.756684 0
M  V30 2 C 1.427838 2.336543 0.439749 0 CFG=1
M  V30 3 C 2.284462 2.233999 1.644878 0
M  V30 4 N 2.357621 1.032047 2.357972 0
M  V30 5 C 2.527386 1.163418 3.781185 0
M  V30 6 C 2.183532 -0.223283 4.295846 0
M  V30 7 C 0.978146 -0.540526 3.400878 0
M  V30 8 C 1.477352 -0.038815 2.086793 0 CFG=1
M  V30 9 C 0.354800 0.355028 1.124252 0
M  V30 10 C 1.098804 0.929571 -0.043489 0
M  V30 11 C 0.345637 0.925832 -1.302728 0
M  V30 12 O 0.221884 2.151381 -1.559151 0
M  V30 13 N 0.003399 -0.357411 -1.823142 0
M  V30 14 C 0.148716 -1.785904 -1.523814 0
M  V30 15 C -1.242508 -2.230058 -1.627884 0
M  V30 16 C -2.199456 -3.116661 -1.155060 0
M  V30 17 N -1.899999 -4.076321 -0.143791 0
M  V30 18 C -2.126620 -3.590635 1.170244 0
M  V30 19 O -2.549377 -2.414035 1.282844 0
M  V30 20 C -1.873214 -4.437488 2.326451 0
M  V30 21 C -2.127892 -3.877381 3.676259 0
M  V30 22 S -1.696964 -5.214706 4.755165 0
M  V30 23 C -1.234599 -6.346565 3.297167 0
M  V30 24 Br -0.599704 -8.149374 3.440973 0
M  V30 25 N -1.427425 -5.695625 2.360986 0
M  V30 26 N -3.325765 -2.837251 -1.838192 0
M  V30 27 N -3.116016 -1.845362 -2.689173 0
M  V30 28 C -1.829367 -1.432980 -2.594297 0
M  V30 29 C -0.744943 -0.496438 -3.066102 0
M  V30 30 C -1.363874 0.805937 -3.521413 0
M  V30 31 C 0.001300 -1.197737 -4.148817 0
M  V30 32 H 0.151958 3.359431 1.862953 0
M  V30 33 H -0.753146 2.673820 0.499923 0
M  V30 34 H 0.268244 4.157921 0.292206 0
M  V30 35 H 1.966495 2.818990 -0.425040 0
M  V30 36 H 2.006777 3.041568 2.357021 0
M  V30 37 H 3.336323 2.509924 1.338936 0
M  V30 38 H 3.582179 1.423151 3.967895 0
M  V30 39 H 1.817283 1.886063 4.238091 0
M  V30 40 H 2.981852 -0.922222 3.968419 0
M  V30 41 H 1.954043 -0.265895 5.359516 0
M  V30 42 H 0.882344 -1.645879 3.427053 0
M  V30 43 H 0.091645 -0.026137 3.787854 0
M  V30 44 H 2.025922 -0.859995 1.581734 0
M  V30 45 H -0.229125 1.116065 1.708294 0
M  V30 46 H -0.324347 -0.456957 0.932788 0
M  V30 47 H 2.075036 0.428870 -0.210750 0
M  V30 48 H 0.758585 -2.229664 -2.362993 0
M  V30 49 H 0.677263 -2.003707 -0.602267 0
M  V30 50 H -1.549723 -5.051390 -0.235520 0
M  V30 51 H -2.485808 -2.897909 3.913392 0
M  V30 52 H -3.803933 -1.417367 -3.347553 0
M  V30 53 H -2.176751 1.119419 -2.837509 0
M  V30 54 H -1.857002 0.582462 -4.487124 0
M  V30 55 H -0.575593 1.552715 -3.673165 0
M  V30 56 H -0.153656 -2.299735 -4.185716 0
M  V30 57 H -0.264942 -0.757316 -5.154253 0
M  V30 58 H 1.095320 -1.044441 -3.988192 0
M  V30 END ATOM
M  V30 BEGIN BOND
M  V30 1 1 1 2
M  V30 2 1 2 3
M  V30 3 1 3 4
M  V30 4 1 4 5
M  V30 5 1 5 6
M  V30 6 1 6 7
M  V30 7 1 7 8
M  V30 8 1 8 9
M  V30 9 1 9 10
M  V30 10 1 10 11
M  V30 11 2 11 12
M  V30 12 1 11 13
M  V30 13 1 13 14
M  V30 14 1 14 15
M  V30 15 1 15 16
M  V30 16 1 16 17
M  V30 17 1 17 18
M  V30 18 2 18 19
M  V30 19 1 18 20
M  V30 20 2 20 21
M  V30 21 1 21 22
M  V30 22 1 22 23
M  V30 23 1 23 24
M  V30 24 2 23 25
M  V30 25 2 16 26
M  V30 26 1 26 27
M  V30 27 1 27 28
M  V30 28 1 28 29
M  V30 29 1 29 30
M  V30 30 1 29 31
M  V30 31 1 10 2
M  V30 32 1 29 13
M  V30 33 1 8 4
M  V30 34 2 28 15
M  V30 35 1 25 20
M  V30 36 1 1 32
M  V30 37 1 1 33
M  V30 38 1 1 34
M  V30 39 1 2 35 CFG=3
M  V30 40 1 3 36
M  V30 41 1 3 37
M  V30 42 1 5 38
M  V30 43 1 5 39
M  V30 44 1 6 40
M  V30 45 1 6 41
M  V30 46 1 7 42
M  V30 47 1 7 43
M  V30 48 1 8 44 CFG=3
M  V30 49 1 9 45
M  V30 50 1 9 46
M  V30 51 1 10 47
M  V30 52 1 14 48
M  V30 53 1 14 49
M  V30 54 1 17 50
M  V30 55 1 21 51
M  V30 56 1 27 52
M  V30 57 1 30 53
M  V30 58 1 30 54
M  V30 59 1 30 55
M  V30 60 1 31 56
M  V30 61 1 31 57
M  V30 62 1 31 58
M  V30 END BOND
M  V30 END CTAB
M  END
>  <Dataset>  (760) 
ChEMBL_Kinases

>  <Ligand_Instance>  (760) 
nan

>  <PDB_ID>  (760) 
nan

>  <Standardized_SMILES>  (760) 
C[C@H]1CN2CCC[C@H]2CC1C(=O)N1Cc2c(NC(=O)c3csc(Br)n3)n[nH]c2C1(C)C

>  <Name>  (760) 
nan

>  <Pocket>  (760) 
nan

>  <ATP_Site>  (760) 
nan

>  <Peripheral>  (760) 
nan

>  <Num_H_Atoms_ProtBoundConf>  (760) 
nan

>  <Num_Resolved_Atoms>  (760) 
nan

>  <Num_Not_Resolved_Atoms>  (760) 
nan

$$$$
CHEMBL3662812
     RDKit          3D

  0  0  0  0  0  0  0  0  0  0999 V3000
M  V30 BEGIN CTAB
M  V30 COUNTS 70 73 0 0 0
M  V30 BEGIN ATOM
M  V30 1 C 2.237947 -2.308590 4.439419 0
M  V30 2 C 2.815654 -0.953091 4.730253 0
M  V30 3 C 3.740644 -0.473480 3.598670 0
M  V30 4 N 3.033084 -0.376852 2.419773 0
M  V30 5 C 2.074347 0.649040 2.387522 0
M  V30 6 C 1.064456 0.491916 1.260314 0 CFG=2
M  V30 7 C 0.245307 -0.727972 1.505576 0
M  V30 8 N 1.797288 0.411505 -0.014192 0
M  V30 9 C 1.298448 0.506399 -1.353174 0
M  V30 10 O 2.177601 0.359167 -2.275427 0
M  V30 11 N -0.008415 0.738233 -1.875816 0
M  V30 12 C -1.319914 0.987458 -1.272143 0
M  V30 13 C -2.172266 0.019057 -2.004055 0
M  V30 14 C -3.297059 -0.812575 -1.965695 0
M  V30 15 N -4.169712 -0.984091 -0.855600 0
M  V30 16 C -5.291369 -1.836807 -0.891938 0
M  V30 17 O -5.372758 -2.389273 -2.029018 0
M  V30 18 C -6.243324 -2.083169 0.180413 0
M  V30 19 C -7.278850 -2.969125 -0.148674 0
M  V30 20 C -8.258318 -3.301429 0.756684 0
M  V30 21 C -8.275112 -2.783483 2.031877 0
M  V30 22 F -9.253346 -3.133234 2.891794 0
M  V30 23 C -7.261456 -1.915193 2.356624 0
M  V30 24 C -6.298681 -1.596245 1.448182 0
M  V30 25 F -5.319300 -0.749590 1.782371 0
M  V30 26 N -3.368002 -1.395333 -3.174845 0
M  V30 27 N -2.381418 -0.972619 -3.909422 0
M  V30 28 C -1.614535 -0.107201 -3.253544 0
M  V30 29 C -0.415291 0.790088 -3.262901 0
M  V30 30 C 0.631079 0.264949 -4.223249 0
M  V30 31 C -0.816288 2.200362 -3.591579 0
M  V30 32 C 3.218488 0.245050 0.131265 0
M  V30 33 C 3.472341 -0.852061 1.183443 0 CFG=1
M  V30 34 C 4.924350 -1.276365 1.087874 0
M  V30 35 C 5.875524 -0.137452 1.352226 0
M  V30 36 O 7.187225 -0.666204 1.246063 0
M  V30 37 H 2.400688 -2.678386 3.421408 0
M  V30 38 H 1.143021 -2.359712 4.682209 0
M  V30 39 H 2.707083 -3.071369 5.125757 0
M  V30 40 H 1.988789 -0.240899 4.876694 0
M  V30 41 H 3.396619 -0.963434 5.680178 0
M  V30 42 H 4.654747 -1.113802 3.588441 0
M  V30 43 H 4.061550 0.549973 3.945573 0
M  V30 44 H 1.484313 0.842828 3.289145 0
M  V30 45 H 2.582577 1.634729 2.162327 0
M  V30 46 H 0.483727 1.429414 1.230657 0
M  V30 47 H -0.802053 -0.393761 1.767817 0
M  V30 48 H 0.086316 -1.334533 0.569675 0
M  V30 49 H 0.548252 -1.356267 2.352536 0
M  V30 50 H -1.639857 2.036544 -1.565938 0
M  V30 51 H -1.351216 0.863663 -0.194335 0
M  V30 52 H -3.972577 -0.457431 0.022028 0
M  V30 53 H -7.343108 -3.425772 -1.135898 0
M  V30 54 H -9.039530 -3.988550 0.463378 0
M  V30 55 H -7.219502 -1.474779 3.343397 0
M  V30 56 H -2.198137 -1.266901 -4.898049 0
M  V30 57 H 1.400078 1.022381 -4.341335 0
M  V30 58 H 0.094227 0.110417 -5.190415 0
M  V30 59 H 0.938050 -0.724137 -3.889279 0
M  V30 60 H -0.452947 2.422155 -4.622260 0
M  V30 61 H -1.921012 2.288562 -3.545788 0
M  V30 62 H -0.376169 2.914743 -2.865722 0
M  V30 63 H 3.726081 -0.010732 -0.818041 0
M  V30 64 H 3.671315 1.211896 0.475318 0
M  V30 65 H 2.859337 -1.717544 0.863265 0
M  V30 66 H 5.137938 -2.163344 1.714071 0
M  V30 67 H 5.141746 -1.605254 0.049456 0
M  V30 68 H 5.834834 0.558948 0.447835 0
M  V30 69 H 5.712359 0.442196 2.247741 0
M  V30 70 H 7.165863 -1.477952 0.677588 0
M  V30 END ATOM
M  V30 BEGIN BOND
M  V30 1 1 1 2
M  V30 2 1 2 3
M  V30 3 1 3 4
M  V30 4 1 4 5
M  V30 5 1 5 6
M  V30 6 1 6 7
M  V30 7 1 6 8
M  V30 8 1 8 9
M  V30 9 2 9 10
M  V30 10 1 9 11
M  V30 11 1 11 12
M  V30 12 1 12 13
M  V30 13 1 13 14
M  V30 14 1 14 15
M  V30 15 1 15 16
M  V30 16 2 16 17
M  V30 17 1 16 18
M  V30 18 2 18 19
M  V30 19 1 19 20
M  V30 20 2 20 21
M  V30 21 1 21 22
M  V30 22 1 21 23
M  V30 23 2 23 24
M  V30 24 1 24 25
M  V30 25 2 14 26
M  V30 26 1 26 27
M  V30 27 1 27 28
M  V30 28 1 28 29
M  V30 29 1 29 30
M  V30 30 1 29 31
M  V30 31 1 8 32
M  V30 32 1 32 33
M  V30 33 1 33 34
M  V30 34 1 34 35
M  V30 35 1 35 36
M  V30 36 1 33 4
M  V30 37 1 29 11
M  V30 38 2 28 13
M  V30 39 1 24 18
M  V30 40 1 1 37
M  V30 41 1 1 38
M  V30 42 1 1 39
M  V30 43 1 2 40
M  V30 44 1 2 41
M  V30 45 1 3 42
M  V30 46 1 3 43
M  V30 47 1 5 44
M  V30 48 1 5 45
M  V30 49 1 6 46 CFG=3
M  V30 50 1 7 47
M  V30 51 1 7 48
M  V30 52 1 7 49
M  V30 53 1 12 50
M  V30 54 1 12 51
M  V30 55 1 15 52
M  V30 56 1 19 53
M  V30 57 1 20 54
M  V30 58 1 23 55
M  V30 59 1 27 56
M  V30 60 1 30 57
M  V30 61 1 30 58
M  V30 62 1 30 59
M  V30 63 1 31 60
M  V30 64 1 31 61
M  V30 65 1 31 62
M  V30 66 1 32 63
M  V30 67 1 32 64
M  V30 68 1 33 65 CFG=3
M  V30 69 1 34 66
M  V30 70 1 34 67
M  V30 71 1 35 68
M  V30 72 1 35 69
M  V30 73 1 36 70
M  V30 END BOND
M  V30 END CTAB
M  END
>  <Dataset>  (761) 
ChEMBL_Kinases

>  <Ligand_Instance>  (761) 
nan

>  <PDB_ID>  (761) 
nan

>  <Standardized_SMILES>  (761) 
CCCN1C[C@H](C)N(C(=O)N2Cc3c(NC(=O)c4ccc(F)cc4F)n[nH]c3C2(C)C)C[C@H]1CCO

>  <Name>  (761) 
nan

>  <Pocket>  (761) 
nan

>  <ATP_Site>  (761) 
nan

>  <Peripheral>  (761) 
nan

>  <Num_H_Atoms_ProtBoundConf>  (761) 
nan

>  <Num_Resolved_Atoms>  (761) 
nan

>  <Num_Not_Resolved_Atoms>  (761) 
nan

$$$$
CHEMBL3662811
     RDKit          3D

  0  0  0  0  0  0  0  0  0  0999 V3000
M  V30 BEGIN CTAB
M  V30 COUNTS 67 71 0 0 0
M  V30 BEGIN ATOM
M  V30 1 C 2.022452 -0.182081 3.254017 0
M  V30 2 C 3.101307 -0.595027 2.280854 0
M  V30 3 C 4.414149 -0.281866 3.002137 0
M  V30 4 C 3.109956 0.143580 0.991967 0 CFG=1
M  V30 5 C 4.197220 -0.297315 0.052409 0
M  V30 6 N 3.869713 -1.369057 -0.792230 0
M  V30 7 C 4.090971 -2.698732 -0.370351 0
M  V30 8 C 3.716360 -3.430147 -1.678610 0
M  V30 9 C 2.315295 -2.815945 -1.838543 0
M  V30 10 C 2.604743 -1.376119 -1.423238 0 CFG=1
M  V30 11 C 1.485457 -0.754935 -0.684969 0
M  V30 12 N 1.837448 0.239528 0.312391 0
M  V30 13 C 0.929535 1.317633 0.656900 0
M  V30 14 O 1.440375 2.136222 1.505914 0
M  V30 15 N -0.393970 1.571120 0.195654 0
M  V30 16 C -1.470305 1.072245 -0.656018 0
M  V30 17 C -2.628671 1.087087 0.309241 0
M  V30 18 C -3.797460 0.483696 0.724688 0
M  V30 19 N -4.381330 -0.678333 0.147759 0
M  V30 20 C -3.973524 -1.922328 0.700276 0
M  V30 21 O -3.136724 -1.685706 1.630936 0
M  V30 22 C -4.394809 -3.244317 0.319336 0
M  V30 23 C -3.816037 -4.281316 1.051472 0
M  V30 24 C -4.118027 -5.595131 0.805529 0
M  V30 25 C -5.006946 -5.968918 -0.174662 0
M  V30 26 F -5.339640 -7.250519 -0.457672 0
M  V30 27 C -5.586637 -4.971971 -0.904910 0
M  V30 28 C -5.272997 -3.661658 -0.645500 0
M  V30 29 F -5.840967 -2.668132 -1.362208 0
M  V30 30 N -4.261764 1.209624 1.770029 0
M  V30 31 N -3.422250 2.214103 1.992115 0
M  V30 32 C -2.403494 2.174204 1.113948 0
M  V30 33 C -1.144754 2.739423 0.584303 0
M  V30 34 C -1.477672 3.668112 -0.545427 0
M  V30 35 C -0.524441 3.528118 1.716922 0
M  V30 36 H 2.233225 0.800850 3.747519 0
M  V30 37 H 1.997681 -0.987387 4.051894 0
M  V30 38 H 1.046687 -0.254236 2.772506 0
M  V30 39 H 3.061113 -1.692051 2.223848 0
M  V30 40 H 4.521838 0.812773 3.015619 0
M  V30 41 H 5.273552 -0.827542 2.591797 0
M  V30 42 H 4.319053 -0.615396 4.059741 0
M  V30 43 H 3.384213 1.209455 1.266456 0
M  V30 44 H 4.445306 0.574449 -0.627397 0
M  V30 45 H 5.142415 -0.510367 0.564527 0
M  V30 46 H 5.119324 -2.956274 -0.054403 0
M  V30 47 H 3.312290 -3.092793 0.335448 0
M  V30 48 H 3.632566 -4.513416 -1.521232 0
M  V30 49 H 4.364023 -3.107606 -2.498706 0
M  V30 50 H 1.992710 -2.916113 -2.878962 0
M  V30 51 H 1.663765 -3.345191 -1.109799 0
M  V30 52 H 2.753305 -0.847842 -2.420691 0
M  V30 53 H 0.904992 -0.149529 -1.456868 0
M  V30 54 H 0.725645 -1.488202 -0.311371 0
M  V30 55 H -1.591340 1.764618 -1.488743 0
M  V30 56 H -1.324924 0.020464 -0.981301 0
M  V30 57 H -5.071761 -0.695646 -0.633093 0
M  V30 58 H -3.103040 -4.093882 1.846000 0
M  V30 59 H -3.658397 -6.378986 1.384090 0
M  V30 60 H -6.295560 -5.186773 -1.692801 0
M  V30 61 H -3.467558 2.964914 2.714128 0
M  V30 62 H -1.447725 4.717232 -0.137210 0
M  V30 63 H -2.514045 3.463800 -0.906471 0
M  V30 64 H -0.741498 3.599659 -1.367423 0
M  V30 65 H -0.409357 2.935834 2.626048 0
M  V30 66 H 0.327932 4.153604 1.421523 0
M  V30 67 H -1.328227 4.286219 1.985644 0
M  V30 END ATOM
M  V30 BEGIN BOND
M  V30 1 1 1 2
M  V30 2 1 2 3
M  V30 3 1 2 4
M  V30 4 1 4 5
M  V30 5 1 5 6
M  V30 6 1 6 7
M  V30 7 1 7 8
M  V30 8 1 8 9
M  V30 9 1 9 10
M  V30 10 1 10 11
M  V30 11 1 11 12
M  V30 12 1 12 13
M  V30 13 2 13 14
M  V30 14 1 13 15
M  V30 15 1 15 16
M  V30 16 1 16 17
M  V30 17 1 17 18
M  V30 18 1 18 19
M  V30 19 1 19 20
M  V30 20 2 20 21
M  V30 21 1 20 22
M  V30 22 2 22 23
M  V30 23 1 23 24
M  V30 24 2 24 25
M  V30 25 1 25 26
M  V30 26 1 25 27
M  V30 27 2 27 28
M  V30 28 1 28 29
M  V30 29 2 18 30
M  V30 30 1 30 31
M  V30 31 1 31 32
M  V30 32 1 32 33
M  V30 33 1 33 34
M  V30 34 1 33 35
M  V30 35 1 12 4
M  V30 36 1 33 15
M  V30 37 1 10 6
M  V30 38 2 32 17
M  V30 39 1 28 22
M  V30 40 1 1 36
M  V30 41 1 1 37
M  V30 42 1 1 38
M  V30 43 1 2 39
M  V30 44 1 3 40
M  V30 45 1 3 41
M  V30 46 1 3 42
M  V30 47 1 4 43 CFG=1
M  V30 48 1 5 44
M  V30 49 1 5 45
M  V30 50 1 7 46
M  V30 51 1 7 47
M  V30 52 1 8 48
M  V30 53 1 8 49
M  V30 54 1 9 50
M  V30 55 1 9 51
M  V30 56 1 10 52 CFG=3
M  V30 57 1 11 53
M  V30 58 1 11 54
M  V30 59 1 16 55
M  V30 60 1 16 56
M  V30 61 1 19 57
M  V30 62 1 23 58
M  V30 63 1 24 59
M  V30 64 1 27 60
M  V30 65 1 31 61
M  V30 66 1 34 62
M  V30 67 1 34 63
M  V30 68 1 34 64
M  V30 69 1 35 65
M  V30 70 1 35 66
M  V30 71 1 35 67
M  V30 END BOND
M  V30 END CTAB
M  END
>  <Dataset>  (762) 
ChEMBL_Kinases

>  <Ligand_Instance>  (762) 
nan

>  <PDB_ID>  (762) 
nan

>  <Standardized_SMILES>  (762) 
CC(C)[C@H]1CN2CCC[C@H]2CN1C(=O)N1Cc2c(NC(=O)c3ccc(F)cc3F)n[nH]c2C1(C)C

>  <Name>  (762) 
nan

>  <Pocket>  (762) 
nan

>  <ATP_Site>  (762) 
nan

>  <Peripheral>  (762) 
nan

>  <Num_H_Atoms_ProtBoundConf>  (762) 
nan

>  <Num_Resolved_Atoms>  (762) 
nan

>  <Num_Not_Resolved_Atoms>  (762) 
nan

$$$$
CHEMBL3662810
     RDKit          3D

  0  0  0  0  0  0  0  0  0  0999 V3000
M  V30 BEGIN CTAB
M  V30 COUNTS 66 70 0 0 0
M  V30 BEGIN ATOM
M  V30 1 C 3.018065 3.642155 1.595570 0
M  V30 2 C 3.504140 2.296336 2.067597 0
M  V30 3 C 3.045895 2.060337 3.485902 0
M  V30 4 C 3.318395 1.170638 1.128446 0 CFG=1
M  V30 5 C 3.880045 -0.135321 1.718199 0
M  V30 6 N 2.972513 -1.181220 1.465194 0
M  V30 7 C 3.244741 -2.482163 1.919766 0
M  V30 8 C 2.068860 -3.267110 1.309905 0
M  V30 9 C 1.512913 -2.355537 0.205598 0
M  V30 10 C 2.628018 -1.345479 0.062760 0 CFG=1
M  V30 11 C 2.229292 -0.050882 -0.565289 0
M  V30 12 N 2.052799 0.880712 0.575401 0
M  V30 13 C 0.704389 1.182320 0.786894 0
M  V30 14 O 0.846942 1.979148 1.747772 0
M  V30 15 N -0.641140 1.011223 0.438083 0
M  V30 16 C -1.332635 0.219453 -0.529571 0
M  V30 17 C -2.419647 -0.403509 0.311702 0
M  V30 18 C -3.260185 -1.465858 0.565999 0
M  V30 19 N -3.291303 -2.648582 -0.206163 0
M  V30 20 C -4.106936 -2.905172 -1.361500 0
M  V30 21 O -4.887845 -1.999024 -1.752692 0
M  V30 22 C -3.971219 -4.215987 -2.009422 0
M  V30 23 C -4.756899 -4.460424 -3.120748 0
M  V30 24 C -4.642772 -5.684770 -3.741376 0
M  V30 25 C -3.769496 -6.676239 -3.290258 0
M  V30 26 C -3.010027 -6.356640 -2.164289 0
M  V30 27 N -3.117202 -5.150099 -1.546224 0
M  V30 28 N -4.004625 -1.162608 1.641688 0
M  V30 29 N -3.678203 0.050205 2.089942 0
M  V30 30 C -2.703232 0.524917 1.277091 0
M  V30 31 C -1.799259 1.670727 1.004714 0
M  V30 32 C -2.434626 2.511498 -0.082692 0
M  V30 33 C -1.531182 2.475779 2.242763 0
M  V30 34 H 2.373606 4.115960 2.375548 0
M  V30 35 H 2.608775 3.660522 0.581815 0
M  V30 36 H 3.890468 4.368314 1.542791 0
M  V30 37 H 4.639124 2.421464 2.146394 0
M  V30 38 H 2.533496 1.111712 3.635151 0
M  V30 39 H 3.927569 2.180015 4.173460 0
M  V30 40 H 2.395379 2.939136 3.786515 0
M  V30 41 H 4.021118 1.391272 0.254898 0
M  V30 42 H 4.911682 -0.339229 1.326743 0
M  V30 43 H 3.957687 0.028873 2.807188 0
M  V30 44 H 4.176683 -2.955778 1.552732 0
M  V30 45 H 3.148152 -2.603191 3.019892 0
M  V30 46 H 2.406857 -4.210517 0.871521 0
M  V30 47 H 1.272409 -3.451175 2.062017 0
M  V30 48 H 0.570822 -1.881273 0.563292 0
M  V30 49 H 1.339140 -2.908080 -0.731980 0
M  V30 50 H 3.468358 -1.816666 -0.460191 0
M  V30 51 H 3.118925 0.348613 -1.136663 0
M  V30 52 H 1.418276 -0.054072 -1.268647 0
M  V30 53 H -1.816066 0.831950 -1.302195 0
M  V30 54 H -0.766028 -0.561295 -1.050219 0
M  V30 55 H -2.624504 -3.360083 0.166485 0
M  V30 56 H -5.467761 -3.770782 -3.560860 0
M  V30 57 H -5.202230 -6.011063 -4.627222 0
M  V30 58 H -3.641710 -7.643629 -3.734708 0
M  V30 59 H -2.290807 -7.033529 -1.706055 0
M  V30 60 H -4.090049 0.552484 2.913723 0
M  V30 61 H -2.876362 3.441452 0.353855 0
M  V30 62 H -3.282382 2.003196 -0.577430 0
M  V30 63 H -1.704297 2.791272 -0.858349 0
M  V30 64 H -2.525503 2.874537 2.567028 0
M  V30 65 H -1.052264 1.869666 3.000686 0
M  V30 66 H -0.950356 3.366800 1.959257 0
M  V30 END ATOM
M  V30 BEGIN BOND
M  V30 1 1 1 2
M  V30 2 1 2 3
M  V30 3 1 2 4
M  V30 4 1 4 5
M  V30 5 1 5 6
M  V30 6 1 6 7
M  V30 7 1 7 8
M  V30 8 1 8 9
M  V30 9 1 9 10
M  V30 10 1 10 11
M  V30 11 1 11 12
M  V30 12 1 12 13
M  V30 13 2 13 14
M  V30 14 1 13 15
M  V30 15 1 15 16
M  V30 16 1 16 17
M  V30 17 1 17 18
M  V30 18 1 18 19
M  V30 19 1 19 20
M  V30 20 2 20 21
M  V30 21 1 20 22
M  V30 22 2 22 23
M  V30 23 1 23 24
M  V30 24 2 24 25
M  V30 25 1 25 26
M  V30 26 2 26 27
M  V30 27 2 18 28
M  V30 28 1 28 29
M  V30 29 1 29 30
M  V30 30 1 30 31
M  V30 31 1 31 32
M  V30 32 1 31 33
M  V30 33 1 12 4
M  V30 34 1 31 15
M  V30 35 1 10 6
M  V30 36 2 30 17
M  V30 37 1 27 22
M  V30 38 1 1 34
M  V30 39 1 1 35
M  V30 40 1 1 36
M  V30 41 1 2 37
M  V30 42 1 3 38
M  V30 43 1 3 39
M  V30 44 1 3 40
M  V30 45 1 4 41 CFG=3
M  V30 46 1 5 42
M  V30 47 1 5 43
M  V30 48 1 7 44
M  V30 49 1 7 45
M  V30 50 1 8 46
M  V30 51 1 8 47
M  V30 52 1 9 48
M  V30 53 1 9 49
M  V30 54 1 10 50 CFG=3
M  V30 55 1 11 51
M  V30 56 1 11 52
M  V30 57 1 16 53
M  V30 58 1 16 54
M  V30 59 1 19 55
M  V30 60 1 23 56
M  V30 61 1 24 57
M  V30 62 1 25 58
M  V30 63 1 26 59
M  V30 64 1 29 60
M  V30 65 1 32 61
M  V30 66 1 32 62
M  V30 67 1 32 63
M  V30 68 1 33 64
M  V30 69 1 33 65
M  V30 70 1 33 66
M  V30 END BOND
M  V30 END CTAB
M  END
>  <Dataset>  (763) 
ChEMBL_Kinases

>  <Ligand_Instance>  (763) 
nan

>  <PDB_ID>  (763) 
nan

>  <Standardized_SMILES>  (763) 
CC(C)[C@H]1CN2CCC[C@H]2CN1C(=O)N1Cc2c(NC(=O)c3ccccn3)n[nH]c2C1(C)C

>  <Name>  (763) 
nan

>  <Pocket>  (763) 
nan

>  <ATP_Site>  (763) 
nan

>  <Peripheral>  (763) 
nan

>  <Num_H_Atoms_ProtBoundConf>  (763) 
nan

>  <Num_Resolved_Atoms>  (763) 
nan

>  <Num_Not_Resolved_Atoms>  (763) 
nan

$$$$
CHEMBL3662809
     RDKit          3D

  0  0  0  0  0  0  0  0  0  0999 V3000
M  V30 BEGIN CTAB
M  V30 COUNTS 66 69 0 0 0
M  V30 BEGIN ATOM
M  V30 1 C -0.822648 -3.423684 4.623554 0
M  V30 2 C -1.165894 -2.829888 3.275107 0
M  V30 3 C -0.817274 -3.760947 2.131751 0
M  V30 4 N -0.165765 -3.045448 1.052187 0
M  V30 5 C -0.831103 -3.058645 -0.189229 0
M  V30 6 O -1.864882 -3.733879 0.026085 0
M  V30 7 N -0.503347 -2.481703 -1.446899 0
M  V30 8 C 0.521999 -1.675581 -2.103367 0
M  V30 9 C -0.293075 -0.643857 -2.767917 0
M  V30 10 C -0.382857 0.663642 -3.205780 0
M  V30 11 N 0.618760 1.677105 -3.083447 0
M  V30 12 C 0.429139 2.366887 -1.861402 0
M  V30 13 O -0.568451 1.911829 -1.198925 0
M  V30 14 C 1.244158 3.470652 -1.368010 0
M  V30 15 C 0.898143 4.013611 -0.147676 0
M  V30 16 C 1.660153 5.060769 0.332114 0
M  V30 17 C 2.736576 5.532772 -0.412205 0
M  V30 18 C 3.057688 4.959254 -1.642984 0
M  V30 19 N 2.284048 3.925309 -2.089122 0
M  V30 20 N -1.599258 0.813252 -3.775262 0
M  V30 21 N -2.273234 -0.321754 -3.718680 0
M  V30 22 C -1.494502 -1.232083 -3.105285 0
M  V30 23 C -1.345504 -2.631997 -2.613436 0
M  V30 24 C -0.657490 -3.388491 -3.721126 0
M  V30 25 C -2.718437 -3.172093 -2.319231 0
M  V30 26 C 1.058580 -2.484760 1.580631 0
M  V30 27 C 1.947207 -3.555140 2.181609 0
M  V30 28 C 0.684537 -1.430428 2.603980 0
M  V30 29 N -0.603253 -1.520195 3.109828 0
M  V30 30 C -1.490514 -0.452061 3.175183 0
M  V30 31 C -1.314771 0.658367 4.126047 0
M  V30 32 C -0.109629 1.500501 4.099082 0
M  V30 33 O 1.101535 0.927928 4.347431 0
M  V30 34 H -0.887746 -4.543634 4.580327 0
M  V30 35 H -1.510566 -3.131367 5.433278 0
M  V30 36 H 0.205270 -3.114489 4.961557 0
M  V30 37 H -2.270726 -2.722447 3.239368 0
M  V30 38 H -1.685654 -4.361734 1.807520 0
M  V30 39 H -0.090708 -4.507815 2.554047 0
M  V30 40 H 1.009876 -2.365109 -2.836240 0
M  V30 41 H 1.230932 -1.204080 -1.427052 0
M  V30 42 H 1.418884 1.988763 -3.688308 0
M  V30 43 H 0.038455 3.605870 0.404560 0
M  V30 44 H 1.412851 5.517811 1.302051 0
M  V30 45 H 3.341220 6.357345 -0.038476 0
M  V30 46 H 3.897501 5.321624 -2.230986 0
M  V30 47 H -3.228317 -0.610423 -4.041831 0
M  V30 48 H -1.452559 -4.007453 -4.222133 0
M  V30 49 H -0.207646 -2.762651 -4.495888 0
M  V30 50 H 0.045388 -4.112880 -3.261017 0
M  V30 51 H -2.748147 -4.240684 -2.058312 0
M  V30 52 H -3.336641 -2.954217 -3.217504 0
M  V30 53 H -3.162483 -2.562780 -1.506392 0
M  V30 54 H 1.645082 -2.018785 0.769346 0
M  V30 55 H 1.764250 -4.553090 1.716828 0
M  V30 56 H 3.037904 -3.362313 1.961984 0
M  V30 57 H 1.850824 -3.555102 3.273103 0
M  V30 58 H 0.835043 -0.460839 2.094072 0
M  V30 59 H 1.494363 -1.506571 3.387265 0
M  V30 60 H -1.560219 -0.013825 2.116698 0
M  V30 61 H -2.545145 -0.857128 3.300581 0
M  V30 62 H -1.452874 0.271932 5.193528 0
M  V30 63 H -2.198573 1.379496 4.029588 0
M  V30 64 H -0.249470 2.304106 4.885530 0
M  V30 65 H -0.032981 2.112102 3.151971 0
M  V30 66 H 1.728759 1.456827 4.883566 0
M  V30 END ATOM
M  V30 BEGIN BOND
M  V30 1 1 1 2
M  V30 2 1 2 3
M  V30 3 1 3 4
M  V30 4 1 4 5
M  V30 5 2 5 6
M  V30 6 1 5 7
M  V30 7 1 7 8
M  V30 8 1 8 9
M  V30 9 1 9 10
M  V30 10 1 10 11
M  V30 11 1 11 12
M  V30 12 2 12 13
M  V30 13 1 12 14
M  V30 14 2 14 15
M  V30 15 1 15 16
M  V30 16 2 16 17
M  V30 17 1 17 18
M  V30 18 2 18 19
M  V30 19 2 10 20
M  V30 20 1 20 21
M  V30 21 1 21 22
M  V30 22 1 22 23
M  V30 23 1 23 24
M  V30 24 1 23 25
M  V30 25 1 4 26
M  V30 26 1 26 27
M  V30 27 1 26 28
M  V30 28 1 28 29
M  V30 29 1 29 30
M  V30 30 1 30 31
M  V30 31 1 31 32
M  V30 32 1 32 33
M  V30 33 1 29 2
M  V30 34 1 23 7
M  V30 35 2 22 9
M  V30 36 1 19 14
M  V30 37 1 1 34
M  V30 38 1 1 35
M  V30 39 1 1 36
M  V30 40 1 2 37
M  V30 41 1 3 38
M  V30 42 1 3 39
M  V30 43 1 8 40
M  V30 44 1 8 41
M  V30 45 1 11 42
M  V30 46 1 15 43
M  V30 47 1 16 44
M  V30 48 1 17 45
M  V30 49 1 18 46
M  V30 50 1 21 47
M  V30 51 1 24 48
M  V30 52 1 24 49
M  V30 53 1 24 50
M  V30 54 1 25 51
M  V30 55 1 25 52
M  V30 56 1 25 53
M  V30 57 1 26 54
M  V30 58 1 27 55
M  V30 59 1 27 56
M  V30 60 1 27 57
M  V30 61 1 28 58
M  V30 62 1 28 59
M  V30 63 1 30 60
M  V30 64 1 30 61
M  V30 65 1 31 62
M  V30 66 1 31 63
M  V30 67 1 32 64
M  V30 68 1 32 65
M  V30 69 1 33 66
M  V30 END BOND
M  V30 END CTAB
M  END
>  <Dataset>  (764) 
ChEMBL_Kinases

>  <Ligand_Instance>  (764) 
nan

>  <PDB_ID>  (764) 
nan

>  <Standardized_SMILES>  (764) 
CC1CN(C(=O)N2Cc3c(NC(=O)c4ccccn4)n[nH]c3C2(C)C)C(C)CN1CCCO

>  <Name>  (764) 
nan

>  <Pocket>  (764) 
nan

>  <ATP_Site>  (764) 
nan

>  <Peripheral>  (764) 
nan

>  <Num_H_Atoms_ProtBoundConf>  (764) 
nan

>  <Num_Resolved_Atoms>  (764) 
nan

>  <Num_Not_Resolved_Atoms>  (764) 
nan

$$$$
CHEMBL3662805
     RDKit          3D

  0  0  0  0  0  0  0  0  0  0999 V3000
M  V30 BEGIN CTAB
M  V30 COUNTS 62 65 0 0 0
M  V30 BEGIN ATOM
M  V30 1 C 1.661502 -3.803591 4.820284 0
M  V30 2 C 2.699759 -3.210936 3.916002 0
M  V30 3 N 2.470354 -1.889401 3.442593 0
M  V30 4 C 3.606546 -1.438328 2.609265 0
M  V30 5 C 3.515826 -2.068037 1.231236 0 CFG=2
M  V30 6 C 4.724687 -1.646409 0.474412 0
M  V30 7 N 2.249159 -1.907656 0.620567 0
M  V30 8 C 1.874571 -1.340655 -0.594790 0
M  V30 9 O 3.044985 -1.045547 -0.925656 0
M  V30 10 N 0.764210 -1.050951 -1.418318 0
M  V30 11 C -0.699066 -1.172470 -1.497069 0
M  V30 12 C -1.071604 0.241426 -1.786360 0
M  V30 13 C -2.044544 1.195818 -1.556569 0
M  V30 14 N -3.230487 1.025871 -0.800499 0
M  V30 15 C -4.187625 2.049956 -0.592653 0
M  V30 16 O -3.972011 3.174557 -1.108192 0
M  V30 17 C -5.385223 1.778981 0.203938 0
M  V30 18 C -6.297547 2.809965 0.388484 0
M  V30 19 C -7.428538 2.541438 1.144696 0
M  V30 20 C -7.604725 1.280929 1.678291 0
M  V30 21 C -6.691145 0.264272 1.488214 0
M  V30 22 N -5.596785 0.546964 0.748575 0
M  V30 23 N -1.591093 2.271161 -2.208975 0
M  V30 24 N -0.433988 2.026343 -2.801936 0
M  V30 25 C -0.061384 0.750972 -2.563470 0
M  V30 26 C 0.882056 -0.400745 -2.704873 0
M  V30 27 C 0.410404 -1.251259 -3.859670 0
M  V30 28 C 2.263189 0.132260 -3.002420 0
M  V30 29 C 1.200198 -2.466240 1.501692 0
M  V30 30 C 1.254329 -1.629611 2.747083 0 CFG=1
M  V30 31 C 0.043121 -1.608371 3.587749 0
M  V30 32 H 1.171318 -3.093307 5.503976 0
M  V30 33 H 0.907842 -4.440978 4.280671 0
M  V30 34 H 2.143672 -4.555372 5.535626 0
M  V30 35 H 3.669045 -3.251631 4.511655 0
M  V30 36 H 2.881073 -3.976228 3.114734 0
M  V30 37 H 3.575686 -0.338523 2.562224 0
M  V30 38 H 4.527680 -1.801620 3.087321 0
M  V30 39 H 3.634550 -3.178881 1.426289 0
M  V30 40 H 4.854161 -0.549919 0.372365 0
M  V30 41 H 5.601609 -1.927781 1.152527 0
M  V30 42 H 4.937145 -2.223936 -0.448646 0
M  V30 43 H -1.162538 -1.490363 -0.555904 0
M  V30 44 H -1.004452 -1.797930 -2.360346 0
M  V30 45 H -3.431528 0.105517 -0.363913 0
M  V30 46 H -6.082474 3.769591 -0.065260 0
M  V30 47 H -8.127183 3.354024 1.278428 0
M  V30 48 H -8.488486 1.065944 2.270315 0
M  V30 49 H -6.854748 -0.714092 1.918634 0
M  V30 50 H 0.174282 2.662752 -3.387515 0
M  V30 51 H 0.445249 -2.331817 -3.669834 0
M  V30 52 H 1.039036 -0.990705 -4.764877 0
M  V30 53 H -0.617499 -0.975273 -4.169828 0
M  V30 54 H 2.631368 0.806575 -2.233661 0
M  V30 55 H 2.156945 0.739163 -3.946306 0
M  V30 56 H 2.961240 -0.699765 -3.203915 0
M  V30 57 H 1.505381 -3.507046 1.725742 0
M  V30 58 H 0.225657 -2.511933 1.032113 0
M  V30 59 H 1.376276 -0.556768 2.356822 0
M  V30 60 H -0.709136 -0.886292 3.152439 0
M  V30 61 H -0.428079 -2.566600 3.830191 0
M  V30 62 H 0.316596 -1.119751 4.560010 0
M  V30 END ATOM
M  V30 BEGIN BOND
M  V30 1 1 1 2
M  V30 2 1 2 3
M  V30 3 1 3 4
M  V30 4 1 4 5
M  V30 5 1 5 6
M  V30 6 1 5 7
M  V30 7 1 7 8
M  V30 8 2 8 9
M  V30 9 1 8 10
M  V30 10 1 10 11
M  V30 11 1 11 12
M  V30 12 1 12 13
M  V30 13 1 13 14
M  V30 14 1 14 15
M  V30 15 2 15 16
M  V30 16 1 15 17
M  V30 17 2 17 18
M  V30 18 1 18 19
M  V30 19 2 19 20
M  V30 20 1 20 21
M  V30 21 2 21 22
M  V30 22 2 13 23
M  V30 23 1 23 24
M  V30 24 1 24 25
M  V30 25 1 25 26
M  V30 26 1 26 27
M  V30 27 1 26 28
M  V30 28 1 7 29
M  V30 29 1 29 30
M  V30 30 1 30 31
M  V30 31 1 30 3
M  V30 32 1 26 10
M  V30 33 2 25 12
M  V30 34 1 22 17
M  V30 35 1 1 32
M  V30 36 1 1 33
M  V30 37 1 1 34
M  V30 38 1 2 35
M  V30 39 1 2 36
M  V30 40 1 4 37
M  V30 41 1 4 38
M  V30 42 1 5 39 CFG=1
M  V30 43 1 6 40
M  V30 44 1 6 41
M  V30 45 1 6 42
M  V30 46 1 11 43
M  V30 47 1 11 44
M  V30 48 1 14 45
M  V30 49 1 18 46
M  V30 50 1 19 47
M  V30 51 1 20 48
M  V30 52 1 21 49
M  V30 53 1 24 50
M  V30 54 1 27 51
M  V30 55 1 27 52
M  V30 56 1 27 53
M  V30 57 1 28 54
M  V30 58 1 28 55
M  V30 59 1 28 56
M  V30 60 1 29 57
M  V30 61 1 29 58
M  V30 62 1 30 59 CFG=3
M  V30 63 1 31 60
M  V30 64 1 31 61
M  V30 65 1 31 62
M  V30 END BOND
M  V30 END CTAB
M  END
>  <Dataset>  (765) 
ChEMBL_Kinases

>  <Ligand_Instance>  (765) 
nan

>  <PDB_ID>  (765) 
nan

>  <Standardized_SMILES>  (765) 
CCN1C[C@H](C)N(C(=O)N2Cc3c(NC(=O)c4ccccn4)n[nH]c3C2(C)C)C[C@H]1C

>  <Name>  (765) 
nan

>  <Pocket>  (765) 
nan

>  <ATP_Site>  (765) 
nan

>  <Peripheral>  (765) 
nan

>  <Num_H_Atoms_ProtBoundConf>  (765) 
nan

>  <Num_Resolved_Atoms>  (765) 
nan

>  <Num_Not_Resolved_Atoms>  (765) 
nan

$$$$
CHEMBL3662803
     RDKit          3D

  0  0  0  0  0  0  0  0  0  0999 V3000
M  V30 BEGIN CTAB
M  V30 COUNTS 66 69 0 0 0
M  V30 BEGIN ATOM
M  V30 1 C 4.485511 -1.093013 4.228542 0
M  V30 2 O 4.057067 -0.092449 5.053333 0
M  V30 3 C 2.898081 0.529446 4.647103 0
M  V30 4 C 3.068192 1.151180 3.312690 0
M  V30 5 N 1.885535 1.846418 2.831904 0
M  V30 6 C 0.808039 0.944755 2.531043 0
M  V30 7 C 0.007630 1.485699 1.359859 0 CFG=2
M  V30 8 C -1.365342 0.939963 1.320909 0
M  V30 9 N 0.821580 1.291007 0.181698 0
M  V30 10 C 0.909767 0.680739 -1.135757 0
M  V30 11 O 1.995730 0.837852 -1.816657 0
M  V30 12 N 0.032682 -0.122648 -1.955611 0
M  V30 13 C -1.316176 -0.677711 -1.893328 0
M  V30 14 C -1.099805 -2.097312 -2.160068 0
M  V30 15 C -1.517982 -3.404225 -1.880025 0
M  V30 16 N -2.587366 -3.650717 -0.977919 0
M  V30 17 C -2.685398 -3.870815 0.421655 0
M  V30 18 O -1.637598 -3.867725 1.117386 0
M  V30 19 C -4.040700 -4.090695 0.960938 0
M  V30 20 C -4.098543 -4.295610 2.320539 0
M  V30 21 C -5.378614 -4.502027 2.835385 0
M  V30 22 C -6.477256 -4.492672 2.003106 0
M  V30 23 C -6.372299 -4.283249 0.645963 0
M  V30 24 N -5.140172 -4.085957 0.159187 0
M  V30 25 N -0.711084 -4.200795 -2.621824 0
M  V30 26 N 0.139657 -3.458389 -3.307494 0
M  V30 27 C -0.062341 -2.132158 -3.053294 0
M  V30 28 C 0.285667 -0.692194 -3.262895 0
M  V30 29 C -0.594638 -0.152459 -4.355487 0
M  V30 30 C 1.746201 -0.675166 -3.667854 0
M  V30 31 C 2.084303 2.020097 0.385065 0
M  V30 32 C 2.274687 2.650843 1.698698 0 CFG=1
M  V30 33 C 1.781331 4.081035 1.769277 0
M  V30 34 H 4.721086 -0.735196 3.215487 0
M  V30 35 H 5.406549 -1.590391 4.640573 0
M  V30 36 H 3.702383 -1.898207 4.158762 0
M  V30 37 H 2.119545 -0.291760 4.613088 0
M  V30 38 H 2.647094 1.260308 5.450253 0
M  V30 39 H 3.196620 0.308780 2.566548 0
M  V30 40 H 3.987530 1.736261 3.274779 0
M  V30 41 H 1.252917 -0.009948 2.186354 0
M  V30 42 H 0.116983 0.724318 3.339027 0
M  V30 43 H -0.125321 2.603130 1.485116 0
M  V30 44 H -1.943313 1.439167 0.533899 0
M  V30 45 H -1.852649 1.259260 2.288448 0
M  V30 46 H -1.431033 -0.160564 1.340715 0
M  V30 47 H -1.894384 -0.176665 -2.726768 0
M  V30 48 H -1.875951 -0.457856 -0.996683 0
M  V30 49 H -3.446693 -3.650203 -1.570380 0
M  V30 50 H -3.245711 -4.304051 2.973292 0
M  V30 51 H -5.489826 -4.669189 3.901339 0
M  V30 52 H -7.491853 -4.649541 2.368887 0
M  V30 53 H -7.142608 -4.254055 -0.094652 0
M  V30 54 H 0.888401 -3.784298 -3.970753 0
M  V30 55 H -0.966520 0.863760 -4.164294 0
M  V30 56 H -1.465404 -0.798399 -4.583730 0
M  V30 57 H 0.019907 -0.061852 -5.289034 0
M  V30 58 H 2.330740 -1.157395 -2.887709 0
M  V30 59 H 2.089434 0.285112 -4.037086 0
M  V30 60 H 1.789555 -1.402551 -4.541906 0
M  V30 61 H 2.058928 2.825830 -0.404960 0
M  V30 62 H 2.968645 1.398633 0.067032 0
M  V30 63 H 3.406622 2.764775 1.806615 0
M  V30 64 H 2.612213 4.828424 1.874262 0
M  V30 65 H 1.302850 4.369403 0.790193 0
M  V30 66 H 1.113700 4.289610 2.614452 0
M  V30 END ATOM
M  V30 BEGIN BOND
M  V30 1 1 1 2
M  V30 2 1 2 3
M  V30 3 1 3 4
M  V30 4 1 4 5
M  V30 5 1 5 6
M  V30 6 1 6 7
M  V30 7 1 7 8
M  V30 8 1 7 9
M  V30 9 1 9 10
M  V30 10 2 10 11
M  V30 11 1 10 12
M  V30 12 1 12 13
M  V30 13 1 13 14
M  V30 14 1 14 15
M  V30 15 1 15 16
M  V30 16 1 16 17
M  V30 17 2 17 18
M  V30 18 1 17 19
M  V30 19 2 19 20
M  V30 20 1 20 21
M  V30 21 2 21 22
M  V30 22 1 22 23
M  V30 23 2 23 24
M  V30 24 2 15 25
M  V30 25 1 25 26
M  V30 26 1 26 27
M  V30 27 1 27 28
M  V30 28 1 28 29
M  V30 29 1 28 30
M  V30 30 1 9 31
M  V30 31 1 31 32
M  V30 32 1 32 33
M  V30 33 1 32 5
M  V30 34 1 28 12
M  V30 35 2 27 14
M  V30 36 1 24 19
M  V30 37 1 1 34
M  V30 38 1 1 35
M  V30 39 1 1 36
M  V30 40 1 3 37
M  V30 41 1 3 38
M  V30 42 1 4 39
M  V30 43 1 4 40
M  V30 44 1 6 41
M  V30 45 1 6 42
M  V30 46 1 7 43 CFG=1
M  V30 47 1 8 44
M  V30 48 1 8 45
M  V30 49 1 8 46
M  V30 50 1 13 47
M  V30 51 1 13 48
M  V30 52 1 16 49
M  V30 53 1 20 50
M  V30 54 1 21 51
M  V30 55 1 22 52
M  V30 56 1 23 53
M  V30 57 1 26 54
M  V30 58 1 29 55
M  V30 59 1 29 56
M  V30 60 1 29 57
M  V30 61 1 30 58
M  V30 62 1 30 59
M  V30 63 1 30 60
M  V30 64 1 31 61
M  V30 65 1 31 62
M  V30 66 1 32 63 CFG=1
M  V30 67 1 33 64
M  V30 68 1 33 65
M  V30 69 1 33 66
M  V30 END BOND
M  V30 END CTAB
M  END
>  <Dataset>  (766) 
ChEMBL_Kinases

>  <Ligand_Instance>  (766) 
nan

>  <PDB_ID>  (766) 
nan

>  <Standardized_SMILES>  (766) 
COCCN1C[C@H](C)N(C(=O)N2Cc3c(NC(=O)c4ccccn4)n[nH]c3C2(C)C)C[C@H]1C

>  <Name>  (766) 
nan

>  <Pocket>  (766) 
nan

>  <ATP_Site>  (766) 
nan

>  <Peripheral>  (766) 
nan

>  <Num_H_Atoms_ProtBoundConf>  (766) 
nan

>  <Num_Resolved_Atoms>  (766) 
nan

>  <Num_Not_Resolved_Atoms>  (766) 
nan

$$$$
CHEMBL3662802
     RDKit          3D

  0  0  0  0  0  0  0  0  0  0999 V3000
M  V30 BEGIN CTAB
M  V30 COUNTS 60 64 0 0 0
M  V30 BEGIN ATOM
M  V30 1 C 3.447264 1.997916 2.038204 0
M  V30 2 C 3.436534 0.515135 1.782390 0 CFG=1
M  V30 3 C 4.015539 -0.269483 2.905575 0
M  V30 4 N 3.092390 -0.714676 3.911224 0
M  V30 5 C 2.759755 0.222688 4.923301 0
M  V30 6 C 1.254173 0.289665 5.018858 0
M  V30 7 C 0.826695 -0.168510 3.622675 0
M  V30 8 C 1.863457 -1.229740 3.344044 0 CFG=1
M  V30 9 C 1.990564 -1.353597 1.829202 0
M  V30 10 N 2.158187 -0.001435 1.330596 0
M  V30 11 C 1.358554 0.876266 0.531366 0
M  V30 12 O 1.844101 2.029781 0.259697 0
M  V30 13 N 0.046234 0.674109 -0.042268 0
M  V30 14 C -1.053321 -0.272850 -0.165700 0
M  V30 15 C -1.243408 -0.456474 -1.602326 0
M  V30 16 C -1.533854 -1.228658 -2.713608 0
M  V30 17 N -1.836878 -2.619351 -2.630818 0
M  V30 18 C -3.178289 -3.069766 -2.462323 0
M  V30 19 O -4.112734 -2.215722 -2.385493 0
M  V30 20 C -3.448566 -4.501282 -2.381800 0
M  V30 21 C -4.752379 -4.930902 -2.217791 0
M  V30 22 C -5.091016 -6.263352 -2.132789 0
M  V30 23 C -4.112325 -7.238927 -2.210806 0
M  V30 24 F -4.278713 -8.581640 -2.145132 0
M  V30 25 C -2.810262 -6.769789 -2.375991 0
M  V30 26 N -2.503335 -5.448495 -2.456979 0
M  V30 27 N -1.466838 -0.423631 -3.789414 0
M  V30 28 N -1.152735 0.813478 -3.443125 0
M  V30 29 C -1.011685 0.805320 -2.090648 0
M  V30 30 C -0.698292 1.600077 -0.846204 0
M  V30 31 C 0.111803 2.780280 -1.341177 0
M  V30 32 C -1.956213 2.116494 -0.186716 0
M  V30 33 H 4.215090 2.143743 2.856432 0
M  V30 34 H 3.876524 2.563810 1.170167 0
M  V30 35 H 2.513960 2.394502 2.432062 0
M  V30 36 H 4.127071 0.347524 0.901312 0
M  V30 37 H 4.744033 0.405534 3.444622 0
M  V30 38 H 4.597945 -1.136644 2.572998 0
M  V30 39 H 3.113054 -0.218335 5.898451 0
M  V30 40 H 3.239249 1.192759 4.815490 0
M  V30 41 H 0.876212 -0.429468 5.761852 0
M  V30 42 H 0.899687 1.301057 5.237442 0
M  V30 43 H -0.206821 -0.568942 3.637379 0
M  V30 44 H 0.920356 0.681441 2.943036 0
M  V30 45 H 1.559673 -2.157080 3.826688 0
M  V30 46 H 2.945932 -1.912976 1.650397 0
M  V30 47 H 1.121767 -1.888618 1.469928 0
M  V30 48 H -0.755525 -1.200373 0.358925 0
M  V30 49 H -1.975355 0.061920 0.360746 0
M  V30 50 H -1.056540 -3.320136 -2.695443 0
M  V30 51 H -5.574822 -4.220167 -2.148429 0
M  V30 52 H -6.100056 -6.640047 -2.004345 0
M  V30 53 H -1.960214 -7.448155 -2.449642 0
M  V30 54 H -1.026318 1.664789 -4.054045 0
M  V30 55 H 0.229286 3.478583 -0.491814 0
M  V30 56 H 1.039480 2.499362 -1.834979 0
M  V30 57 H -0.592540 3.323257 -2.041525 0
M  V30 58 H -1.905972 1.998397 0.897845 0
M  V30 59 H -2.814922 1.564863 -0.671509 0
M  V30 60 H -2.057968 3.211510 -0.455197 0
M  V30 END ATOM
M  V30 BEGIN BOND
M  V30 1 1 1 2
M  V30 2 1 2 3
M  V30 3 1 3 4
M  V30 4 1 4 5
M  V30 5 1 5 6
M  V30 6 1 6 7
M  V30 7 1 7 8
M  V30 8 1 8 9
M  V30 9 1 9 10
M  V30 10 1 10 11
M  V30 11 2 11 12
M  V30 12 1 11 13
M  V30 13 1 13 14
M  V30 14 1 14 15
M  V30 15 1 15 16
M  V30 16 1 16 17
M  V30 17 1 17 18
M  V30 18 2 18 19
M  V30 19 1 18 20
M  V30 20 2 20 21
M  V30 21 1 21 22
M  V30 22 2 22 23
M  V30 23 1 23 24
M  V30 24 1 23 25
M  V30 25 2 25 26
M  V30 26 2 16 27
M  V30 27 1 27 28
M  V30 28 1 28 29
M  V30 29 1 29 30
M  V30 30 1 30 31
M  V30 31 1 30 32
M  V30 32 1 10 2
M  V30 33 1 30 13
M  V30 34 1 8 4
M  V30 35 2 29 15
M  V30 36 1 26 20
M  V30 37 1 1 33
M  V30 38 1 1 34
M  V30 39 1 1 35
M  V30 40 1 2 36 CFG=3
M  V30 41 1 3 37
M  V30 42 1 3 38
M  V30 43 1 5 39
M  V30 44 1 5 40
M  V30 45 1 6 41
M  V30 46 1 6 42
M  V30 47 1 7 43
M  V30 48 1 7 44
M  V30 49 1 8 45 CFG=1
M  V30 50 1 9 46
M  V30 51 1 9 47
M  V30 52 1 14 48
M  V30 53 1 14 49
M  V30 54 1 17 50
M  V30 55 1 21 51
M  V30 56 1 22 52
M  V30 57 1 25 53
M  V30 58 1 28 54
M  V30 59 1 31 55
M  V30 60 1 31 56
M  V30 61 1 31 57
M  V30 62 1 32 58
M  V30 63 1 32 59
M  V30 64 1 32 60
M  V30 END BOND
M  V30 END CTAB
M  END
>  <Dataset>  (767) 
ChEMBL_Kinases

>  <Ligand_Instance>  (767) 
nan

>  <PDB_ID>  (767) 
nan

>  <Standardized_SMILES>  (767) 
C[C@H]1CN2CCC[C@H]2CN1C(=O)N1Cc2c(NC(=O)c3ccc(F)cn3)n[nH]c2C1(C)C

>  <Name>  (767) 
nan

>  <Pocket>  (767) 
nan

>  <ATP_Site>  (767) 
nan

>  <Peripheral>  (767) 
nan

>  <Num_H_Atoms_ProtBoundConf>  (767) 
nan

>  <Num_Resolved_Atoms>  (767) 
nan

>  <Num_Not_Resolved_Atoms>  (767) 
nan

$$$$
CHEMBL3662801
     RDKit          3D

  0  0  0  0  0  0  0  0  0  0999 V3000
M  V30 BEGIN CTAB
M  V30 COUNTS 60 64 0 0 0
M  V30 BEGIN ATOM
M  V30 1 C 3.002702 1.793204 0.642839 0
M  V30 2 C 2.169423 0.557601 0.898134 0 CFG=1
M  V30 3 C 2.978799 -0.651090 1.188264 0
M  V30 4 N 3.552185 -0.722223 2.477312 0
M  V30 5 C 4.965236 -0.889627 2.556896 0
M  V30 6 C 5.423459 -0.058329 3.760253 0
M  V30 7 C 4.302567 0.868916 4.084039 0
M  V30 8 C 3.094022 0.174815 3.469526 0 CFG=1
M  V30 9 C 2.034134 1.151983 3.058464 0
M  V30 10 N 1.214882 0.742847 1.972268 0
M  V30 11 C -0.190572 0.613399 2.131247 0
M  V30 12 O -0.362285 0.941519 3.354579 0
M  V30 13 N -1.217496 0.228006 1.229574 0
M  V30 14 C -1.457385 -0.199803 -0.158857 0
M  V30 15 C -2.291910 -1.409326 0.054105 0
M  V30 16 C -2.697989 -2.665128 -0.350367 0
M  V30 17 N -2.192135 -3.315524 -1.532691 0
M  V30 18 C -3.028014 -2.962603 -2.632546 0
M  V30 19 O -3.975962 -2.195126 -2.325821 0
M  V30 20 C -2.793888 -3.457417 -3.999911 0
M  V30 21 C -3.688048 -3.029580 -4.959750 0
M  V30 22 C -3.460279 -3.500698 -6.245933 0
M  V30 23 C -2.404935 -4.349023 -6.564469 0
M  V30 24 Br -2.131675 -4.970627 -8.346040 0
M  V30 25 C -1.553703 -4.732451 -5.549805 0
M  V30 26 N -1.766981 -4.276684 -4.283616 0
M  V30 27 N -3.603109 -3.107036 0.542372 0
M  V30 28 N -3.799820 -2.212552 1.490387 0
M  V30 29 C -3.004977 -1.163542 1.209543 0
M  V30 30 C -2.593685 0.191294 1.683149 0
M  V30 31 C -3.447044 1.208850 0.948328 0
M  V30 32 C -2.765255 0.285661 3.168713 0
M  V30 33 H 3.886984 1.854896 1.292062 0
M  V30 34 H 2.355117 2.670646 0.857625 0
M  V30 35 H 3.337196 1.863262 -0.407515 0
M  V30 36 H 1.592101 0.390588 -0.031899 0
M  V30 37 H 3.789067 -0.709390 0.407543 0
M  V30 38 H 2.335575 -1.550649 0.999346 0
M  V30 39 H 5.510856 -0.640288 1.638794 0
M  V30 40 H 5.138288 -1.983461 2.779347 0
M  V30 41 H 5.548511 -0.761894 4.629011 0
M  V30 42 H 6.365065 0.443067 3.498064 0
M  V30 43 H 4.181035 0.988461 5.179955 0
M  V30 44 H 4.434850 1.891109 3.686862 0
M  V30 45 H 2.680235 -0.442210 4.296202 0
M  V30 46 H 1.394524 1.351711 3.944617 0
M  V30 47 H 2.583901 2.118745 2.842106 0
M  V30 48 H -2.117280 0.559564 -0.672363 0
M  V30 49 H -0.545675 -0.396979 -0.716797 0
M  V30 50 H -1.381861 -3.945506 -1.684233 0
M  V30 51 H -4.513049 -2.369285 -4.722685 0
M  V30 52 H -4.154036 -3.172903 -7.008065 0
M  V30 53 H -0.707002 -5.392528 -5.718750 0
M  V30 54 H -4.445495 -2.287385 2.310200 0
M  V30 55 H -4.183953 1.657143 1.655833 0
M  V30 56 H -3.988527 0.802050 0.090147 0
M  V30 57 H -2.774676 2.011890 0.593155 0
M  V30 58 H -2.657974 1.304658 3.539379 0
M  V30 59 H -3.841180 0.001893 3.365845 0
M  V30 60 H -2.176189 -0.491878 3.650900 0
M  V30 END ATOM
M  V30 BEGIN BOND
M  V30 1 1 1 2
M  V30 2 1 2 3
M  V30 3 1 3 4
M  V30 4 1 4 5
M  V30 5 1 5 6
M  V30 6 1 6 7
M  V30 7 1 7 8
M  V30 8 1 8 9
M  V30 9 1 9 10
M  V30 10 1 10 11
M  V30 11 2 11 12
M  V30 12 1 11 13
M  V30 13 1 13 14
M  V30 14 1 14 15
M  V30 15 1 15 16
M  V30 16 1 16 17
M  V30 17 1 17 18
M  V30 18 2 18 19
M  V30 19 1 18 20
M  V30 20 2 20 21
M  V30 21 1 21 22
M  V30 22 2 22 23
M  V30 23 1 23 24
M  V30 24 1 23 25
M  V30 25 2 25 26
M  V30 26 2 16 27
M  V30 27 1 27 28
M  V30 28 1 28 29
M  V30 29 1 29 30
M  V30 30 1 30 31
M  V30 31 1 30 32
M  V30 32 1 10 2
M  V30 33 1 30 13
M  V30 34 1 8 4
M  V30 35 2 29 15
M  V30 36 1 26 20
M  V30 37 1 1 33
M  V30 38 1 1 34
M  V30 39 1 1 35
M  V30 40 1 2 36 CFG=3
M  V30 41 1 3 37
M  V30 42 1 3 38
M  V30 43 1 5 39
M  V30 44 1 5 40
M  V30 45 1 6 41
M  V30 46 1 6 42
M  V30 47 1 7 43
M  V30 48 1 7 44
M  V30 49 1 8 45 CFG=1
M  V30 50 1 9 46
M  V30 51 1 9 47
M  V30 52 1 14 48
M  V30 53 1 14 49
M  V30 54 1 17 50
M  V30 55 1 21 51
M  V30 56 1 22 52
M  V30 57 1 25 53
M  V30 58 1 28 54
M  V30 59 1 31 55
M  V30 60 1 31 56
M  V30 61 1 31 57
M  V30 62 1 32 58
M  V30 63 1 32 59
M  V30 64 1 32 60
M  V30 END BOND
M  V30 END CTAB
M  END
>  <Dataset>  (768) 
ChEMBL_Kinases

>  <Ligand_Instance>  (768) 
nan

>  <PDB_ID>  (768) 
nan

>  <Standardized_SMILES>  (768) 
C[C@H]1CN2CCC[C@H]2CN1C(=O)N1Cc2c(NC(=O)c3ccc(Br)cn3)n[nH]c2C1(C)C

>  <Name>  (768) 
nan

>  <Pocket>  (768) 
nan

>  <ATP_Site>  (768) 
nan

>  <Peripheral>  (768) 
nan

>  <Num_H_Atoms_ProtBoundConf>  (768) 
nan

>  <Num_Resolved_Atoms>  (768) 
nan

>  <Num_Not_Resolved_Atoms>  (768) 
nan

$$$$
CHEMBL3662783
     RDKit          3D

  0  0  0  0  0  0  0  0  0  0999 V3000
M  V30 BEGIN CTAB
M  V30 COUNTS 64 68 0 0 0
M  V30 BEGIN ATOM
M  V30 1 C 4.362130 2.721353 3.220198 0
M  V30 2 C 2.885523 2.347703 2.980308 0
M  V30 3 C 2.876533 1.581046 1.689750 0 CFG=1
M  V30 4 C 3.772545 0.367032 1.884204 0
M  V30 5 N 3.937951 -0.339052 0.624649 0
M  V30 6 C 3.305990 -1.617306 0.729759 0
M  V30 7 C 2.916674 -2.020715 -0.678724 0
M  V30 8 C 3.201973 -0.790939 -1.500642 0
M  V30 9 C 3.199906 0.319853 -0.439324 0 CFG=1
M  V30 10 C 1.754534 0.462324 -0.023667 0
M  V30 11 N 1.570985 1.189864 1.217140 0
M  V30 12 C 0.306799 1.414901 1.768349 0
M  V30 13 O 0.419242 2.048357 2.844341 0
M  V30 14 N -0.973141 1.036113 1.281441 0
M  V30 15 C -1.563140 0.329641 0.132604 0
M  V30 16 C -2.418307 -0.650460 0.853278 0
M  V30 17 C -2.982135 -1.912663 0.882286 0
M  V30 18 N -2.817534 -2.914397 -0.113865 0
M  V30 19 C -3.702552 -3.016320 -1.216130 0
M  V30 20 O -4.682794 -2.226671 -1.374882 0
M  V30 21 C -3.524514 -4.046529 -2.230876 0
M  V30 22 C -4.412752 -4.108360 -3.289660 0
M  V30 23 C -4.273800 -5.071180 -4.268485 0
M  V30 24 C -3.260305 -6.004336 -4.241583 0
M  V30 25 C -2.362157 -5.955117 -3.186639 0
M  V30 26 Cl -1.040521 -7.115965 -3.085623 0
M  V30 27 C -2.536578 -4.979535 -2.232171 0
M  V30 28 N -3.711208 -2.040547 2.004083 0
M  V30 29 N -3.637162 -0.914763 2.692359 0
M  V30 30 C -2.848260 -0.040202 2.009296 0
M  V30 31 C -2.222554 1.331643 1.959833 0
M  V30 32 C -3.100997 2.187193 1.099056 0
M  V30 33 C -2.061208 1.892958 3.342896 0
M  V30 34 H 4.896241 2.784852 2.255014 0
M  V30 35 H 4.879743 1.955469 3.831911 0
M  V30 36 H 4.419079 3.725181 3.687319 0
M  V30 37 H 2.589484 1.726790 3.837599 0
M  V30 38 H 2.321300 3.304071 2.922179 0
M  V30 39 H 3.371602 2.225178 0.930856 0
M  V30 40 H 3.399156 -0.274485 2.702358 0
M  V30 41 H 4.763230 0.749845 2.191136 0
M  V30 42 H 4.064024 -2.346675 1.114269 0
M  V30 43 H 2.469644 -1.657180 1.450124 0
M  V30 44 H 1.891734 -2.395793 -0.744123 0
M  V30 45 H 3.585089 -2.842826 -1.032791 0
M  V30 46 H 2.380041 -0.603524 -2.233340 0
M  V30 47 H 4.187413 -0.881630 -1.985464 0
M  V30 48 H 3.662740 1.230963 -0.819888 0
M  V30 49 H 1.391911 -0.602907 0.081959 0
M  V30 50 H 1.240920 0.964823 -0.873811 0
M  V30 51 H -0.839366 -0.132214 -0.526567 0
M  V30 52 H -2.264607 0.984563 -0.433381 0
M  V30 53 H -2.017987 -3.551168 0.024226 0
M  V30 54 H -5.255314 -3.422045 -3.417307 0
M  V30 55 H -4.928774 -5.184317 -5.128704 0
M  V30 56 H -3.117964 -6.763547 -4.977030 0
M  V30 57 H -1.813196 -4.974368 -1.423070 0
M  V30 58 H -4.078845 -0.659495 3.611779 0
M  V30 59 H -3.652794 2.866364 1.812666 0
M  V30 60 H -2.583847 2.814644 0.369785 0
M  V30 61 H -3.902111 1.623809 0.568222 0
M  V30 62 H -1.680663 2.927955 3.250867 0
M  V30 63 H -1.433544 1.330735 4.020930 0
M  V30 64 H -3.113039 2.026626 3.732435 0
M  V30 END ATOM
M  V30 BEGIN BOND
M  V30 1 1 1 2
M  V30 2 1 2 3
M  V30 3 1 3 4
M  V30 4 1 4 5
M  V30 5 1 5 6
M  V30 6 1 6 7
M  V30 7 1 7 8
M  V30 8 1 8 9
M  V30 9 1 9 10
M  V30 10 1 10 11
M  V30 11 1 11 12
M  V30 12 2 12 13
M  V30 13 1 12 14
M  V30 14 1 14 15
M  V30 15 1 15 16
M  V30 16 1 16 17
M  V30 17 1 17 18
M  V30 18 1 18 19
M  V30 19 2 19 20
M  V30 20 1 19 21
M  V30 21 2 21 22
M  V30 22 1 22 23
M  V30 23 2 23 24
M  V30 24 1 24 25
M  V30 25 1 25 26
M  V30 26 2 25 27
M  V30 27 2 17 28
M  V30 28 1 28 29
M  V30 29 1 29 30
M  V30 30 1 30 31
M  V30 31 1 31 32
M  V30 32 1 31 33
M  V30 33 1 11 3
M  V30 34 1 31 14
M  V30 35 1 9 5
M  V30 36 2 30 16
M  V30 37 1 27 21
M  V30 38 1 1 34
M  V30 39 1 1 35
M  V30 40 1 1 36
M  V30 41 1 2 37
M  V30 42 1 2 38
M  V30 43 1 3 39 CFG=3
M  V30 44 1 4 40
M  V30 45 1 4 41
M  V30 46 1 6 42
M  V30 47 1 6 43
M  V30 48 1 7 44
M  V30 49 1 7 45
M  V30 50 1 8 46
M  V30 51 1 8 47
M  V30 52 1 9 48 CFG=3
M  V30 53 1 10 49
M  V30 54 1 10 50
M  V30 55 1 15 51
M  V30 56 1 15 52
M  V30 57 1 18 53
M  V30 58 1 22 54
M  V30 59 1 23 55
M  V30 60 1 24 56
M  V30 61 1 27 57
M  V30 62 1 29 58
M  V30 63 1 32 59
M  V30 64 1 32 60
M  V30 65 1 32 61
M  V30 66 1 33 62
M  V30 67 1 33 63
M  V30 68 1 33 64
M  V30 END BOND
M  V30 END CTAB
M  END
>  <Dataset>  (769) 
ChEMBL_Kinases

>  <Ligand_Instance>  (769) 
nan

>  <PDB_ID>  (769) 
nan

>  <Standardized_SMILES>  (769) 
CC[C@H]1CN2CCC[C@H]2CN1C(=O)N1Cc2c(NC(=O)c3cccc(Cl)c3)n[nH]c2C1(C)C

>  <Name>  (769) 
nan

>  <Pocket>  (769) 
nan

>  <ATP_Site>  (769) 
nan

>  <Peripheral>  (769) 
nan

>  <Num_H_Atoms_ProtBoundConf>  (769) 
nan

>  <Num_Resolved_Atoms>  (769) 
nan

>  <Num_Not_Resolved_Atoms>  (769) 
nan

$$$$
CHEMBL3662784
     RDKit          3D

  0  0  0  0  0  0  0  0  0  0999 V3000
M  V30 BEGIN CTAB
M  V30 COUNTS 64 68 0 0 0
M  V30 BEGIN ATOM
M  V30 1 C 3.399399 -2.615289 0.470188 0
M  V30 2 C 2.374048 -1.514543 0.607700 0
M  V30 3 C 3.092802 -0.221159 0.918329 0 CFG=1
M  V30 4 C 4.043932 0.093657 -0.208628 0
M  V30 5 N 4.127821 1.497186 -0.496923 0
M  V30 6 C 3.202851 1.986479 -1.467142 0
M  V30 7 C 2.919745 3.422022 -1.076244 0
M  V30 8 C 3.885111 3.705433 0.060749 0
M  V30 9 C 4.086080 2.333356 0.656560 0 CFG=1
M  V30 10 C 2.949911 2.035125 1.611709 0
M  V30 11 N 2.201859 0.901472 1.125405 0
M  V30 12 C 0.862822 0.611837 0.806992 0
M  V30 13 O 1.132285 1.752251 1.214297 0
M  V30 14 N -0.524782 0.585887 0.563851 0
M  V30 15 C -1.139674 -0.634257 0.067377 0
M  V30 16 C -2.308582 -0.730087 1.007724 0
M  V30 17 C -3.206541 -1.537696 1.668335 0
M  V30 18 N -3.245596 -2.954170 1.584124 0
M  V30 19 C -4.023384 -3.597741 0.594595 0
M  V30 20 O -4.595648 -2.686794 -0.099059 0
M  V30 21 C -4.183632 -5.024568 0.357963 0
M  V30 22 C -5.019763 -5.329462 -0.719678 0
M  V30 23 C -5.275175 -6.622466 -1.075256 0
M  V30 24 C -4.726089 -7.697403 -0.395858 0
M  V30 25 C -3.902784 -7.386013 0.664880 0
M  V30 26 C -3.652449 -6.096513 1.014139 0
M  V30 27 F -2.857166 -5.792630 2.039831 0
M  V30 28 N -4.025936 -0.757454 2.396677 0
M  V30 29 N -3.687998 0.506456 2.227683 0
M  V30 30 C -2.630355 0.575449 1.376508 0
M  V30 31 C -1.650517 1.453793 0.654995 0
M  V30 32 C -2.199467 1.722057 -0.718361 0
M  V30 33 C -1.432056 2.746386 1.370382 0
M  V30 34 H 3.175158 -3.458096 1.178241 0
M  V30 35 H 4.426087 -2.227653 0.689762 0
M  V30 36 H 3.398560 -3.013542 -0.561107 0
M  V30 37 H 1.857306 -1.390607 -0.349961 0
M  V30 38 H 1.693364 -1.792760 1.435156 0
M  V30 39 H 3.713397 -0.375886 1.836254 0
M  V30 40 H 3.763413 -0.510310 -1.099856 0
M  V30 41 H 5.085377 -0.232751 0.056371 0
M  V30 42 H 3.700754 2.017556 -2.477787 0
M  V30 43 H 2.285137 1.401384 -1.583197 0
M  V30 44 H 3.151006 4.140146 -1.894840 0
M  V30 45 H 1.864497 3.597948 -0.791101 0
M  V30 46 H 4.813832 4.177973 -0.289826 0
M  V30 47 H 3.380656 4.305736 0.861799 0
M  V30 48 H 5.068680 2.342086 1.158957 0
M  V30 49 H 2.379934 2.922077 1.862918 0
M  V30 50 H 3.447244 1.680517 2.564795 0
M  V30 51 H -1.542361 -0.405220 -0.943415 0
M  V30 52 H -0.510196 -1.518975 0.107089 0
M  V30 53 H -2.705203 -3.565067 2.244299 0
M  V30 54 H -5.500144 -4.565647 -1.319087 0
M  V30 55 H -5.915710 -6.852684 -1.901402 0
M  V30 56 H -4.892951 -8.740829 -0.632137 0
M  V30 57 H -3.444450 -8.183325 1.233006 0
M  V30 58 H -4.114940 1.363296 2.644293 0
M  V30 59 H -2.661327 2.729789 -0.805914 0
M  V30 60 H -1.393435 1.594495 -1.472086 0
M  V30 61 H -3.011526 1.008966 -0.993741 0
M  V30 62 H -2.429007 3.233883 1.449562 0
M  V30 63 H -0.808898 3.380000 0.727982 0
M  V30 64 H -1.054861 2.621521 2.394844 0
M  V30 END ATOM
M  V30 BEGIN BOND
M  V30 1 1 1 2
M  V30 2 1 2 3
M  V30 3 1 3 4
M  V30 4 1 4 5
M  V30 5 1 5 6
M  V30 6 1 6 7
M  V30 7 1 7 8
M  V30 8 1 8 9
M  V30 9 1 9 10
M  V30 10 1 10 11
M  V30 11 1 11 12
M  V30 12 2 12 13
M  V30 13 1 12 14
M  V30 14 1 14 15
M  V30 15 1 15 16
M  V30 16 1 16 17
M  V30 17 1 17 18
M  V30 18 1 18 19
M  V30 19 2 19 20
M  V30 20 1 19 21
M  V30 21 2 21 22
M  V30 22 1 22 23
M  V30 23 2 23 24
M  V30 24 1 24 25
M  V30 25 2 25 26
M  V30 26 1 26 27
M  V30 27 2 17 28
M  V30 28 1 28 29
M  V30 29 1 29 30
M  V30 30 1 30 31
M  V30 31 1 31 32
M  V30 32 1 31 33
M  V30 33 1 11 3
M  V30 34 1 31 14
M  V30 35 1 9 5
M  V30 36 2 30 16
M  V30 37 1 26 21
M  V30 38 1 1 34
M  V30 39 1 1 35
M  V30 40 1 1 36
M  V30 41 1 2 37
M  V30 42 1 2 38
M  V30 43 1 3 39 CFG=1
M  V30 44 1 4 40
M  V30 45 1 4 41
M  V30 46 1 6 42
M  V30 47 1 6 43
M  V30 48 1 7 44
M  V30 49 1 7 45
M  V30 50 1 8 46
M  V30 51 1 8 47
M  V30 52 1 9 48 CFG=1
M  V30 53 1 10 49
M  V30 54 1 10 50
M  V30 55 1 15 51
M  V30 56 1 15 52
M  V30 57 1 18 53
M  V30 58 1 22 54
M  V30 59 1 23 55
M  V30 60 1 24 56
M  V30 61 1 25 57
M  V30 62 1 29 58
M  V30 63 1 32 59
M  V30 64 1 32 60
M  V30 65 1 32 61
M  V30 66 1 33 62
M  V30 67 1 33 63
M  V30 68 1 33 64
M  V30 END BOND
M  V30 END CTAB
M  END
>  <Dataset>  (770) 
ChEMBL_Kinases

>  <Ligand_Instance>  (770) 
nan

>  <PDB_ID>  (770) 
nan

>  <Standardized_SMILES>  (770) 
CC[C@H]1CN2CCC[C@H]2CN1C(=O)N1Cc2c(NC(=O)c3ccccc3F)n[nH]c2C1(C)C

>  <Name>  (770) 
nan

>  <Pocket>  (770) 
nan

>  <ATP_Site>  (770) 
nan

>  <Peripheral>  (770) 
nan

>  <Num_H_Atoms_ProtBoundConf>  (770) 
nan

>  <Num_Resolved_Atoms>  (770) 
nan

>  <Num_Not_Resolved_Atoms>  (770) 
nan

$$$$
CHEMBL3662785
     RDKit          3D

  0  0  0  0  0  0  0  0  0  0999 V3000
M  V30 BEGIN CTAB
M  V30 COUNTS 64 68 0 0 0
M  V30 BEGIN ATOM
M  V30 1 C 1.959545 -1.627681 3.605925 0
M  V30 2 C 1.270396 -0.701207 2.636290 0
M  V30 3 C 2.293170 0.263516 2.095922 0 CFG=1
M  V30 4 C 3.352029 -0.567194 1.407835 0
M  V30 5 N 3.955391 0.265712 0.373468 0
M  V30 6 C 5.319570 -0.091228 0.079762 0
M  V30 7 C 5.955168 1.199110 -0.455837 0
M  V30 8 C 5.149706 2.300930 0.186690 0
M  V30 9 C 4.076619 1.580771 0.975725 0 CFG=1
M  V30 10 C 2.715125 2.238185 0.766205 0
M  V30 11 N 1.701957 1.271427 1.216771 0
M  V30 12 C 0.429371 1.587313 0.685102 0
M  V30 13 O 0.901627 2.600920 0.114086 0
M  V30 14 N -0.933210 1.196721 0.610757 0
M  V30 15 C -1.853874 0.172624 1.076195 0
M  V30 16 C -2.555737 -0.198000 -0.185571 0
M  V30 17 C -3.187470 -1.204031 -0.880090 0
M  V30 18 N -3.393489 -2.544389 -0.440767 0
M  V30 19 C -4.060054 -3.521084 -1.231105 0
M  V30 20 O -4.468556 -3.144152 -2.359727 0
M  V30 21 C -4.292514 -4.903231 -0.818103 0
M  V30 22 C -4.957829 -5.700595 -1.727993 0
M  V30 23 C -5.230655 -7.039361 -1.429269 0
M  V30 24 C -4.819030 -7.544217 -0.203686 0
M  V30 25 F -5.018744 -8.835962 0.219954 0
M  V30 26 C -4.158085 -6.700628 0.666149 0
M  V30 27 C -3.870633 -5.370291 0.404925 0
M  V30 28 N -3.573164 -0.672186 -2.054259 0
M  V30 29 N -3.194520 0.611503 -2.083684 0
M  V30 30 C -2.568452 0.940391 -0.957986 0
M  V30 31 C -1.873330 1.988352 -0.157155 0
M  V30 32 C -2.874494 2.606424 0.781999 0
M  V30 33 C -1.228877 3.007309 -1.060091 0
M  V30 34 H 1.896749 -1.219602 4.657995 0
M  V30 35 H 3.005904 -1.827506 3.376665 0
M  V30 36 H 1.433762 -2.622962 3.648132 0
M  V30 37 H 0.942533 -1.318964 1.772355 0
M  V30 38 H 0.400814 -0.198894 3.085354 0
M  V30 39 H 2.708357 0.820176 2.987777 0
M  V30 40 H 4.193647 -0.726905 2.147428 0
M  V30 41 H 2.989845 -1.539604 1.033655 0
M  V30 42 H 5.391171 -0.827427 -0.744370 0
M  V30 43 H 5.864060 -0.488174 0.947891 0
M  V30 44 H 5.812116 1.236968 -1.575286 0
M  V30 45 H 7.027750 1.224308 -0.218989 0
M  V30 46 H 5.778229 2.931678 0.870129 0
M  V30 47 H 4.650396 2.932585 -0.574191 0
M  V30 48 H 4.349908 1.491530 2.040268 0
M  V30 49 H 2.644923 2.319604 -0.362295 0
M  V30 50 H 2.621816 3.216631 1.230307 0
M  V30 51 H -1.374247 -0.689614 1.552064 0
M  V30 52 H -2.553090 0.668832 1.788419 0
M  V30 53 H -3.043027 -2.828466 0.499746 0
M  V30 54 H -5.318226 -5.408179 -2.702463 0
M  V30 55 H -5.744723 -7.730811 -2.083812 0
M  V30 56 H -3.811906 -7.053015 1.648333 0
M  V30 57 H -3.359355 -4.750370 1.101502 0
M  V30 58 H -3.365315 1.270798 -2.881214 0
M  V30 59 H -3.220431 3.604522 0.436440 0
M  V30 60 H -2.435067 2.695549 1.774892 0
M  V30 61 H -3.788590 1.982574 0.856362 0
M  V30 62 H -2.060408 3.352808 -1.747587 0
M  V30 63 H -0.501510 2.519197 -1.732648 0
M  V30 64 H -0.892571 3.911582 -0.557581 0
M  V30 END ATOM
M  V30 BEGIN BOND
M  V30 1 1 1 2
M  V30 2 1 2 3
M  V30 3 1 3 4
M  V30 4 1 4 5
M  V30 5 1 5 6
M  V30 6 1 6 7
M  V30 7 1 7 8
M  V30 8 1 8 9
M  V30 9 1 9 10
M  V30 10 1 10 11
M  V30 11 1 11 12
M  V30 12 2 12 13
M  V30 13 1 12 14
M  V30 14 1 14 15
M  V30 15 1 15 16
M  V30 16 1 16 17
M  V30 17 1 17 18
M  V30 18 1 18 19
M  V30 19 2 19 20
M  V30 20 1 19 21
M  V30 21 2 21 22
M  V30 22 1 22 23
M  V30 23 2 23 24
M  V30 24 1 24 25
M  V30 25 1 24 26
M  V30 26 2 26 27
M  V30 27 2 17 28
M  V30 28 1 28 29
M  V30 29 1 29 30
M  V30 30 1 30 31
M  V30 31 1 31 32
M  V30 32 1 31 33
M  V30 33 1 11 3
M  V30 34 1 31 14
M  V30 35 1 9 5
M  V30 36 2 30 16
M  V30 37 1 27 21
M  V30 38 1 1 34
M  V30 39 1 1 35
M  V30 40 1 1 36
M  V30 41 1 2 37
M  V30 42 1 2 38
M  V30 43 1 3 39 CFG=1
M  V30 44 1 4 40
M  V30 45 1 4 41
M  V30 46 1 6 42
M  V30 47 1 6 43
M  V30 48 1 7 44
M  V30 49 1 7 45
M  V30 50 1 8 46
M  V30 51 1 8 47
M  V30 52 1 9 48 CFG=1
M  V30 53 1 10 49
M  V30 54 1 10 50
M  V30 55 1 15 51
M  V30 56 1 15 52
M  V30 57 1 18 53
M  V30 58 1 22 54
M  V30 59 1 23 55
M  V30 60 1 26 56
M  V30 61 1 27 57
M  V30 62 1 29 58
M  V30 63 1 32 59
M  V30 64 1 32 60
M  V30 65 1 32 61
M  V30 66 1 33 62
M  V30 67 1 33 63
M  V30 68 1 33 64
M  V30 END BOND
M  V30 END CTAB
M  END
>  <Dataset>  (771) 
ChEMBL_Kinases

>  <Ligand_Instance>  (771) 
nan

>  <PDB_ID>  (771) 
nan

>  <Standardized_SMILES>  (771) 
CC[C@H]1CN2CCC[C@H]2CN1C(=O)N1Cc2c(NC(=O)c3ccc(F)cc3)n[nH]c2C1(C)C

>  <Name>  (771) 
nan

>  <Pocket>  (771) 
nan

>  <ATP_Site>  (771) 
nan

>  <Peripheral>  (771) 
nan

>  <Num_H_Atoms_ProtBoundConf>  (771) 
nan

>  <Num_Resolved_Atoms>  (771) 
nan

>  <Num_Not_Resolved_Atoms>  (771) 
nan

$$$$
CHEMBL3662786
     RDKit          3D

  0  0  0  0  0  0  0  0  0  0999 V3000
M  V30 BEGIN CTAB
M  V30 COUNTS 57 61 0 0 0
M  V30 BEGIN ATOM
M  V30 1 C 1.659560 3.306612 1.303596 0
M  V30 2 C 2.002730 1.867177 1.636616 0 CFG=1
M  V30 3 C 2.441322 1.720988 3.064916 0
M  V30 4 N 2.618592 0.392691 3.400692 0
M  V30 5 C 3.370922 -0.050923 4.462966 0
M  V30 6 C 2.936802 -1.488125 4.665800 0
M  V30 7 C 1.747536 -1.690490 3.721633 0
M  V30 8 C 1.888902 -0.597071 2.725116 0 CFG=1
M  V30 9 C 0.564644 0.113941 2.397701 0
M  V30 10 N 0.930535 0.966887 1.268836 0
M  V30 11 C 0.595632 1.240130 -0.118399 0
M  V30 12 O 1.187773 2.125065 -0.818041 0
M  V30 13 N -0.429025 0.577256 -0.907637 0
M  V30 14 C -1.425501 -0.488413 -0.708218 0
M  V30 15 C -1.159405 -1.387290 -1.860379 0
M  V30 16 C -1.123383 -2.657793 -2.407440 0
M  V30 17 N -1.482252 -3.839406 -1.664074 0
M  V30 18 C -2.872973 -4.120341 -1.799901 0
M  V30 19 O -3.466555 -3.270290 -2.538558 0
M  V30 20 C -3.370992 -5.328709 -1.071106 0
M  V30 21 N -4.482362 -5.592443 -1.152533 0
M  V30 22 C -5.217037 -6.544226 -0.660781 0
M  V30 23 Cl -6.728085 -7.391073 -0.428809 0
M  V30 24 C -4.441046 -7.455190 0.164437 0
M  V30 25 Cl -4.079407 -8.934135 1.288840 0
M  V30 26 S -2.686010 -6.716082 0.066674 0
M  V30 27 N -0.706600 -2.516684 -3.689661 0
M  V30 28 N -0.486527 -1.257833 -3.963936 0
M  V30 29 C -0.754972 -0.543060 -2.863906 0
M  V30 30 C -0.794704 0.818594 -2.269849 0
M  V30 31 C -2.201667 1.368937 -2.334800 0
M  V30 32 C 0.076854 1.779288 -3.023332 0
M  V30 33 H 0.595516 3.424010 1.025144 0
M  V30 34 H 1.886917 3.960610 2.193733 0
M  V30 35 H 2.267417 3.727873 0.483904 0
M  V30 36 H 2.927017 1.645347 1.020433 0
M  V30 37 H 1.635321 2.173501 3.706316 0
M  V30 38 H 3.319197 2.390754 3.256081 0
M  V30 39 H 3.137781 0.466074 5.437203 0
M  V30 40 H 4.467905 0.038175 4.313423 0
M  V30 41 H 3.739283 -2.197271 4.379847 0
M  V30 42 H 2.584312 -1.720287 5.670389 0
M  V30 43 H 0.786661 -1.698467 4.266835 0
M  V30 44 H 1.856473 -2.671622 3.214646 0
M  V30 45 H 2.318366 -0.939509 1.765622 0
M  V30 46 H -0.185192 -0.635605 2.197772 0
M  V30 47 H 0.282489 0.807819 3.227171 0
M  V30 48 H -2.456134 -0.053882 -0.736238 0
M  V30 49 H -1.331392 -1.002540 0.249248 0
M  V30 50 H -0.786091 -4.394176 -1.107884 0
M  V30 51 H -0.158345 -0.893067 -4.887410 0
M  V30 52 H -2.952247 0.576353 -2.574832 0
M  V30 53 H -2.484741 1.853411 -1.383985 0
M  V30 54 H -2.266522 2.146192 -3.155765 0
M  V30 55 H -0.090768 2.789189 -2.615737 0
M  V30 56 H -0.280862 1.715535 -4.092167 0
M  V30 57 H 1.136354 1.569848 -3.049124 0
M  V30 END ATOM
M  V30 BEGIN BOND
M  V30 1 1 1 2
M  V30 2 1 2 3
M  V30 3 1 3 4
M  V30 4 1 4 5
M  V30 5 1 5 6
M  V30 6 1 6 7
M  V30 7 1 7 8
M  V30 8 1 8 9
M  V30 9 1 9 10
M  V30 10 1 10 11
M  V30 11 2 11 12
M  V30 12 1 11 13
M  V30 13 1 13 14
M  V30 14 1 14 15
M  V30 15 1 15 16
M  V30 16 1 16 17
M  V30 17 1 17 18
M  V30 18 2 18 19
M  V30 19 1 18 20
M  V30 20 2 20 21
M  V30 21 1 21 22
M  V30 22 1 22 23
M  V30 23 2 22 24
M  V30 24 1 24 25
M  V30 25 1 24 26
M  V30 26 2 16 27
M  V30 27 1 27 28
M  V30 28 1 28 29
M  V30 29 1 29 30
M  V30 30 1 30 31
M  V30 31 1 30 32
M  V30 32 1 10 2
M  V30 33 1 30 13
M  V30 34 1 8 4
M  V30 35 2 29 15
M  V30 36 1 26 20
M  V30 37 1 1 33
M  V30 38 1 1 34
M  V30 39 1 1 35
M  V30 40 1 2 36 CFG=3
M  V30 41 1 3 37
M  V30 42 1 3 38
M  V30 43 1 5 39
M  V30 44 1 5 40
M  V30 45 1 6 41
M  V30 46 1 6 42
M  V30 47 1 7 43
M  V30 48 1 7 44
M  V30 49 1 8 45 CFG=3
M  V30 50 1 9 46
M  V30 51 1 9 47
M  V30 52 1 14 48
M  V30 53 1 14 49
M  V30 54 1 17 50
M  V30 55 1 28 51
M  V30 56 1 31 52
M  V30 57 1 31 53
M  V30 58 1 31 54
M  V30 59 1 32 55
M  V30 60 1 32 56
M  V30 61 1 32 57
M  V30 END BOND
M  V30 END CTAB
M  END
>  <Dataset>  (772) 
ChEMBL_Kinases

>  <Ligand_Instance>  (772) 
nan

>  <PDB_ID>  (772) 
nan

>  <Standardized_SMILES>  (772) 
C[C@H]1CN2CCC[C@H]2CN1C(=O)N1Cc2c(NC(=O)c3nc(Cl)c(Cl)s3)n[nH]c2C1(C)C

>  <Name>  (772) 
nan

>  <Pocket>  (772) 
nan

>  <ATP_Site>  (772) 
nan

>  <Peripheral>  (772) 
nan

>  <Num_H_Atoms_ProtBoundConf>  (772) 
nan

>  <Num_Resolved_Atoms>  (772) 
nan

>  <Num_Not_Resolved_Atoms>  (772) 
nan

$$$$
CHEMBL3662787
     RDKit          3D

  0  0  0  0  0  0  0  0  0  0999 V3000
M  V30 BEGIN CTAB
M  V30 COUNTS 65 69 0 0 0
M  V30 BEGIN ATOM
M  V30 1 C 7.420279 -0.707432 5.146109 0
M  V30 2 C 6.668688 -0.236733 3.956528 0
M  V30 3 C 5.795878 -1.047232 3.276675 0
M  V30 4 C 5.120268 -0.563256 2.173911 0
M  V30 5 C 4.215257 -1.447331 1.487308 0
M  V30 6 O 4.012541 -2.636758 1.856138 0
M  V30 7 N 3.461894 -1.081977 0.334817 0
M  V30 8 C 2.560205 -1.926977 -0.369019 0
M  V30 9 N 2.892844 -2.732422 -1.397543 0
M  V30 10 N 1.819127 -3.391424 -1.835853 0
M  V30 11 C 0.755435 -3.022917 -1.092221 0
M  V30 12 C 1.228841 -2.106662 -0.177238 0
M  V30 13 C 0.042904 -1.716321 0.626276 0
M  V30 14 N -1.022076 -1.845952 -0.352529 0
M  V30 15 C -2.021207 -0.944264 -0.706752 0
M  V30 16 O -1.510162 -0.194909 0.147962 0
M  V30 17 N -2.981058 0.040567 -0.980855 0
M  V30 18 C -3.009935 1.339733 -0.288499 0
M  V30 19 C -4.500320 1.695704 -0.231343 0 CFG=2
M  V30 20 C -4.796911 2.540897 0.989582 0
M  V30 21 C -6.277128 2.260950 1.189023 0
M  V30 22 C -6.529612 0.909478 0.531508 0
M  V30 23 N -5.221538 0.482498 0.031377 0
M  V30 24 C -5.385152 -0.221955 -1.251222 0
M  V30 25 C -4.047115 -0.080253 -1.950403 0 CFG=2
M  V30 26 C -3.779895 -1.185350 -2.916807 0
M  V30 27 C -0.721035 -3.169173 -0.819672 0
M  V30 28 C -1.397185 -3.582846 -2.079192 0
M  V30 29 C -0.936657 -4.146843 0.315887 0
M  V30 30 N 5.362407 0.707805 1.819688 0
M  V30 31 C 6.203683 1.512291 2.462728 0
M  V30 32 C 6.436016 2.913920 2.028800 0
M  V30 33 N 6.863809 1.047308 3.536031 0
M  V30 34 H 6.918884 -0.458937 6.093128 0
M  V30 35 H 8.399775 -0.186236 5.145233 0
M  V30 36 H 7.585840 -1.806178 5.010560 0
M  V30 37 H 5.659598 -2.059081 3.629419 0
M  V30 38 H 3.575005 -0.099058 -0.038792 0
M  V30 39 H 1.767903 -4.089407 -2.625304 0
M  V30 40 H 0.112994 -0.704615 1.027670 0
M  V30 41 H -0.116013 -2.401981 1.479092 0
M  V30 42 H -2.584401 1.282170 0.712844 0
M  V30 43 H -2.546345 2.056202 -0.968841 0
M  V30 44 H -4.842402 2.182271 -1.146900 0
M  V30 45 H -4.571231 3.592364 0.817812 0
M  V30 46 H -4.232564 2.081189 1.838607 0
M  V30 47 H -6.900312 3.055735 0.753698 0
M  V30 48 H -6.441014 2.239201 2.272981 0
M  V30 49 H -6.870416 0.215405 1.331729 0
M  V30 50 H -7.209878 0.987246 -0.326220 0
M  V30 51 H -5.641173 -1.278098 -1.041556 0
M  V30 52 H -6.217990 0.253260 -1.768513 0
M  V30 53 H -4.107239 0.880294 -2.534654 0
M  V30 54 H -4.167763 -2.148870 -2.578039 0
M  V30 55 H -2.689329 -1.195925 -3.102952 0
M  V30 56 H -4.253687 -0.911613 -3.906246 0
M  V30 57 H -1.070971 -2.931852 -2.894314 0
M  V30 58 H -0.983912 -4.595481 -2.331311 0
M  V30 59 H -2.472534 -3.695323 -1.931565 0
M  V30 60 H 0.037994 -4.319855 0.796326 0
M  V30 61 H -1.371010 -5.073158 -0.122352 0
M  V30 62 H -1.652990 -3.697747 1.016983 0
M  V30 63 H 7.523927 3.103376 1.924859 0
M  V30 64 H 5.918094 3.658568 2.632984 0
M  V30 65 H 6.039010 2.996164 0.977224 0
M  V30 END ATOM
M  V30 BEGIN BOND
M  V30 1 1 1 2
M  V30 2 2 2 3
M  V30 3 1 3 4
M  V30 4 1 4 5
M  V30 5 2 5 6
M  V30 6 1 5 7
M  V30 7 1 7 8
M  V30 8 2 8 9
M  V30 9 1 9 10
M  V30 10 1 10 11
M  V30 11 2 11 12
M  V30 12 1 12 13
M  V30 13 1 13 14
M  V30 14 1 14 15
M  V30 15 2 15 16
M  V30 16 1 15 17
M  V30 17 1 17 18
M  V30 18 1 18 19
M  V30 19 1 19 20
M  V30 20 1 20 21
M  V30 21 1 21 22
M  V30 22 1 22 23
M  V30 23 1 23 24
M  V30 24 1 24 25
M  V30 25 1 25 26
M  V30 26 1 14 27
M  V30 27 1 27 28
M  V30 28 1 27 29
M  V30 29 2 4 30
M  V30 30 1 30 31
M  V30 31 1 31 32
M  V30 32 2 31 33
M  V30 33 1 33 2
M  V30 34 1 12 8
M  V30 35 1 25 17
M  V30 36 1 27 11
M  V30 37 1 23 19
M  V30 38 1 1 34
M  V30 39 1 1 35
M  V30 40 1 1 36
M  V30 41 1 3 37
M  V30 42 1 7 38
M  V30 43 1 10 39
M  V30 44 1 13 40
M  V30 45 1 13 41
M  V30 46 1 18 42
M  V30 47 1 18 43
M  V30 48 1 19 44 CFG=3
M  V30 49 1 20 45
M  V30 50 1 20 46
M  V30 51 1 21 47
M  V30 52 1 21 48
M  V30 53 1 22 49
M  V30 54 1 22 50
M  V30 55 1 24 51
M  V30 56 1 24 52
M  V30 57 1 25 53 CFG=3
M  V30 58 1 26 54
M  V30 59 1 26 55
M  V30 60 1 26 56
M  V30 61 1 28 57
M  V30 62 1 28 58
M  V30 63 1 28 59
M  V30 64 1 29 60
M  V30 65 1 29 61
M  V30 66 1 29 62
M  V30 67 1 32 63
M  V30 68 1 32 64
M  V30 69 1 32 65
M  V30 END BOND
M  V30 END CTAB
M  END
>  <Dataset>  (773) 
ChEMBL_Kinases

>  <Ligand_Instance>  (773) 
nan

>  <PDB_ID>  (773) 
nan

>  <Standardized_SMILES>  (773) 
Cc1cc(C(=O)Nc2n[nH]c3c2CN(C(=O)N2C[C@@H]4CCCN4C[C@@H]2C)C3(C)C)nc(C)n1

>  <Name>  (773) 
nan

>  <Pocket>  (773) 
nan

>  <ATP_Site>  (773) 
nan

>  <Peripheral>  (773) 
nan

>  <Num_H_Atoms_ProtBoundConf>  (773) 
nan

>  <Num_Resolved_Atoms>  (773) 
nan

>  <Num_Not_Resolved_Atoms>  (773) 
nan

$$$$
CHEMBL3662788
     RDKit          3D

  0  0  0  0  0  0  0  0  0  0999 V3000
M  V30 BEGIN CTAB
M  V30 COUNTS 64 69 0 0 0
M  V30 BEGIN ATOM
M  V30 1 C 4.049143 2.066097 2.691257 0
M  V30 2 C 4.078643 1.209008 1.454825 0 CFG=1
M  V30 3 C 4.665616 -0.122163 1.875830 0
M  V30 4 N 3.728892 -1.200843 1.917940 0
M  V30 5 C 2.703986 -1.113594 2.900860 0
M  V30 6 C 1.781189 -2.260557 2.455964 0
M  V30 7 C 1.822404 -2.096322 0.930323 0
M  V30 8 C 3.088656 -1.376289 0.635182 0 CFG=1
M  V30 9 C 2.946003 -0.083984 -0.109260 0
M  V30 10 N 2.810149 1.075885 0.779284 0
M  V30 11 C 1.667942 1.907710 0.968740 0
M  V30 12 O 1.949151 2.845562 1.788668 0
M  V30 13 N 0.337412 1.932923 0.474147 0
M  V30 14 C -0.535234 1.147112 -0.431746 0
M  V30 15 C -1.749495 0.976019 0.391205 0
M  V30 16 C -2.810579 0.161252 0.700620 0
M  V30 17 N -3.275969 -1.084521 0.230179 0
M  V30 18 C -2.848296 -1.918588 -0.810313 0
M  V30 19 O -1.870802 -1.550440 -1.503212 0
M  V30 20 C -3.465561 -3.196129 -1.147157 0
M  V30 21 C -2.983151 -3.955223 -2.187250 0
M  V30 22 C -3.543823 -5.167664 -2.532102 0
M  V30 23 C -3.213588 -6.069878 -3.527860 0
M  V30 24 C -4.132502 -7.087168 -3.373698 0
M  V30 25 C -4.997346 -6.832613 -2.329649 0
M  V30 26 N -4.603393 -5.640463 -1.834985 0
M  V30 27 C -5.074337 -4.893296 -0.815077 0
M  V30 28 N -4.531921 -3.692332 -0.460687 0
M  V30 29 N -3.477626 0.826116 1.648772 0
M  V30 30 N -2.913623 1.960047 1.931408 0
M  V30 31 C -1.835480 2.086545 1.167003 0
M  V30 32 C -0.670715 2.914955 0.768874 0
M  V30 33 C -1.064112 3.684569 -0.480559 0
M  V30 34 C -0.326273 3.854931 1.900580 0
M  V30 35 H 4.115593 3.153185 2.448464 0
M  V30 36 H 4.990902 1.882364 3.309912 0
M  V30 37 H 3.227104 1.808600 3.358988 0
M  V30 38 H 4.807755 1.695254 0.733691 0
M  V30 39 H 5.202887 -0.053156 2.843775 0
M  V30 40 H 5.441031 -0.408676 1.136249 0
M  V30 41 H 2.073611 -0.225132 2.886160 0
M  V30 42 H 3.060164 -1.296268 3.917112 0
M  V30 43 H 2.291930 -3.188137 2.771758 0
M  V30 44 H 0.772686 -2.132425 2.847372 0
M  V30 45 H 1.871760 -3.146004 0.520303 0
M  V30 46 H 0.908619 -1.643220 0.550919 0
M  V30 47 H 3.783915 -2.048261 0.051924 0
M  V30 48 H 3.905814 0.077704 -0.692884 0
M  V30 49 H 2.175001 -0.098117 -0.893500 0
M  V30 50 H -0.680157 1.766643 -1.333605 0
M  V30 51 H -0.081491 0.181263 -0.646871 0
M  V30 52 H -4.107887 -1.540694 0.711601 0
M  V30 53 H -2.124122 -3.600236 -2.773427 0
M  V30 54 H -2.431743 -6.035154 -4.275264 0
M  V30 55 H -4.203791 -7.985956 -3.969863 0
M  V30 56 H -5.805558 -7.433764 -1.976296 0
M  V30 57 H -5.927981 -5.268749 -0.249399 0
M  V30 58 H -3.270144 2.634419 2.641980 0
M  V30 59 H -0.259459 3.748322 -1.217532 0
M  V30 60 H -1.375402 4.698958 -0.107601 0
M  V30 61 H -1.988104 3.256955 -0.913832 0
M  V30 62 H -1.238392 4.481715 2.058544 0
M  V30 63 H 0.441091 4.555230 1.541246 0
M  V30 64 H -0.070523 3.271290 2.785685 0
M  V30 END ATOM
M  V30 BEGIN BOND
M  V30 1 1 1 2
M  V30 2 1 2 3
M  V30 3 1 3 4
M  V30 4 1 4 5
M  V30 5 1 5 6
M  V30 6 1 6 7
M  V30 7 1 7 8
M  V30 8 1 8 9
M  V30 9 1 9 10
M  V30 10 1 10 11
M  V30 11 2 11 12
M  V30 12 1 11 13
M  V30 13 1 13 14
M  V30 14 1 14 15
M  V30 15 1 15 16
M  V30 16 1 16 17
M  V30 17 1 17 18
M  V30 18 2 18 19
M  V30 19 1 18 20
M  V30 20 2 20 21
M  V30 21 1 21 22
M  V30 22 2 22 23
M  V30 23 1 23 24
M  V30 24 2 24 25
M  V30 25 1 25 26
M  V30 26 1 26 27
M  V30 27 2 27 28
M  V30 28 2 16 29
M  V30 29 1 29 30
M  V30 30 1 30 31
M  V30 31 1 31 32
M  V30 32 1 32 33
M  V30 33 1 32 34
M  V30 34 1 10 2
M  V30 35 1 32 13
M  V30 36 1 8 4
M  V30 37 2 31 15
M  V30 38 1 28 20
M  V30 39 1 26 22
M  V30 40 1 1 35
M  V30 41 1 1 36
M  V30 42 1 1 37
M  V30 43 1 2 38 CFG=3
M  V30 44 1 3 39
M  V30 45 1 3 40
M  V30 46 1 5 41
M  V30 47 1 5 42
M  V30 48 1 6 43
M  V30 49 1 6 44
M  V30 50 1 7 45
M  V30 51 1 7 46
M  V30 52 1 8 47 CFG=3
M  V30 53 1 9 48
M  V30 54 1 9 49
M  V30 55 1 14 50
M  V30 56 1 14 51
M  V30 57 1 17 52
M  V30 58 1 21 53
M  V30 59 1 23 54
M  V30 60 1 24 55
M  V30 61 1 25 56
M  V30 62 1 27 57
M  V30 63 1 30 58
M  V30 64 1 33 59
M  V30 65 1 33 60
M  V30 66 1 33 61
M  V30 67 1 34 62
M  V30 68 1 34 63
M  V30 69 1 34 64
M  V30 END BOND
M  V30 END CTAB
M  END
>  <Dataset>  (774) 
ChEMBL_Kinases

>  <Ligand_Instance>  (774) 
nan

>  <PDB_ID>  (774) 
nan

>  <Standardized_SMILES>  (774) 
C[C@H]1CN2CCC[C@H]2CN1C(=O)N1Cc2c(NC(=O)c3cc4cccn4cn3)n[nH]c2C1(C)C

>  <Name>  (774) 
nan

>  <Pocket>  (774) 
nan

>  <ATP_Site>  (774) 
nan

>  <Peripheral>  (774) 
nan

>  <Num_H_Atoms_ProtBoundConf>  (774) 
nan

>  <Num_Resolved_Atoms>  (774) 
nan

>  <Num_Not_Resolved_Atoms>  (774) 
nan

$$$$
CHEMBL3662789
     RDKit          3D

  0  0  0  0  0  0  0  0  0  0999 V3000
M  V30 BEGIN CTAB
M  V30 COUNTS 60 64 0 0 0
M  V30 BEGIN ATOM
M  V30 1 C 3.665809 -1.908766 1.723840 0
M  V30 2 C 3.354527 -0.453969 1.666450 0 CFG=1
M  V30 3 C 4.333297 0.341567 0.852368 0
M  V30 4 N 4.081517 1.728857 0.896636 0
M  V30 5 C 5.136750 2.401404 1.598963 0
M  V30 6 C 4.514295 3.026157 2.828056 0
M  V30 7 C 3.039737 3.028237 2.584545 0
M  V30 8 C 2.830813 2.206687 1.313536 0 CFG=2
M  V30 9 C 1.706586 1.242120 1.476198 0
M  V30 10 N 2.058179 -0.120404 1.113031 0
M  V30 11 C 1.266067 -0.970665 0.351191 0
M  V30 12 O 0.386059 -0.080502 0.251552 0
M  V30 13 N 0.452999 -1.797790 -0.412187 0
M  V30 14 C -0.879703 -1.483320 -0.979252 0
M  V30 15 C -1.644172 -2.659337 -0.594521 0
M  V30 16 C -2.868621 -3.188401 -0.266720 0
M  V30 17 N -4.166428 -2.650551 -0.185846 0
M  V30 18 C -4.646900 -1.362082 -0.493498 0
M  V30 19 O -3.850475 -0.515527 -0.911781 0
M  V30 20 C -6.040292 -0.958965 -0.348425 0
M  V30 21 C -6.447003 0.315458 -0.667508 0
M  V30 22 C -7.758508 0.742288 -0.545894 0
M  V30 23 C -8.666722 -0.183507 -0.080339 0
M  V30 24 C -8.277064 -1.469237 0.245688 0
M  V30 25 N -6.971754 -1.847823 0.110419 0
M  V30 26 N -2.667106 -4.491299 -0.011653 0
M  V30 27 N -1.399408 -4.805181 -0.160350 0
M  V30 28 C -0.735696 -3.697279 -0.521010 0
M  V30 29 C 0.613622 -3.141919 -0.882842 0
M  V30 30 C 1.685507 -3.949950 -0.271525 0
M  V30 31 C 0.678668 -3.174271 -2.392164 0
M  V30 32 H 4.380890 -2.121558 2.562574 0
M  V30 33 H 4.152217 -2.237885 0.790909 0
M  V30 34 H 2.748114 -2.472425 1.973525 0
M  V30 35 H 3.446836 -0.083656 2.730229 0
M  V30 36 H 4.219424 0.007408 -0.205029 0
M  V30 37 H 5.387095 0.075912 1.114333 0
M  V30 38 H 5.667606 3.164898 0.969049 0
M  V30 39 H 5.939185 1.715251 1.949156 0
M  V30 40 H 4.797144 2.463012 3.760188 0
M  V30 41 H 4.943101 4.049657 2.930353 0
M  V30 42 H 2.722190 4.085855 2.467394 0
M  V30 43 H 2.452192 2.636379 3.434591 0
M  V30 44 H 2.500280 2.955128 0.533978 0
M  V30 45 H 0.767559 1.604671 1.034112 0
M  V30 46 H 1.475214 1.186999 2.581312 0
M  V30 47 H -1.218977 -0.510017 -0.662718 0
M  V30 48 H -0.735484 -1.455906 -2.084565 0
M  V30 49 H -4.973431 -3.253008 0.157341 0
M  V30 50 H -5.699983 0.985213 -1.022019 0
M  V30 51 H -8.039127 1.740907 -0.803097 0
M  V30 52 H -9.724662 0.074266 0.044408 0
M  V30 53 H -9.010495 -2.197949 0.615971 0
M  V30 54 H -1.020212 -5.771051 -0.011516 0
M  V30 55 H 2.671895 -3.549741 -0.550900 0
M  V30 56 H 1.637212 -4.961788 -0.773405 0
M  V30 57 H 1.527379 -4.156041 0.789060 0
M  V30 58 H 1.060496 -2.181442 -2.723148 0
M  V30 59 H 1.411582 -3.941168 -2.752910 0
M  V30 60 H -0.313145 -3.318914 -2.871265 0
M  V30 END ATOM
M  V30 BEGIN BOND
M  V30 1 1 1 2
M  V30 2 1 2 3
M  V30 3 1 3 4
M  V30 4 1 4 5
M  V30 5 1 5 6
M  V30 6 1 6 7
M  V30 7 1 7 8
M  V30 8 1 8 9
M  V30 9 1 9 10
M  V30 10 1 10 11
M  V30 11 2 11 12
M  V30 12 1 11 13
M  V30 13 1 13 14
M  V30 14 1 14 15
M  V30 15 1 15 16
M  V30 16 1 16 17
M  V30 17 1 17 18
M  V30 18 2 18 19
M  V30 19 1 18 20
M  V30 20 2 20 21
M  V30 21 1 21 22
M  V30 22 2 22 23
M  V30 23 1 23 24
M  V30 24 2 24 25
M  V30 25 2 16 26
M  V30 26 1 26 27
M  V30 27 1 27 28
M  V30 28 1 28 29
M  V30 29 1 29 30
M  V30 30 1 29 31
M  V30 31 1 10 2
M  V30 32 1 29 13
M  V30 33 1 8 4
M  V30 34 2 28 15
M  V30 35 1 25 20
M  V30 36 1 1 32
M  V30 37 1 1 33
M  V30 38 1 1 34
M  V30 39 1 2 35 CFG=1
M  V30 40 1 3 36
M  V30 41 1 3 37
M  V30 42 1 5 38
M  V30 43 1 5 39
M  V30 44 1 6 40
M  V30 45 1 6 41
M  V30 46 1 7 42
M  V30 47 1 7 43
M  V30 48 1 8 44 CFG=3
M  V30 49 1 9 45
M  V30 50 1 9 46
M  V30 51 1 14 47
M  V30 52 1 14 48
M  V30 53 1 17 49
M  V30 54 1 21 50
M  V30 55 1 22 51
M  V30 56 1 23 52
M  V30 57 1 24 53
M  V30 58 1 27 54
M  V30 59 1 30 55
M  V30 60 1 30 56
M  V30 61 1 30 57
M  V30 62 1 31 58
M  V30 63 1 31 59
M  V30 64 1 31 60
M  V30 END BOND
M  V30 END CTAB
M  END
>  <Dataset>  (775) 
ChEMBL_Kinases

>  <Ligand_Instance>  (775) 
nan

>  <PDB_ID>  (775) 
nan

>  <Standardized_SMILES>  (775) 
C[C@H]1CN2CCC[C@@H]2CN1C(=O)N1Cc2c(NC(=O)c3ccccn3)n[nH]c2C1(C)C

>  <Name>  (775) 
nan

>  <Pocket>  (775) 
nan

>  <ATP_Site>  (775) 
nan

>  <Peripheral>  (775) 
nan

>  <Num_H_Atoms_ProtBoundConf>  (775) 
nan

>  <Num_Resolved_Atoms>  (775) 
nan

>  <Num_Not_Resolved_Atoms>  (775) 
nan

$$$$
CHEMBL3662790
     RDKit          3D

  0  0  0  0  0  0  0  0  0  0999 V3000
M  V30 BEGIN CTAB
M  V30 COUNTS 61 65 0 0 0
M  V30 BEGIN ATOM
M  V30 1 C -0.695597 -0.234388 4.530975 0
M  V30 2 C 0.362981 -1.043418 3.770573 0
M  V30 3 C 0.885402 -2.163145 4.629970 0
M  V30 4 C 1.502671 -0.086313 3.532947 0
M  V30 5 N 2.184727 1.024582 3.895373 0
M  V30 6 N 3.194319 1.201697 3.053091 0
M  V30 7 C 3.197667 0.219954 2.127285 0
M  V30 8 N 4.069970 -0.028776 1.021742 0
M  V30 9 C 3.586740 0.624718 -0.150335 0
M  V30 10 O 2.527015 1.260998 0.037031 0
M  V30 11 C 4.279602 0.545621 -1.438938 0
M  V30 12 C 3.697448 1.228535 -2.491143 0
M  V30 13 C 4.279113 1.212931 -3.749760 0
M  V30 14 C 5.464577 0.489439 -3.918406 0
M  V30 15 C 6.027550 -0.186993 -2.845444 0
M  V30 16 N 5.425014 -0.141593 -1.642981 0
M  V30 17 C 2.114970 -0.615992 2.423634 0
M  V30 18 C 1.291732 -1.814629 2.121223 0
M  V30 19 N -0.078282 -1.437080 2.470636 0
M  V30 20 C -1.437174 -1.338478 2.063632 0
M  V30 21 O -2.358502 -0.902498 2.799709 0
M  V30 22 N -2.106738 -1.658404 0.853279 0
M  V30 23 C -3.532627 -1.407501 0.838190 0
M  V30 24 C -3.808153 -0.510916 -0.347856 0 CFG=2
M  V30 25 C -5.285144 -0.281840 -0.570901 0
M  V30 26 C -5.278957 0.078773 -2.055868 0
M  V30 27 C -3.918151 -0.376981 -2.565262 0
M  V30 28 N -3.508574 -1.324432 -1.536563 0
M  V30 29 C -2.122051 -1.646243 -1.623397 0
M  V30 30 C -1.550735 -2.203413 -0.367504 0 CFG=2
M  V30 31 C -1.840980 -3.708124 -0.342610 0
M  V30 32 O -1.253942 -4.293171 0.761921 0
M  V30 33 H -1.478308 -0.867604 4.950664 0
M  V30 34 H -1.009859 0.618007 3.927906 0
M  V30 35 H -0.114585 0.203328 5.398301 0
M  V30 36 H 2.009739 -2.184790 4.686524 0
M  V30 37 H 0.511645 -3.156982 4.382684 0
M  V30 38 H 0.592028 -1.915612 5.693431 0
M  V30 39 H 1.915078 1.615742 4.720389 0
M  V30 40 H 4.957262 -0.593820 0.976841 0
M  V30 41 H 2.776782 1.800695 -2.395810 0
M  V30 42 H 3.805314 1.758471 -4.570828 0
M  V30 43 H 5.927786 0.475864 -4.916769 0
M  V30 44 H 6.940013 -0.745943 -2.967939 0
M  V30 45 H 1.622945 -2.670767 2.748773 0
M  V30 46 H 1.429325 -2.007579 1.045674 0
M  V30 47 H -3.940735 -0.998717 1.769559 0
M  V30 48 H -4.067709 -2.375219 0.604114 0
M  V30 49 H -3.234638 0.413483 -0.303852 0
M  V30 50 H -5.696874 0.518001 0.053655 0
M  V30 51 H -5.813076 -1.246058 -0.476567 0
M  V30 52 H -6.103600 -0.399451 -2.592242 0
M  V30 53 H -5.357203 1.187514 -2.088146 0
M  V30 54 H -3.959368 -0.807986 -3.570953 0
M  V30 55 H -3.202343 0.481531 -2.500751 0
M  V30 56 H -1.546643 -0.797061 -2.045582 0
M  V30 57 H -2.037336 -2.449704 -2.405499 0
M  V30 58 H -0.447150 -2.057881 -0.412212 0
M  V30 59 H -1.518686 -4.183633 -1.293203 0
M  V30 60 H -2.932205 -3.815346 -0.273081 0
M  V30 61 H -0.371306 -3.942019 1.006106 0
M  V30 END ATOM
M  V30 BEGIN BOND
M  V30 1 1 1 2
M  V30 2 1 2 3
M  V30 3 1 2 4
M  V30 4 1 4 5
M  V30 5 1 5 6
M  V30 6 2 6 7
M  V30 7 1 7 8
M  V30 8 1 8 9
M  V30 9 2 9 10
M  V30 10 1 9 11
M  V30 11 2 11 12
M  V30 12 1 12 13
M  V30 13 2 13 14
M  V30 14 1 14 15
M  V30 15 2 15 16
M  V30 16 1 7 17
M  V30 17 1 17 18
M  V30 18 1 18 19
M  V30 19 1 19 20
M  V30 20 2 20 21
M  V30 21 1 20 22
M  V30 22 1 22 23
M  V30 23 1 23 24
M  V30 24 1 24 25
M  V30 25 1 25 26
M  V30 26 1 26 27
M  V30 27 1 27 28
M  V30 28 1 28 29
M  V30 29 1 29 30
M  V30 30 1 30 31
M  V30 31 1 31 32
M  V30 32 1 19 2
M  V30 33 1 30 22
M  V30 34 2 17 4
M  V30 35 1 28 24
M  V30 36 1 16 11
M  V30 37 1 1 33
M  V30 38 1 1 34
M  V30 39 1 1 35
M  V30 40 1 3 36
M  V30 41 1 3 37
M  V30 42 1 3 38
M  V30 43 1 5 39
M  V30 44 1 8 40
M  V30 45 1 12 41
M  V30 46 1 13 42
M  V30 47 1 14 43
M  V30 48 1 15 44
M  V30 49 1 18 45
M  V30 50 1 18 46
M  V30 51 1 23 47
M  V30 52 1 23 48
M  V30 53 1 24 49 CFG=1
M  V30 54 1 25 50
M  V30 55 1 25 51
M  V30 56 1 26 52
M  V30 57 1 26 53
M  V30 58 1 27 54
M  V30 59 1 27 55
M  V30 60 1 29 56
M  V30 61 1 29 57
M  V30 62 1 30 58 CFG=3
M  V30 63 1 31 59
M  V30 64 1 31 60
M  V30 65 1 32 61
M  V30 END BOND
M  V30 END CTAB
M  END
>  <Dataset>  (776) 
ChEMBL_Kinases

>  <Ligand_Instance>  (776) 
nan

>  <PDB_ID>  (776) 
nan

>  <Standardized_SMILES>  (776) 
CC1(C)c2[nH]nc(NC(=O)c3ccccn3)c2CN1C(=O)N1C[C@@H]2CCCN2C[C@@H]1CO

>  <Name>  (776) 
nan

>  <Pocket>  (776) 
nan

>  <ATP_Site>  (776) 
nan

>  <Peripheral>  (776) 
nan

>  <Num_H_Atoms_ProtBoundConf>  (776) 
nan

>  <Num_Resolved_Atoms>  (776) 
nan

>  <Num_Not_Resolved_Atoms>  (776) 
nan

$$$$
CHEMBL3662800
     RDKit          3D

  0  0  0  0  0  0  0  0  0  0999 V3000
M  V30 BEGIN CTAB
M  V30 COUNTS 64 68 0 0 0
M  V30 BEGIN ATOM
M  V30 1 C 3.576061 2.154515 0.096875 0
M  V30 2 C 3.040961 1.666161 -1.203469 0
M  V30 3 C 2.472671 0.292408 -1.157537 0 CFG=1
M  V30 4 C 3.499785 -0.743010 -0.736036 0
M  V30 5 N 3.401952 -0.987976 0.673768 0
M  V30 6 C 4.500368 -1.762012 1.149778 0
M  V30 7 C 3.972333 -3.140813 1.473549 0
M  V30 8 C 2.589950 -3.145013 0.851301 0
M  V30 9 C 2.165582 -1.721483 0.957662 0 CFG=2
M  V30 10 C 1.135113 -1.333989 -0.078338 0
M  V30 11 N 1.328129 0.094313 -0.304067 0
M  V30 12 C 0.445448 1.060358 0.305618 0
M  V30 13 O 0.834277 2.187640 -0.098388 0
M  V30 14 N -0.661120 0.933624 1.187616 0
M  V30 15 C -1.512212 0.015604 1.957973 0
M  V30 16 C -2.849092 0.387603 1.499404 0
M  V30 17 C -4.114606 -0.083251 1.218332 0
M  V30 18 C -4.586025 -1.497573 1.336620 0
M  V30 19 C -4.081563 -2.299711 0.209561 0
M  V30 20 O -3.615285 -1.129042 -0.009533 0
M  V30 21 C -3.867154 -3.461966 -0.622185 0
M  V30 22 C -3.083175 -3.241019 -1.731934 0
M  V30 23 C -2.916979 -4.390603 -2.487969 0
M  V30 24 C -3.499052 -5.574123 -2.107549 0
M  V30 25 C -4.271523 -5.702896 -0.975216 0
M  V30 26 N -4.446639 -4.580394 -0.217283 0
M  V30 27 N -4.817471 1.007663 0.818586 0
M  V30 28 N -4.039866 2.082061 0.849787 0
M  V30 29 C -2.786613 1.743068 1.273056 0
M  V30 30 C -1.383947 2.114799 1.608383 0
M  V30 31 C -1.088779 3.354720 0.806494 0
M  V30 32 C -1.288026 2.342231 3.078132 0
M  V30 33 H 3.334604 3.231828 0.319767 0
M  V30 34 H 3.270050 1.492587 0.935279 0
M  V30 35 H 4.688194 2.130163 0.102063 0
M  V30 36 H 2.383522 2.368064 -1.742893 0
M  V30 37 H 3.947157 1.575695 -1.893396 0
M  V30 38 H 2.167723 -0.023731 -2.193953 0
M  V30 39 H 4.495671 -0.304862 -0.966399 0
M  V30 40 H 3.426144 -1.677592 -1.322351 0
M  V30 41 H 4.916869 -1.267772 2.062897 0
M  V30 42 H 5.313762 -1.823998 0.394336 0
M  V30 43 H 4.607699 -3.959510 1.098126 0
M  V30 44 H 3.871205 -3.213958 2.588139 0
M  V30 45 H 2.583253 -3.556824 -0.170115 0
M  V30 46 H 1.942711 -3.809702 1.458720 0
M  V30 47 H 1.782436 -1.520382 1.962438 0
M  V30 48 H 0.118588 -1.637012 0.127556 0
M  V30 49 H 1.428874 -1.889115 -1.010914 0
M  V30 50 H -1.259176 -1.029869 1.865773 0
M  V30 51 H -1.422013 0.252292 3.061576 0
M  V30 52 H -4.240642 -1.865681 2.323385 0
M  V30 53 H -5.693890 -1.530955 1.305712 0
M  V30 54 H -2.647882 -2.287385 -1.986331 0
M  V30 55 H -2.316786 -4.357127 -3.396220 0
M  V30 56 H -3.408480 -6.508638 -2.653728 0
M  V30 57 H -4.741327 -6.616958 -0.650128 0
M  V30 58 H -4.285286 3.079284 0.599196 0
M  V30 59 H -1.929815 4.068437 1.076975 0
M  V30 60 H -0.188542 3.896171 1.073615 0
M  V30 61 H -1.244939 3.179959 -0.274762 0
M  V30 62 H -2.193842 2.015666 3.635441 0
M  V30 63 H -1.159448 3.457042 3.236352 0
M  V30 64 H -0.389428 1.906609 3.544568 0
M  V30 END ATOM
M  V30 BEGIN BOND
M  V30 1 1 1 2
M  V30 2 1 2 3
M  V30 3 1 3 4
M  V30 4 1 4 5
M  V30 5 1 5 6
M  V30 6 1 6 7
M  V30 7 1 7 8
M  V30 8 1 8 9
M  V30 9 1 9 10
M  V30 10 1 10 11
M  V30 11 1 11 12
M  V30 12 2 12 13
M  V30 13 1 12 14
M  V30 14 1 14 15
M  V30 15 1 15 16
M  V30 16 1 16 17
M  V30 17 1 17 18
M  V30 18 1 18 19
M  V30 19 2 19 20
M  V30 20 1 19 21
M  V30 21 2 21 22
M  V30 22 1 22 23
M  V30 23 2 23 24
M  V30 24 1 24 25
M  V30 25 2 25 26
M  V30 26 2 17 27
M  V30 27 1 27 28
M  V30 28 1 28 29
M  V30 29 1 29 30
M  V30 30 1 30 31
M  V30 31 1 30 32
M  V30 32 1 11 3
M  V30 33 1 30 14
M  V30 34 1 9 5
M  V30 35 2 29 16
M  V30 36 1 26 21
M  V30 37 1 1 33
M  V30 38 1 1 34
M  V30 39 1 1 35
M  V30 40 1 2 36
M  V30 41 1 2 37
M  V30 42 1 3 38 CFG=3
M  V30 43 1 4 39
M  V30 44 1 4 40
M  V30 45 1 6 41
M  V30 46 1 6 42
M  V30 47 1 7 43
M  V30 48 1 7 44
M  V30 49 1 8 45
M  V30 50 1 8 46
M  V30 51 1 9 47 CFG=1
M  V30 52 1 10 48
M  V30 53 1 10 49
M  V30 54 1 15 50
M  V30 55 1 15 51
M  V30 56 1 18 52
M  V30 57 1 18 53
M  V30 58 1 22 54
M  V30 59 1 23 55
M  V30 60 1 24 56
M  V30 61 1 25 57
M  V30 62 1 28 58
M  V30 63 1 31 59
M  V30 64 1 31 60
M  V30 65 1 31 61
M  V30 66 1 32 62
M  V30 67 1 32 63
M  V30 68 1 32 64
M  V30 END BOND
M  V30 END CTAB
M  END
>  <Dataset>  (777) 
ChEMBL_Kinases

>  <Ligand_Instance>  (777) 
nan

>  <PDB_ID>  (777) 
nan

>  <Standardized_SMILES>  (777) 
CC[C@H]1CN2CCC[C@@H]2CN1C(=O)N1Cc2c(CC(=O)c3ccccn3)n[nH]c2C1(C)C

>  <Name>  (777) 
nan

>  <Pocket>  (777) 
nan

>  <ATP_Site>  (777) 
nan

>  <Peripheral>  (777) 
nan

>  <Num_H_Atoms_ProtBoundConf>  (777) 
nan

>  <Num_Resolved_Atoms>  (777) 
nan

>  <Num_Not_Resolved_Atoms>  (777) 
nan

$$$$
CHEMBL3662792
     RDKit          3D

  0  0  0  0  0  0  0  0  0  0999 V3000
M  V30 BEGIN CTAB
M  V30 COUNTS 69 73 0 0 0
M  V30 BEGIN ATOM
M  V30 1 C 1.941576 -0.257295 3.436380 0
M  V30 2 C 2.340169 0.193430 2.022796 0
M  V30 3 C 2.004376 -0.925872 1.110312 0 CFG=2
M  V30 4 C 2.813378 -2.146544 1.574038 0
M  V30 5 C 2.280526 -0.753705 -0.326749 0 CFG=1
M  V30 6 C 1.870622 -2.023583 -1.090055 0
M  V30 7 N 1.355742 -1.729392 -2.394240 0
M  V30 8 C 1.651363 -2.892337 -3.241550 0
M  V30 9 C 3.144110 -2.746436 -3.473947 0
M  V30 10 C 3.402513 -1.251401 -3.486529 0
M  V30 11 C 2.069238 -0.687186 -3.101807 0 CFG=2
M  V30 12 C 2.188496 0.590223 -2.302994 0
M  V30 13 N 1.604319 0.324812 -1.005385 0
M  V30 14 C 0.557484 0.822378 -0.234359 0
M  V30 15 O 0.773196 1.322216 -1.363114 0
M  V30 16 N -0.548717 1.558548 0.241764 0
M  V30 17 C -1.134159 1.296803 1.542122 0
M  V30 18 C -2.573583 1.196283 1.195902 0
M  V30 19 C -3.788480 0.632360 1.477287 0
M  V30 20 N -3.994989 -0.303418 2.530765 0
M  V30 21 C -3.783324 -1.626095 2.013506 0
M  V30 22 O -3.478502 -1.607240 0.794422 0
M  V30 23 C -3.913039 -2.845622 2.830993 0
M  V30 24 C -3.669300 -4.021920 2.152387 0
M  V30 25 C -3.760612 -5.245271 2.818696 0
M  V30 26 C -4.099258 -5.187051 4.151879 0
M  V30 27 C -4.342739 -3.995899 4.825778 0
M  V30 28 N -4.239933 -2.843110 4.131186 0
M  V30 29 N -4.673633 1.137915 0.584867 0
M  V30 30 N -4.062032 1.977927 -0.222760 0
M  V30 31 C -2.768721 2.040260 0.121932 0
M  V30 32 C -1.435187 2.633698 -0.156683 0
M  V30 33 C -1.162777 3.810539 0.750056 0
M  V30 34 C -1.273487 2.990977 -1.613065 0
M  V30 35 H 2.755801 -0.790969 3.951477 0
M  V30 36 H 1.002186 -0.833116 3.328044 0
M  V30 37 H 1.667803 0.628147 4.068725 0
M  V30 38 H 1.751789 1.117512 1.868779 0
M  V30 39 H 3.427262 0.374020 2.001761 0
M  V30 40 H 0.941436 -1.266120 1.216352 0
M  V30 41 H 2.623665 -2.353951 2.647098 0
M  V30 42 H 2.346354 -3.027256 1.043613 0
M  V30 43 H 3.869157 -2.068829 1.302619 0
M  V30 44 H 3.369610 -0.637862 -0.495825 0
M  V30 45 H 0.998633 -2.430757 -0.498677 0
M  V30 46 H 2.646835 -2.793913 -1.043167 0
M  V30 47 H 1.141682 -2.742143 -4.216776 0
M  V30 48 H 1.376456 -3.835842 -2.757392 0
M  V30 49 H 3.390537 -3.216840 -4.460955 0
M  V30 50 H 3.710478 -3.289462 -2.711647 0
M  V30 51 H 4.223016 -0.967822 -2.796011 0
M  V30 52 H 3.721738 -0.945343 -4.506389 0
M  V30 53 H 1.502411 -0.470521 -4.020050 0
M  V30 54 H 3.288153 0.750826 -2.108842 0
M  V30 55 H 1.855569 1.473102 -2.823661 0
M  V30 56 H -0.962619 2.145622 2.254410 0
M  V30 57 H -0.733060 0.407169 2.012334 0
M  V30 58 H -4.258449 -0.208211 3.557105 0
M  V30 59 H -3.403254 -4.051047 1.100912 0
M  V30 60 H -3.571317 -6.180467 2.296804 0
M  V30 61 H -4.176999 -6.111415 4.690279 0
M  V30 62 H -4.608475 -3.953286 5.872510 0
M  V30 63 H -4.535859 2.491357 -0.991141 0
M  V30 64 H -0.160696 3.704949 1.214941 0
M  V30 65 H -1.233152 4.777738 0.210176 0
M  V30 66 H -1.893895 3.830978 1.585631 0
M  V30 67 H -2.063193 3.706461 -1.858582 0
M  V30 68 H -1.414969 2.069221 -2.195310 0
M  V30 69 H -0.280432 3.453297 -1.728648 0
M  V30 END ATOM
M  V30 BEGIN BOND
M  V30 1 1 1 2
M  V30 2 1 2 3
M  V30 3 1 3 4
M  V30 4 1 3 5
M  V30 5 1 5 6
M  V30 6 1 6 7
M  V30 7 1 7 8
M  V30 8 1 8 9
M  V30 9 1 9 10
M  V30 10 1 10 11
M  V30 11 1 11 12
M  V30 12 1 12 13
M  V30 13 1 13 14
M  V30 14 2 14 15
M  V30 15 1 14 16
M  V30 16 1 16 17
M  V30 17 1 17 18
M  V30 18 1 18 19
M  V30 19 1 19 20
M  V30 20 1 20 21
M  V30 21 2 21 22
M  V30 22 1 21 23
M  V30 23 2 23 24
M  V30 24 1 24 25
M  V30 25 2 25 26
M  V30 26 1 26 27
M  V30 27 2 27 28
M  V30 28 2 19 29
M  V30 29 1 29 30
M  V30 30 1 30 31
M  V30 31 1 31 32
M  V30 32 1 32 33
M  V30 33 1 32 34
M  V30 34 1 13 5
M  V30 35 1 32 16
M  V30 36 1 11 7
M  V30 37 2 31 18
M  V30 38 1 28 23
M  V30 39 1 1 35
M  V30 40 1 1 36
M  V30 41 1 1 37
M  V30 42 1 2 38
M  V30 43 1 2 39
M  V30 44 1 3 40 CFG=3
M  V30 45 1 4 41
M  V30 46 1 4 42
M  V30 47 1 4 43
M  V30 48 1 5 44 CFG=1
M  V30 49 1 6 45
M  V30 50 1 6 46
M  V30 51 1 8 47
M  V30 52 1 8 48
M  V30 53 1 9 49
M  V30 54 1 9 50
M  V30 55 1 10 51
M  V30 56 1 10 52
M  V30 57 1 11 53 CFG=3
M  V30 58 1 12 54
M  V30 59 1 12 55
M  V30 60 1 17 56
M  V30 61 1 17 57
M  V30 62 1 20 58
M  V30 63 1 24 59
M  V30 64 1 25 60
M  V30 65 1 26 61
M  V30 66 1 27 62
M  V30 67 1 30 63
M  V30 68 1 33 64
M  V30 69 1 33 65
M  V30 70 1 33 66
M  V30 71 1 34 67
M  V30 72 1 34 68
M  V30 73 1 34 69
M  V30 END BOND
M  V30 END CTAB
M  END
>  <Dataset>  (778) 
ChEMBL_Kinases

>  <Ligand_Instance>  (778) 
nan

>  <PDB_ID>  (778) 
nan

>  <Standardized_SMILES>  (778) 
CC[C@H](C)[C@H]1CN2CCC[C@@H]2CN1C(=O)N1Cc2c(NC(=O)c3ccccn3)n[nH]c2C1(C)C

>  <Name>  (778) 
nan

>  <Pocket>  (778) 
nan

>  <ATP_Site>  (778) 
nan

>  <Peripheral>  (778) 
nan

>  <Num_H_Atoms_ProtBoundConf>  (778) 
nan

>  <Num_Resolved_Atoms>  (778) 
nan

>  <Num_Not_Resolved_Atoms>  (778) 
nan

$$$$
CHEMBL3662793
     RDKit          3D

  0  0  0  0  0  0  0  0  0  0999 V3000
M  V30 BEGIN CTAB
M  V30 COUNTS 63 67 0 0 0
M  V30 BEGIN ATOM
M  V30 1 C 2.394055 0.719184 0.026622 0
M  V30 2 C 2.718061 0.362275 1.457299 0
M  V30 3 C 2.984287 1.658389 2.197554 0
M  V30 4 C 3.901312 -0.558555 1.564078 0
M  V30 5 N 3.568998 -1.933651 1.796014 0
M  V30 6 C 4.797693 -2.679365 1.901744 0
M  V30 7 C 4.764068 -3.434954 3.210644 0
M  V30 8 C 3.848164 -2.539486 4.039601 0
M  V30 9 C 2.827240 -2.158354 2.996557 0 CFG=1
M  V30 10 C 2.003472 -0.957383 3.376304 0
M  V30 11 N 1.607146 -0.292325 2.134686 0
M  V30 12 C 0.233657 -0.404102 1.818724 0
M  V30 13 O 0.104407 0.226151 0.733506 0
M  V30 14 N -1.058768 -0.373719 1.298249 0
M  V30 15 C -1.719548 0.181850 0.133567 0
M  V30 16 C -2.610209 -0.990047 -0.201251 0
M  V30 17 C -3.312737 -1.661223 -1.206790 0
M  V30 18 N -3.295721 -1.175080 -2.554041 0
M  V30 19 C -4.289134 -0.251345 -2.952496 0
M  V30 20 O -5.186330 0.155867 -2.160695 0
M  V30 21 C -4.222909 0.211341 -4.339592 0
M  V30 22 C -5.177965 1.121448 -4.782062 0
M  V30 23 C -5.169518 1.599325 -6.088419 0
M  V30 24 C -4.199751 1.175201 -6.987239 0
M  V30 25 C -3.277103 0.273857 -6.500061 0
M  V30 26 N -3.270145 -0.204678 -5.224584 0
M  V30 27 N -3.916704 -2.725354 -0.649101 0
M  V30 28 N -3.648188 -2.780136 0.643968 0
M  V30 29 C -2.850997 -1.728815 0.939445 0
M  V30 30 C -2.115748 -1.037013 2.026033 0
M  V30 31 C -1.719519 -1.916171 3.142363 0
M  V30 32 C -3.045590 0.045624 2.559958 0
M  V30 33 H 2.007616 -0.106134 -0.575533 0
M  V30 34 H 3.390378 0.973242 -0.440827 0
M  V30 35 H 1.816462 1.646656 0.019902 0
M  V30 36 H 3.971299 1.604541 2.735503 0
M  V30 37 H 2.230557 1.869542 2.985560 0
M  V30 38 H 3.024025 2.535470 1.492452 0
M  V30 39 H 4.533121 -0.203154 2.404124 0
M  V30 40 H 4.529177 -0.535599 0.640159 0
M  V30 41 H 5.699922 -2.013300 1.960076 0
M  V30 42 H 4.835286 -3.353161 1.025101 0
M  V30 43 H 5.769996 -3.545234 3.668537 0
M  V30 44 H 4.265167 -4.409196 3.045296 0
M  V30 45 H 3.400746 -3.122042 4.871674 0
M  V30 46 H 4.391054 -1.695347 4.473749 0
M  V30 47 H 2.167129 -3.047463 2.842034 0
M  V30 48 H 2.662672 -0.238972 3.923138 0
M  V30 49 H 1.151096 -1.204133 4.022617 0
M  V30 50 H -1.081443 0.452429 -0.697493 0
M  V30 51 H -2.358605 1.051744 0.401652 0
M  V30 52 H -2.550677 -1.517831 -3.199422 0
M  V30 53 H -5.942238 1.465812 -4.100596 0
M  V30 54 H -5.909598 2.307104 -6.438561 0
M  V30 55 H -4.154147 1.519774 -8.012077 0
M  V30 56 H -2.483059 -0.104003 -7.153109 0
M  V30 57 H -3.974702 -3.491238 1.342078 0
M  V30 58 H -1.527229 -1.448704 4.095239 0
M  V30 59 H -2.545172 -2.657991 3.317662 0
M  V30 60 H -0.831355 -2.511088 2.844711 0
M  V30 61 H -3.442503 -0.246195 3.564659 0
M  V30 62 H -2.449321 0.961086 2.710034 0
M  V30 63 H -3.917096 0.202059 1.901371 0
M  V30 END ATOM
M  V30 BEGIN BOND
M  V30 1 1 1 2
M  V30 2 1 2 3
M  V30 3 1 2 4
M  V30 4 1 4 5
M  V30 5 1 5 6
M  V30 6 1 6 7
M  V30 7 1 7 8
M  V30 8 1 8 9
M  V30 9 1 9 10
M  V30 10 1 10 11
M  V30 11 1 11 12
M  V30 12 2 12 13
M  V30 13 1 12 14
M  V30 14 1 14 15
M  V30 15 1 15 16
M  V30 16 1 16 17
M  V30 17 1 17 18
M  V30 18 1 18 19
M  V30 19 2 19 20
M  V30 20 1 19 21
M  V30 21 2 21 22
M  V30 22 1 22 23
M  V30 23 2 23 24
M  V30 24 1 24 25
M  V30 25 2 25 26
M  V30 26 2 17 27
M  V30 27 1 27 28
M  V30 28 1 28 29
M  V30 29 1 29 30
M  V30 30 1 30 31
M  V30 31 1 30 32
M  V30 32 1 11 2
M  V30 33 1 30 14
M  V30 34 1 9 5
M  V30 35 2 29 16
M  V30 36 1 26 21
M  V30 37 1 1 33
M  V30 38 1 1 34
M  V30 39 1 1 35
M  V30 40 1 3 36
M  V30 41 1 3 37
M  V30 42 1 3 38
M  V30 43 1 4 39
M  V30 44 1 4 40
M  V30 45 1 6 41
M  V30 46 1 6 42
M  V30 47 1 7 43
M  V30 48 1 7 44
M  V30 49 1 8 45
M  V30 50 1 8 46
M  V30 51 1 9 47 CFG=3
M  V30 52 1 10 48
M  V30 53 1 10 49
M  V30 54 1 15 50
M  V30 55 1 15 51
M  V30 56 1 18 52
M  V30 57 1 22 53
M  V30 58 1 23 54
M  V30 59 1 24 55
M  V30 60 1 25 56
M  V30 61 1 28 57
M  V30 62 1 31 58
M  V30 63 1 31 59
M  V30 64 1 31 60
M  V30 65 1 32 61
M  V30 66 1 32 62
M  V30 67 1 32 63
M  V30 END BOND
M  V30 END CTAB
M  END
>  <Dataset>  (779) 
ChEMBL_Kinases

>  <Ligand_Instance>  (779) 
nan

>  <PDB_ID>  (779) 
nan

>  <Standardized_SMILES>  (779) 
CC1(C)CN2CCC[C@H]2CN1C(=O)N1Cc2c(NC(=O)c3ccccn3)n[nH]c2C1(C)C

>  <Name>  (779) 
nan

>  <Pocket>  (779) 
nan

>  <ATP_Site>  (779) 
nan

>  <Peripheral>  (779) 
nan

>  <Num_H_Atoms_ProtBoundConf>  (779) 
nan

>  <Num_Resolved_Atoms>  (779) 
nan

>  <Num_Not_Resolved_Atoms>  (779) 
nan

$$$$
CHEMBL3662794
     RDKit          3D

  0  0  0  0  0  0  0  0  0  0999 V3000
M  V30 BEGIN CTAB
M  V30 COUNTS 69 72 0 0 0
M  V30 BEGIN ATOM
M  V30 1 C 5.350496 0.279321 4.005671 0
M  V30 2 C 3.880132 0.436710 4.329713 0
M  V30 3 C 3.109709 0.190246 3.049807 0
M  V30 4 N 1.695680 0.309582 3.223265 0
M  V30 5 C 1.079011 -0.671452 4.008530 0
M  V30 6 C -0.165427 -1.313156 3.430589 0 CFG=2
M  V30 7 C -0.407881 -2.651720 4.021855 0
M  V30 8 N -0.054848 -1.234974 2.001761 0
M  V30 9 C 0.126659 -2.229185 1.018323 0
M  V30 10 O 0.162587 -3.176173 1.834187 0
M  V30 11 N 0.256516 -2.432169 -0.368702 0
M  V30 12 C 0.287524 -1.728564 -1.659139 0
M  V30 13 C -0.772419 -2.435175 -2.404593 0
M  V30 14 C -1.797280 -2.401468 -3.322456 0
M  V30 15 N -2.225890 -1.228938 -4.028028 0
M  V30 16 C -3.229500 -0.552036 -3.299477 0
M  V30 17 O -3.538666 -1.107000 -2.195490 0
M  V30 18 C -3.864653 0.678477 -3.762012 0
M  V30 19 C -4.832399 1.253188 -2.963778 0
M  V30 20 C -5.513299 2.413238 -3.274302 0
M  V30 21 C -5.178111 3.011459 -4.471613 0
M  V30 22 C -4.212750 2.451115 -5.282758 0
M  V30 23 N -3.579945 1.318577 -4.930850 0
M  V30 24 N -2.312606 -3.648715 -3.433905 0
M  V30 25 N -1.640172 -4.450466 -2.615850 0
M  V30 26 C -0.699224 -3.741259 -1.978208 0
M  V30 27 C 0.431918 -3.709132 -0.984279 0
M  V30 28 C 1.684842 -3.877781 -1.787440 0
M  V30 29 C 0.326212 -4.887013 -0.039238 0
M  V30 30 C -0.152094 0.183450 1.605475 0
M  V30 31 C 0.971349 0.979834 2.218513 0 CFG=1
M  V30 32 C 0.548072 2.326399 2.708617 0
M  V30 33 C -0.236822 3.111988 1.684815 0
M  V30 34 O -0.564870 4.335690 2.266694 0
M  V30 35 H 5.977077 1.078053 4.467800 0
M  V30 36 H 5.535674 0.346386 2.906116 0
M  V30 37 H 5.736082 -0.740621 4.292396 0
M  V30 38 H 3.639260 1.444044 4.742356 0
M  V30 39 H 3.620134 -0.341854 5.076394 0
M  V30 40 H 3.444007 0.966128 2.328092 0
M  V30 41 H 3.384130 -0.797166 2.660277 0
M  V30 42 H 0.818266 -0.295098 5.038481 0
M  V30 43 H 1.795446 -1.503761 4.209062 0
M  V30 44 H -1.057628 -0.681157 3.744489 0
M  V30 45 H -1.311794 -3.102070 3.569647 0
M  V30 46 H 0.449742 -3.332285 4.084690 0
M  V30 47 H -0.711567 -2.462206 5.089790 0
M  V30 48 H 0.114163 -0.656162 -1.580639 0
M  V30 49 H 1.314304 -1.900423 -2.080208 0
M  V30 50 H -1.920208 -0.830145 -4.946515 0
M  V30 51 H -5.090384 0.776515 -2.022573 0
M  V30 52 H -6.271250 2.812249 -2.590609 0
M  V30 53 H -5.667484 3.915503 -4.776535 0
M  V30 54 H -3.897911 2.852896 -6.222776 0
M  V30 55 H -1.789191 -5.467743 -2.465750 0
M  V30 56 H 1.993907 -4.960470 -1.709175 0
M  V30 57 H 1.554729 -3.733732 -2.883666 0
M  V30 58 H 2.564411 -3.333195 -1.369571 0
M  V30 59 H 1.202607 -4.849289 0.634661 0
M  V30 60 H -0.582545 -4.929391 0.551760 0
M  V30 61 H 0.346116 -5.832305 -0.644664 0
M  V30 62 H -0.227307 0.316866 0.518493 0
M  V30 63 H -1.128325 0.532435 2.012381 0
M  V30 64 H 1.681901 1.175104 1.370835 0
M  V30 65 H -0.067100 2.283599 3.635766 0
M  V30 66 H 1.437708 2.941839 2.955219 0
M  V30 67 H -1.210186 2.610102 1.485932 0
M  V30 68 H 0.351800 3.331604 0.775503 0
M  V30 69 H -1.351597 4.757075 1.841168 0
M  V30 END ATOM
M  V30 BEGIN BOND
M  V30 1 1 1 2
M  V30 2 1 2 3
M  V30 3 1 3 4
M  V30 4 1 4 5
M  V30 5 1 5 6
M  V30 6 1 6 7
M  V30 7 1 6 8
M  V30 8 1 8 9
M  V30 9 2 9 10
M  V30 10 1 9 11
M  V30 11 1 11 12
M  V30 12 1 12 13
M  V30 13 1 13 14
M  V30 14 1 14 15
M  V30 15 1 15 16
M  V30 16 2 16 17
M  V30 17 1 16 18
M  V30 18 2 18 19
M  V30 19 1 19 20
M  V30 20 2 20 21
M  V30 21 1 21 22
M  V30 22 2 22 23
M  V30 23 2 14 24
M  V30 24 1 24 25
M  V30 25 1 25 26
M  V30 26 1 26 27
M  V30 27 1 27 28
M  V30 28 1 27 29
M  V30 29 1 8 30
M  V30 30 1 30 31
M  V30 31 1 31 32
M  V30 32 1 32 33
M  V30 33 1 33 34
M  V30 34 1 31 4
M  V30 35 1 27 11
M  V30 36 2 26 13
M  V30 37 1 23 18
M  V30 38 1 1 35
M  V30 39 1 1 36
M  V30 40 1 1 37
M  V30 41 1 2 38
M  V30 42 1 2 39
M  V30 43 1 3 40
M  V30 44 1 3 41
M  V30 45 1 5 42
M  V30 46 1 5 43
M  V30 47 1 6 44 CFG=1
M  V30 48 1 7 45
M  V30 49 1 7 46
M  V30 50 1 7 47
M  V30 51 1 12 48
M  V30 52 1 12 49
M  V30 53 1 15 50
M  V30 54 1 19 51
M  V30 55 1 20 52
M  V30 56 1 21 53
M  V30 57 1 22 54
M  V30 58 1 25 55
M  V30 59 1 28 56
M  V30 60 1 28 57
M  V30 61 1 28 58
M  V30 62 1 29 59
M  V30 63 1 29 60
M  V30 64 1 29 61
M  V30 65 1 30 62
M  V30 66 1 30 63
M  V30 67 1 31 64 CFG=3
M  V30 68 1 32 65
M  V30 69 1 32 66
M  V30 70 1 33 67
M  V30 71 1 33 68
M  V30 72 1 34 69
M  V30 END BOND
M  V30 END CTAB
M  END
>  <Dataset>  (780) 
ChEMBL_Kinases

>  <Ligand_Instance>  (780) 
nan

>  <PDB_ID>  (780) 
nan

>  <Standardized_SMILES>  (780) 
CCCN1C[C@H](C)N(C(=O)N2Cc3c(NC(=O)c4ccccn4)n[nH]c3C2(C)C)C[C@H]1CCO

>  <Name>  (780) 
nan

>  <Pocket>  (780) 
nan

>  <ATP_Site>  (780) 
nan

>  <Peripheral>  (780) 
nan

>  <Num_H_Atoms_ProtBoundConf>  (780) 
nan

>  <Num_Resolved_Atoms>  (780) 
nan

>  <Num_Not_Resolved_Atoms>  (780) 
nan

$$$$
CHEMBL3662795
     RDKit          3D

  0  0  0  0  0  0  0  0  0  0999 V3000
M  V30 BEGIN CTAB
M  V30 COUNTS 70 74 0 0 0
M  V30 BEGIN ATOM
M  V30 1 C 3.073224 -3.232954 1.852959 0
M  V30 2 C 3.566795 -1.828161 1.753035 0
M  V30 3 C 2.540440 -0.828433 1.268728 0 CFG=2
M  V30 4 C 1.354716 -0.790988 2.150841 0
M  V30 5 C 2.374620 -0.909028 -0.181662 0 CFG=1
M  V30 6 C 1.919243 -2.208651 -0.779480 0
M  V30 7 N 1.696767 -1.953350 -2.185687 0
M  V30 8 C 1.945025 -3.092058 -3.022751 0
M  V30 9 C 2.177752 -2.491614 -4.394187 0 CFG=2
M  V30 10 O 3.473372 -2.782579 -4.870940 0
M  V30 11 C 2.168411 -0.989118 -4.194158 0
M  V30 12 C 2.520069 -0.892852 -2.716962 0 CFG=1
M  V30 13 C 2.031135 0.460476 -2.192170 0
M  V30 14 N 1.598809 0.136004 -0.815402 0
M  V30 15 C 0.583762 0.620180 0.073526 0
M  V30 16 O 0.824536 1.070411 -1.095329 0
M  V30 17 N -0.477524 1.595372 0.214757 0
M  V30 18 C -1.220755 1.574970 1.455725 0
M  V30 19 C -2.657636 1.612546 1.064967 0
M  V30 20 C -3.959247 1.210230 1.386768 0
M  V30 21 N -4.186700 0.413777 2.568816 0
M  V30 22 C -4.127452 -0.972282 2.311245 0
M  V30 23 O -3.891995 -1.330512 1.122848 0
M  V30 24 C -4.333504 -1.928506 3.392538 0
M  V30 25 C -4.284810 -3.284089 3.142246 0
M  V30 26 C -4.471731 -4.267838 4.112012 0
M  V30 27 C -4.714639 -3.739586 5.370762 0
M  V30 28 C -4.771697 -2.394474 5.665545 0
M  V30 29 N -4.577727 -1.498151 4.658261 0
M  V30 30 N -4.741158 1.718614 0.418087 0
M  V30 31 N -3.978498 2.383575 -0.435333 0
M  V30 32 C -2.657698 2.355828 -0.086311 0
M  V30 33 C -1.263093 2.720670 -0.321206 0
M  V30 34 C -0.858988 3.946193 0.425005 0
M  V30 35 C -1.080184 2.851951 -1.816494 0
M  V30 36 H 2.017708 -3.390916 1.568995 0
M  V30 37 H 3.710134 -3.907344 1.244358 0
M  V30 38 H 3.207581 -3.625988 2.907258 0
M  V30 39 H 4.484410 -1.775513 1.117778 0
M  V30 40 H 3.938440 -1.523792 2.774004 0
M  V30 41 H 3.075481 0.180387 1.449884 0
M  V30 42 H 1.601638 -1.385935 3.082252 0
M  V30 43 H 0.437097 -1.263003 1.762909 0
M  V30 44 H 1.163809 0.232536 2.592822 0
M  V30 45 H 3.428145 -0.789126 -0.604880 0
M  V30 46 H 2.649599 -3.039670 -0.683331 0
M  V30 47 H 0.931233 -2.457637 -0.345174 0
M  V30 48 H 1.028651 -3.710579 -3.085199 0
M  V30 49 H 2.822406 -3.684964 -2.709748 0
M  V30 50 H 1.413171 -2.810158 -5.128417 0
M  V30 51 H 3.796000 -3.548751 -4.367313 0
M  V30 52 H 1.142944 -0.599488 -4.368485 0
M  V30 53 H 2.915274 -0.479029 -4.829413 0
M  V30 54 H 3.594540 -1.037681 -2.617800 0
M  V30 55 H 2.849847 1.187108 -2.128327 0
M  V30 56 H 1.194474 0.736029 -2.848007 0
M  V30 57 H -1.108791 0.680426 2.064842 0
M  V30 58 H -1.030046 2.470486 2.083677 0
M  V30 59 H -4.373041 0.816890 3.504201 0
M  V30 60 H -4.087643 -3.633856 2.120937 0
M  V30 61 H -4.434599 -5.317702 3.923059 0
M  V30 62 H -4.870344 -4.464363 6.180433 0
M  V30 63 H -4.966502 -2.056026 6.675000 0
M  V30 64 H -4.333674 2.883141 -1.291145 0
M  V30 65 H -1.599258 4.230359 1.220440 0
M  V30 66 H -0.760237 4.811814 -0.260243 0
M  V30 67 H 0.139876 3.799794 0.882724 0
M  V30 68 H -0.211472 3.432079 -2.123343 0
M  V30 69 H -1.074555 1.820434 -2.234394 0
M  V30 70 H -2.004164 3.330140 -2.212443 0
M  V30 END ATOM
M  V30 BEGIN BOND
M  V30 1 1 1 2
M  V30 2 1 2 3
M  V30 3 1 3 4
M  V30 4 1 3 5
M  V30 5 1 5 6
M  V30 6 1 6 7
M  V30 7 1 7 8
M  V30 8 1 8 9
M  V30 9 1 9 10
M  V30 10 1 9 11
M  V30 11 1 11 12
M  V30 12 1 12 13
M  V30 13 1 13 14
M  V30 14 1 14 15
M  V30 15 2 15 16
M  V30 16 1 15 17
M  V30 17 1 17 18
M  V30 18 1 18 19
M  V30 19 1 19 20
M  V30 20 1 20 21
M  V30 21 1 21 22
M  V30 22 2 22 23
M  V30 23 1 22 24
M  V30 24 2 24 25
M  V30 25 1 25 26
M  V30 26 2 26 27
M  V30 27 1 27 28
M  V30 28 2 28 29
M  V30 29 2 20 30
M  V30 30 1 30 31
M  V30 31 1 31 32
M  V30 32 1 32 33
M  V30 33 1 33 34
M  V30 34 1 33 35
M  V30 35 1 14 5
M  V30 36 1 33 17
M  V30 37 1 12 7
M  V30 38 2 32 19
M  V30 39 1 29 24
M  V30 40 1 1 36
M  V30 41 1 1 37
M  V30 42 1 1 38
M  V30 43 1 2 39
M  V30 44 1 2 40
M  V30 45 1 3 41 CFG=3
M  V30 46 1 4 42
M  V30 47 1 4 43
M  V30 48 1 4 44
M  V30 49 1 5 45 CFG=3
M  V30 50 1 6 46
M  V30 51 1 6 47
M  V30 52 1 8 48
M  V30 53 1 8 49
M  V30 54 1 9 50 CFG=3
M  V30 55 1 10 51
M  V30 56 1 11 52
M  V30 57 1 11 53
M  V30 58 1 12 54 CFG=3
M  V30 59 1 13 55
M  V30 60 1 13 56
M  V30 61 1 18 57
M  V30 62 1 18 58
M  V30 63 1 21 59
M  V30 64 1 25 60
M  V30 65 1 26 61
M  V30 66 1 27 62
M  V30 67 1 28 63
M  V30 68 1 31 64
M  V30 69 1 34 65
M  V30 70 1 34 66
M  V30 71 1 34 67
M  V30 72 1 35 68
M  V30 73 1 35 69
M  V30 74 1 35 70
M  V30 END BOND
M  V30 END CTAB
M  END
>  <Dataset>  (781) 
ChEMBL_Kinases

>  <Ligand_Instance>  (781) 
nan

>  <PDB_ID>  (781) 
nan

>  <Standardized_SMILES>  (781) 
CC[C@H](C)[C@H]1CN2C[C@H](O)C[C@H]2CN1C(=O)N1Cc2c(NC(=O)c3ccccn3)n[nH]c2C1(C)C

>  <Name>  (781) 
nan

>  <Pocket>  (781) 
nan

>  <ATP_Site>  (781) 
nan

>  <Peripheral>  (781) 
nan

>  <Num_H_Atoms_ProtBoundConf>  (781) 
nan

>  <Num_Resolved_Atoms>  (781) 
nan

>  <Num_Not_Resolved_Atoms>  (781) 
nan

$$$$
CHEMBL3662796
     RDKit          3D

  0  0  0  0  0  0  0  0  0  0999 V3000
M  V30 BEGIN CTAB
M  V30 COUNTS 64 68 0 0 0
M  V30 BEGIN ATOM
M  V30 1 C 3.508420 -1.887737 3.507987 0
M  V30 2 C 2.030852 -2.080618 3.258610 0
M  V30 3 C 1.716820 -1.619494 1.877100 0
M  V30 4 C 2.464564 -2.365921 0.817383 0
M  V30 5 C 2.092524 -0.188191 1.765221 0
M  V30 6 N 3.094370 0.671862 1.510432 0
M  V30 7 N 2.703210 1.932770 1.585825 0
M  V30 8 C 1.395727 1.932446 1.901404 0
M  V30 9 N 0.499072 3.035545 2.101232 0
M  V30 10 C -0.191251 3.497003 0.943220 0
M  V30 11 O 0.028921 2.912286 -0.167627 0
M  V30 12 C -1.125434 4.614878 1.045232 0
M  V30 13 N -1.360433 5.234971 2.218554 0
M  V30 14 C -2.226618 6.272709 2.317107 0
M  V30 15 C -2.856741 6.660141 1.144214 0
M  V30 16 F -3.722460 7.699033 1.248525 0
M  V30 17 C -2.675320 6.085910 -0.085116 0
M  V30 18 C -1.774421 5.032104 -0.101171 0
M  V30 19 F -1.533525 4.402955 -1.281802 0
M  V30 20 C 1.008952 0.613791 2.014639 0
M  V30 21 C -0.118279 -0.310466 2.300570 0
M  V30 22 N 0.266277 -1.557435 1.637315 0
M  V30 23 C -0.323774 -2.613471 0.902618 0
M  V30 24 O 0.277437 -3.633707 0.417680 0
M  V30 25 C -1.595326 -3.070259 0.390141 0
M  V30 26 C -1.488465 -4.415198 -0.333070 0
M  V30 27 C -1.142297 -4.174182 -1.778482 0 CFG=2
M  V30 28 C -0.151968 -5.169048 -2.337313 0
M  V30 29 C 0.637729 -4.354595 -3.349533 0
M  V30 30 C -0.137021 -3.031254 -3.409514 0
M  V30 31 N -0.514843 -2.899323 -2.024363 0
M  V30 32 C -1.499147 -1.858886 -1.802779 0
M  V30 33 C -2.302236 -2.152860 -0.579470 0 CFG=2
M  V30 34 C -2.940182 -0.954439 0.065754 0
M  V30 35 H 3.720490 -1.223108 4.380400 0
M  V30 36 H 4.063570 -1.472993 2.667043 0
M  V30 37 H 4.013869 -2.851529 3.764054 0
M  V30 38 H 1.802821 -3.148768 3.437572 0
M  V30 39 H 1.509242 -1.418511 3.986063 0
M  V30 40 H 3.514136 -1.965713 0.769140 0
M  V30 41 H 2.565157 -3.447227 1.044004 0
M  V30 42 H 2.063144 -2.259822 -0.187069 0
M  V30 43 H 4.091487 0.476042 1.272442 0
M  V30 44 H 0.367266 3.468065 3.045217 0
M  V30 45 H -2.401200 6.756181 3.266041 0
M  V30 46 H -3.210869 6.452056 -0.957195 0
M  V30 47 H -0.192085 -0.470081 3.397200 0
M  V30 48 H -1.035666 0.133993 1.932995 0
M  V30 49 H -2.304158 -3.237792 1.228026 0
M  V30 50 H -0.852932 -5.135657 0.186694 0
M  V30 51 H -2.512560 -4.898827 -0.335398 0
M  V30 52 H -2.065055 -4.225951 -2.421555 0
M  V30 53 H 0.444700 -5.573471 -1.522543 0
M  V30 54 H -0.644449 -6.037100 -2.837421 0
M  V30 55 H 1.634863 -4.103590 -2.924506 0
M  V30 56 H 0.664526 -4.876866 -4.311454 0
M  V30 57 H 0.507794 -2.200230 -3.764085 0
M  V30 58 H -1.005217 -3.214745 -4.065100 0
M  V30 59 H -2.140485 -1.829925 -2.708688 0
M  V30 60 H -0.995264 -0.867877 -1.773044 0
M  V30 61 H -3.174836 -2.776288 -0.942925 0
M  V30 62 H -3.968283 -0.752417 -0.293719 0
M  V30 63 H -2.318559 -0.030491 -0.088942 0
M  V30 64 H -2.976112 -1.114058 1.169946 0
M  V30 END ATOM
M  V30 BEGIN BOND
M  V30 1 1 1 2
M  V30 2 1 2 3
M  V30 3 1 3 4
M  V30 4 1 3 5
M  V30 5 1 5 6
M  V30 6 1 6 7
M  V30 7 2 7 8
M  V30 8 1 8 9
M  V30 9 1 9 10
M  V30 10 2 10 11
M  V30 11 1 10 12
M  V30 12 2 12 13
M  V30 13 1 13 14
M  V30 14 2 14 15
M  V30 15 1 15 16
M  V30 16 1 15 17
M  V30 17 2 17 18
M  V30 18 1 18 19
M  V30 19 1 8 20
M  V30 20 1 20 21
M  V30 21 1 21 22
M  V30 22 1 22 23
M  V30 23 2 23 24
M  V30 24 1 23 25
M  V30 25 1 25 26
M  V30 26 1 26 27
M  V30 27 1 27 28
M  V30 28 1 28 29
M  V30 29 1 29 30
M  V30 30 1 30 31
M  V30 31 1 31 32
M  V30 32 1 32 33
M  V30 33 1 33 34
M  V30 34 1 22 3
M  V30 35 1 33 25
M  V30 36 2 20 5
M  V30 37 1 31 27
M  V30 38 1 18 12
M  V30 39 1 1 35
M  V30 40 1 1 36
M  V30 41 1 1 37
M  V30 42 1 2 38
M  V30 43 1 2 39
M  V30 44 1 4 40
M  V30 45 1 4 41
M  V30 46 1 4 42
M  V30 47 1 6 43
M  V30 48 1 9 44
M  V30 49 1 14 45
M  V30 50 1 17 46
M  V30 51 1 21 47
M  V30 52 1 21 48
M  V30 53 1 25 49
M  V30 54 1 26 50
M  V30 55 1 26 51
M  V30 56 1 27 52 CFG=3
M  V30 57 1 28 53
M  V30 58 1 28 54
M  V30 59 1 29 55
M  V30 60 1 29 56
M  V30 61 1 30 57
M  V30 62 1 30 58
M  V30 63 1 32 59
M  V30 64 1 32 60
M  V30 65 1 33 61 CFG=3
M  V30 66 1 34 62
M  V30 67 1 34 63
M  V30 68 1 34 64
M  V30 END BOND
M  V30 END CTAB
M  END
>  <Dataset>  (782) 
ChEMBL_Kinases

>  <Ligand_Instance>  (782) 
nan

>  <PDB_ID>  (782) 
nan

>  <Standardized_SMILES>  (782) 
CCC1(C)c2[nH]nc(NC(=O)c3ncc(F)cc3F)c2CN1C(=O)C1C[C@@H]2CCCN2C[C@@H]1C

>  <Name>  (782) 
nan

>  <Pocket>  (782) 
nan

>  <ATP_Site>  (782) 
nan

>  <Peripheral>  (782) 
nan

>  <Num_H_Atoms_ProtBoundConf>  (782) 
nan

>  <Num_Resolved_Atoms>  (782) 
nan

>  <Num_Not_Resolved_Atoms>  (782) 
nan

$$$$
CHEMBL3662797
     RDKit          3D

  0  0  0  0  0  0  0  0  0  0999 V3000
M  V30 BEGIN CTAB
M  V30 COUNTS 68 72 0 0 0
M  V30 BEGIN ATOM
M  V30 1 C 4.311638 0.444021 -1.307413 0
M  V30 2 C 3.802765 0.117663 0.049193 0 CFG=1
M  V30 3 C 4.550156 0.826470 1.154246 0
M  V30 4 N 3.941231 0.673726 2.434787 0
M  V30 5 C 3.616361 1.860558 3.138354 0
M  V30 6 C 2.321074 1.621025 3.874490 0
M  V30 7 C 2.089941 0.130481 3.750296 0
M  V30 8 C 2.953764 -0.312070 2.561788 0 CFG=1
M  V30 9 C 2.000857 -0.492322 1.412915 0
M  V30 10 N 2.401239 0.377054 0.291013 0
M  V30 11 C 1.654857 1.332146 -0.491086 0
M  V30 12 O 2.371336 1.910090 -1.378710 0
M  V30 13 N 0.273074 1.746527 -0.455289 0
M  V30 14 C -0.965783 1.480600 0.279196 0
M  V30 15 C -1.910937 1.216786 -0.831292 0
M  V30 16 C -3.032889 0.480397 -1.213357 0
M  V30 17 N -3.713455 -0.457915 -0.373298 0
M  V30 18 C -3.168553 -1.761391 -0.521356 0
M  V30 19 O -2.206400 -1.851363 -1.347443 0
M  V30 20 C -3.680485 -2.911175 0.223938 0
M  V30 21 C -3.077887 -4.135660 0.002478 0
M  V30 22 C -3.485236 -5.273016 0.651467 0
M  V30 23 N -2.856840 -6.527321 0.414141 0
M  V30 24 C -1.761189 -6.615782 -0.532607 0
M  V30 25 C -3.306520 -7.708881 1.111992 0
M  V30 26 C -4.528412 -5.185229 1.551149 0
M  V30 27 C -5.122547 -3.956744 1.764125 0
M  V30 28 N -4.706525 -2.849146 1.115036 0
M  V30 29 N -3.277274 0.863983 -2.484396 0
M  V30 30 N -2.390861 1.762671 -2.874776 0
M  V30 31 C -1.516735 2.015255 -1.876266 0
M  V30 32 C -0.312805 2.739009 -1.329350 0
M  V30 33 C -0.829732 3.959799 -0.621501 0
M  V30 34 C 0.542949 3.099996 -2.521390 0
M  V30 35 H 4.611244 1.499862 -1.469255 0
M  V30 36 H 3.619291 0.139781 -2.093006 0
M  V30 37 H 5.233543 -0.202984 -1.496793 0
M  V30 38 H 4.025472 -0.980773 0.217506 0
M  V30 39 H 4.571452 1.908262 0.906868 0
M  V30 40 H 5.603192 0.484228 1.226287 0
M  V30 41 H 4.400183 1.979715 3.943468 0
M  V30 42 H 3.651698 2.788785 2.560696 0
M  V30 43 H 2.377601 1.873315 4.959153 0
M  V30 44 H 1.474961 2.207333 3.459353 0
M  V30 45 H 2.353287 -0.407967 4.682220 0
M  V30 46 H 1.012615 -0.073475 3.581298 0
M  V30 47 H 3.429340 -1.280574 2.869452 0
M  V30 48 H 0.962180 -0.444391 1.678108 0
M  V30 49 H 2.164905 -1.541710 1.021152 0
M  V30 50 H -1.272794 2.418097 0.835476 0
M  V30 51 H -0.911794 0.672229 0.998496 0
M  V30 52 H -4.508628 -0.307576 0.289928 0
M  V30 53 H -2.257940 -4.201296 -0.705489 0
M  V30 54 H -1.152693 -7.547944 -0.343076 0
M  V30 55 H -1.017215 -5.793789 -0.411130 0
M  V30 56 H -2.125797 -6.717275 -1.579795 0
M  V30 57 H -2.514469 -8.504517 1.126534 0
M  V30 58 H -3.444004 -7.456784 2.194785 0
M  V30 59 H -4.230928 -8.105868 0.649992 0
M  V30 60 H -4.911756 -6.035587 2.105999 0
M  V30 61 H -5.947021 -3.833517 2.461521 0
M  V30 62 H -2.314964 2.247764 -3.799035 0
M  V30 63 H -0.592778 4.831575 -1.276721 0
M  V30 64 H -0.274905 4.090606 0.324537 0
M  V30 65 H -1.896385 3.883230 -0.393317 0
M  V30 66 H 1.382561 3.756023 -2.306171 0
M  V30 67 H 0.846452 2.205386 -3.061638 0
M  V30 68 H -0.143305 3.648729 -3.243708 0
M  V30 END ATOM
M  V30 BEGIN BOND
M  V30 1 1 1 2
M  V30 2 1 2 3
M  V30 3 1 3 4
M  V30 4 1 4 5
M  V30 5 1 5 6
M  V30 6 1 6 7
M  V30 7 1 7 8
M  V30 8 1 8 9
M  V30 9 1 9 10
M  V30 10 1 10 11
M  V30 11 2 11 12
M  V30 12 1 11 13
M  V30 13 1 13 14
M  V30 14 1 14 15
M  V30 15 1 15 16
M  V30 16 1 16 17
M  V30 17 1 17 18
M  V30 18 2 18 19
M  V30 19 1 18 20
M  V30 20 2 20 21
M  V30 21 1 21 22
M  V30 22 1 22 23
M  V30 23 1 23 24
M  V30 24 1 23 25
M  V30 25 2 22 26
M  V30 26 1 26 27
M  V30 27 2 27 28
M  V30 28 2 16 29
M  V30 29 1 29 30
M  V30 30 1 30 31
M  V30 31 1 31 32
M  V30 32 1 32 33
M  V30 33 1 32 34
M  V30 34 1 10 2
M  V30 35 1 32 13
M  V30 36 1 8 4
M  V30 37 2 31 15
M  V30 38 1 28 20
M  V30 39 1 1 35
M  V30 40 1 1 36
M  V30 41 1 1 37
M  V30 42 1 2 38 CFG=1
M  V30 43 1 3 39
M  V30 44 1 3 40
M  V30 45 1 5 41
M  V30 46 1 5 42
M  V30 47 1 6 43
M  V30 48 1 6 44
M  V30 49 1 7 45
M  V30 50 1 7 46
M  V30 51 1 8 47 CFG=1
M  V30 52 1 9 48
M  V30 53 1 9 49
M  V30 54 1 14 50
M  V30 55 1 14 51
M  V30 56 1 17 52
M  V30 57 1 21 53
M  V30 58 1 24 54
M  V30 59 1 24 55
M  V30 60 1 24 56
M  V30 61 1 25 57
M  V30 62 1 25 58
M  V30 63 1 25 59
M  V30 64 1 26 60
M  V30 65 1 27 61
M  V30 66 1 30 62
M  V30 67 1 33 63
M  V30 68 1 33 64
M  V30 69 1 33 65
M  V30 70 1 34 66
M  V30 71 1 34 67
M  V30 72 1 34 68
M  V30 END BOND
M  V30 END CTAB
M  END
>  <Dataset>  (783) 
ChEMBL_Kinases

>  <Ligand_Instance>  (783) 
nan

>  <PDB_ID>  (783) 
nan

>  <Standardized_SMILES>  (783) 
C[C@H]1CN2CCC[C@H]2CN1C(=O)N1Cc2c(NC(=O)c3cc(N(C)C)ccn3)n[nH]c2C1(C)C

>  <Name>  (783) 
nan

>  <Pocket>  (783) 
nan

>  <ATP_Site>  (783) 
nan

>  <Peripheral>  (783) 
nan

>  <Num_H_Atoms_ProtBoundConf>  (783) 
nan

>  <Num_Resolved_Atoms>  (783) 
nan

>  <Num_Not_Resolved_Atoms>  (783) 
nan

$$$$
CHEMBL3662798
     RDKit          3D

  0  0  0  0  0  0  0  0  0  0999 V3000
M  V30 BEGIN CTAB
M  V30 COUNTS 66 71 0 0 0
M  V30 BEGIN ATOM
M  V30 1 C 3.935033 2.435720 3.039963 0
M  V30 2 C 3.752671 1.555388 1.823092 0 CFG=1
M  V30 3 C 4.815954 0.546702 1.786416 0
M  V30 4 N 4.563923 -0.660179 1.038281 0
M  V30 5 C 5.070475 -1.835709 1.656553 0
M  V30 6 C 3.964357 -2.866813 1.646620 0
M  V30 7 C 3.030684 -2.333667 0.568815 0
M  V30 8 C 3.186985 -0.859634 0.743316 0 CFG=1
M  V30 9 C 2.426942 -0.391519 1.988339 0
M  V30 10 N 2.386613 1.066598 1.820409 0
M  V30 11 C 1.429023 2.118968 1.651541 0
M  V30 12 O 1.834835 3.316309 1.551484 0
M  V30 13 N -0.003260 2.012521 1.574496 0
M  V30 14 C -1.026799 0.970349 1.609394 0
M  V30 15 C -1.813351 1.285130 0.372068 0
M  V30 16 C -2.541178 0.719685 -0.657539 0
M  V30 17 N -2.814407 -0.667601 -0.883387 0
M  V30 18 C -3.582194 -1.095693 -1.993554 0
M  V30 19 O -4.034489 -0.233093 -2.800564 0
M  V30 20 C -3.832684 -2.537871 -2.176832 0
M  V30 21 C -4.590222 -2.915389 -3.276656 0
M  V30 22 C -4.834069 -4.246652 -3.463932 0
M  V30 23 C -4.363975 -5.229046 -2.613697 0
M  V30 24 C -4.615316 -6.553817 -2.813063 0
M  V30 25 C -4.070468 -7.411344 -1.866148 0
M  V30 26 C -3.315993 -7.031323 -0.771327 0
M  V30 27 C -3.099697 -5.686118 -0.628109 0
M  V30 28 C -3.618631 -4.773400 -1.543209 0
M  V30 29 N -3.348474 -3.475100 -1.311432 0
M  V30 30 N -2.935816 1.775059 -1.401444 0
M  V30 31 N -2.477626 2.911381 -0.859574 0
M  V30 32 C -1.766062 2.642226 0.259106 0
M  V30 33 C -0.956951 3.068692 1.432019 0
M  V30 34 C -1.855306 3.209018 2.648089 0
M  V30 35 C -0.350858 4.422755 1.108271 0
M  V30 36 H 4.043800 3.509494 2.802908 0
M  V30 37 H 4.838555 2.121390 3.626513 0
M  V30 38 H 3.088366 2.323004 3.733371 0
M  V30 39 H 3.835483 2.238068 0.925969 0
M  V30 40 H 5.152470 0.251286 2.803503 0
M  V30 41 H 5.732902 1.003458 1.319136 0
M  V30 42 H 5.503954 -1.681453 2.659802 0
M  V30 43 H 5.895001 -2.259265 1.027347 0
M  V30 44 H 3.414492 -2.910300 2.599030 0
M  V30 45 H 4.304811 -3.875890 1.362191 0
M  V30 46 H 1.979326 -2.618432 0.781662 0
M  V30 47 H 3.352403 -2.628789 -0.436912 0
M  V30 48 H 2.867280 -0.277243 -0.147874 0
M  V30 49 H 3.077563 -0.587144 2.867477 0
M  V30 50 H 1.460678 -0.866680 2.083836 0
M  V30 51 H -0.603556 -0.044133 1.481634 0
M  V30 52 H -1.599949 1.074886 2.528449 0
M  V30 53 H -2.426908 -1.346345 -0.200228 0
M  V30 54 H -4.968587 -2.144608 -3.958260 0
M  V30 55 H -5.423459 -4.556949 -4.317448 0
M  V30 56 H -5.189638 -6.898560 -3.638627 0
M  V30 57 H -4.248907 -8.480117 -1.989674 0
M  V30 58 H -2.942103 -7.786121 -0.098507 0
M  V30 59 H -2.503069 -5.377592 0.236608 0
M  V30 60 H -2.611945 3.901971 -1.198875 0
M  V30 61 H -1.338688 2.805275 3.534804 0
M  V30 62 H -2.794972 2.697094 2.432020 0
M  V30 63 H -2.093157 4.294611 2.771469 0
M  V30 64 H 0.281842 4.380812 0.224857 0
M  V30 65 H -1.233028 5.075719 0.868418 0
M  V30 66 H 0.156153 4.835722 1.974833 0
M  V30 END ATOM
M  V30 BEGIN BOND
M  V30 1 1 1 2
M  V30 2 1 2 3
M  V30 3 1 3 4
M  V30 4 1 4 5
M  V30 5 1 5 6
M  V30 6 1 6 7
M  V30 7 1 7 8
M  V30 8 1 8 9
M  V30 9 1 9 10
M  V30 10 1 10 11
M  V30 11 2 11 12
M  V30 12 1 11 13
M  V30 13 1 13 14
M  V30 14 1 14 15
M  V30 15 1 15 16
M  V30 16 1 16 17
M  V30 17 1 17 18
M  V30 18 2 18 19
M  V30 19 1 18 20
M  V30 20 2 20 21
M  V30 21 1 21 22
M  V30 22 2 22 23
M  V30 23 1 23 24
M  V30 24 2 24 25
M  V30 25 1 25 26
M  V30 26 2 26 27
M  V30 27 1 27 28
M  V30 28 2 28 29
M  V30 29 2 16 30
M  V30 30 1 30 31
M  V30 31 1 31 32
M  V30 32 1 32 33
M  V30 33 1 33 34
M  V30 34 1 33 35
M  V30 35 1 10 2
M  V30 36 1 33 13
M  V30 37 1 8 4
M  V30 38 2 32 15
M  V30 39 1 29 20
M  V30 40 1 28 23
M  V30 41 1 1 36
M  V30 42 1 1 37
M  V30 43 1 1 38
M  V30 44 1 2 39 CFG=3
M  V30 45 1 3 40
M  V30 46 1 3 41
M  V30 47 1 5 42
M  V30 48 1 5 43
M  V30 49 1 6 44
M  V30 50 1 6 45
M  V30 51 1 7 46
M  V30 52 1 7 47
M  V30 53 1 8 48 CFG=3
M  V30 54 1 9 49
M  V30 55 1 9 50
M  V30 56 1 14 51
M  V30 57 1 14 52
M  V30 58 1 17 53
M  V30 59 1 21 54
M  V30 60 1 22 55
M  V30 61 1 24 56
M  V30 62 1 25 57
M  V30 63 1 26 58
M  V30 64 1 27 59
M  V30 65 1 31 60
M  V30 66 1 34 61
M  V30 67 1 34 62
M  V30 68 1 34 63
M  V30 69 1 35 64
M  V30 70 1 35 65
M  V30 71 1 35 66
M  V30 END BOND
M  V30 END CTAB
M  END
>  <Dataset>  (784) 
ChEMBL_Kinases

>  <Ligand_Instance>  (784) 
nan

>  <PDB_ID>  (784) 
nan

>  <Standardized_SMILES>  (784) 
C[C@H]1CN2CCC[C@H]2CN1C(=O)N1Cc2c(NC(=O)c3ccc4ccccc4n3)n[nH]c2C1(C)C

>  <Name>  (784) 
nan

>  <Pocket>  (784) 
nan

>  <ATP_Site>  (784) 
nan

>  <Peripheral>  (784) 
nan

>  <Num_H_Atoms_ProtBoundConf>  (784) 
nan

>  <Num_Resolved_Atoms>  (784) 
nan

>  <Num_Not_Resolved_Atoms>  (784) 
nan

$$$$
CHEMBL3662799
     RDKit          3D

  0  0  0  0  0  0  0  0  0  0999 V3000
M  V30 BEGIN CTAB
M  V30 COUNTS 63 66 0 0 0
M  V30 BEGIN ATOM
M  V30 1 C 3.159480 4.053245 3.496640 0
M  V30 2 C 3.082655 2.734046 3.771415 0
M  V30 3 C 2.035065 1.760269 4.249774 0
M  V30 4 N 1.864137 0.722162 3.248363 0
M  V30 5 C 3.056601 -0.111901 3.181096 0
M  V30 6 C 2.787313 -1.359615 2.356160 0 CFG=2
M  V30 7 C 4.059768 -1.907896 1.815318 0
M  V30 8 N 1.779739 -1.070548 1.349948 0
M  V30 9 C 1.435840 -2.234039 0.619625 0
M  V30 10 O 2.193624 -3.058018 1.236455 0
M  V30 11 N 0.568147 -2.535662 -0.451484 0
M  V30 12 C -0.365246 -1.848689 -1.326900 0
M  V30 13 C -1.511410 -2.757501 -1.361547 0
M  V30 14 C -2.886634 -2.867446 -1.536564 0
M  V30 15 N -3.686561 -1.723084 -1.806910 0
M  V30 16 C -4.369489 -0.802393 -1.002868 0
M  V30 17 O -4.296735 -0.972886 0.223629 0
M  V30 18 C -5.115132 0.287149 -1.655969 0
M  V30 19 C -5.759533 1.150590 -0.798702 0
M  V30 20 C -6.471072 2.191534 -1.403889 0
M  V30 21 C -6.507451 2.322024 -2.797413 0
M  V30 22 C -5.827732 1.405952 -3.608269 0
M  V30 23 N -5.140560 0.399079 -3.002895 0
M  V30 24 N -3.179046 -4.175688 -1.398137 0
M  V30 25 N -2.052257 -4.856138 -1.149641 0
M  V30 26 C -1.021353 -4.022572 -1.121154 0
M  V30 27 C 0.468971 -3.895868 -0.934907 0
M  V30 28 C 0.942583 -4.939624 0.014722 0
M  V30 29 C 1.055592 -4.062099 -2.316828 0
M  V30 30 C 1.115858 0.162260 1.014934 0
M  V30 31 C 1.518869 1.237117 1.962377 0 CFG=1
M  V30 32 C 0.490809 2.345545 2.046488 0
M  V30 33 H 3.161368 5.096028 3.295843 0
M  V30 34 H 2.131431 4.338012 3.741344 0
M  V30 35 H 4.077961 2.353679 3.567713 0
M  V30 36 H 2.442079 1.281038 5.166860 0
M  V30 37 H 1.133165 2.295306 4.521497 0
M  V30 38 H 3.928575 0.457222 2.831412 0
M  V30 39 H 3.267567 -0.440526 4.219345 0
M  V30 40 H 2.340123 -2.106081 3.041984 0
M  V30 41 H 4.900147 -1.276303 2.186834 0
M  V30 42 H 4.296729 -2.926414 2.220036 0
M  V30 43 H 4.138511 -1.849631 0.709201 0
M  V30 44 H -0.586506 -0.842970 -0.957304 0
M  V30 45 H 0.090573 -1.840600 -2.346800 0
M  V30 46 H -3.732020 -1.602656 -2.862851 0
M  V30 47 H -5.749163 1.074785 0.274158 0
M  V30 48 H -6.981754 2.878871 -0.766928 0
M  V30 49 H -7.072295 3.145911 -3.230464 0
M  V30 50 H -5.853680 1.503583 -4.683896 0
M  V30 51 H -1.973246 -5.898604 -0.996234 0
M  V30 52 H 0.570873 -4.716873 1.022555 0
M  V30 53 H 0.576952 -5.913982 -0.374659 0
M  V30 54 H 2.044849 -5.005330 -0.029488 0
M  V30 55 H 1.973791 -3.507077 -2.500644 0
M  V30 56 H 0.313341 -3.724572 -3.093999 0
M  V30 57 H 1.171502 -5.159966 -2.503829 0
M  V30 58 H 0.014722 -0.020652 1.196302 0
M  V30 59 H 1.244188 0.437854 -0.052336 0
M  V30 60 H 2.461529 1.708694 1.560741 0
M  V30 61 H -0.230679 2.151617 1.196227 0
M  V30 62 H -0.138607 2.312205 2.945751 0
M  V30 63 H 0.957673 3.295557 1.809050 0
M  V30 END ATOM
M  V30 BEGIN BOND
M  V30 1 2 1 2
M  V30 2 1 2 3
M  V30 3 1 3 4
M  V30 4 1 4 5
M  V30 5 1 5 6
M  V30 6 1 6 7
M  V30 7 1 6 8
M  V30 8 1 8 9
M  V30 9 2 9 10
M  V30 10 1 9 11
M  V30 11 1 11 12
M  V30 12 1 12 13
M  V30 13 1 13 14
M  V30 14 1 14 15
M  V30 15 1 15 16
M  V30 16 2 16 17
M  V30 17 1 16 18
M  V30 18 2 18 19
M  V30 19 1 19 20
M  V30 20 2 20 21
M  V30 21 1 21 22
M  V30 22 2 22 23
M  V30 23 2 14 24
M  V30 24 1 24 25
M  V30 25 1 25 26
M  V30 26 1 26 27
M  V30 27 1 27 28
M  V30 28 1 27 29
M  V30 29 1 8 30
M  V30 30 1 30 31
M  V30 31 1 31 32
M  V30 32 1 31 4
M  V30 33 1 27 11
M  V30 34 2 26 13
M  V30 35 1 23 18
M  V30 36 1 1 33
M  V30 37 1 1 34
M  V30 38 1 2 35
M  V30 39 1 3 36
M  V30 40 1 3 37
M  V30 41 1 5 38
M  V30 42 1 5 39
M  V30 43 1 6 40 CFG=1
M  V30 44 1 7 41
M  V30 45 1 7 42
M  V30 46 1 7 43
M  V30 47 1 12 44
M  V30 48 1 12 45
M  V30 49 1 15 46
M  V30 50 1 19 47
M  V30 51 1 20 48
M  V30 52 1 21 49
M  V30 53 1 22 50
M  V30 54 1 25 51
M  V30 55 1 28 52
M  V30 56 1 28 53
M  V30 57 1 28 54
M  V30 58 1 29 55
M  V30 59 1 29 56
M  V30 60 1 29 57
M  V30 61 1 30 58
M  V30 62 1 30 59
M  V30 63 1 31 60 CFG=3
M  V30 64 1 32 61
M  V30 65 1 32 62
M  V30 66 1 32 63
M  V30 END BOND
M  V30 END CTAB
M  END
>  <Dataset>  (785) 
ChEMBL_Kinases

>  <Ligand_Instance>  (785) 
nan

>  <PDB_ID>  (785) 
nan

>  <Standardized_SMILES>  (785) 
C=CCN1C[C@H](C)N(C(=O)N2Cc3c(NC(=O)c4ccccn4)n[nH]c3C2(C)C)C[C@H]1C

>  <Name>  (785) 
nan

>  <Pocket>  (785) 
nan

>  <ATP_Site>  (785) 
nan

>  <Peripheral>  (785) 
nan

>  <Num_H_Atoms_ProtBoundConf>  (785) 
nan

>  <Num_Resolved_Atoms>  (785) 
nan

>  <Num_Not_Resolved_Atoms>  (785) 
nan

$$$$
CHEMBL3662791
     RDKit          3D

  0  0  0  0  0  0  0  0  0  0999 V3000
M  V30 BEGIN CTAB
M  V30 COUNTS 59 62 0 0 0
M  V30 BEGIN ATOM
M  V30 1 C -0.664032 -4.800211 3.202812 0
M  V30 2 C 0.266925 -3.693003 2.752926 0
M  V30 3 C 0.524829 -3.885279 1.283873 0
M  V30 4 C 1.448634 -2.829499 0.722158 0
M  V30 5 N 1.364974 -2.896850 -0.738082 0
M  V30 6 C 0.883947 -2.104071 -1.851705 0
M  V30 7 O 1.039116 -2.596937 -3.013812 0
M  V30 8 N 0.253113 -0.814142 -1.706276 0
M  V30 9 C -0.036029 -0.054238 -0.503839 0
M  V30 10 C -0.719046 1.153618 -0.994024 0
M  V30 11 C -1.307314 2.315058 -0.536103 0
M  V30 12 N -1.493851 2.844836 0.774800 0
M  V30 13 C -0.638561 3.708658 1.548121 0
M  V30 14 O 0.463343 4.121995 1.103344 0
M  V30 15 C -1.163526 4.049327 2.867479 0
M  V30 16 C -0.375860 4.879504 3.652014 0
M  V30 17 C -0.777896 5.267395 4.924353 0
M  V30 18 C -1.997423 4.779248 5.352650 0
M  V30 19 C -2.790797 3.951091 4.578937 0
M  V30 20 N -2.355080 3.614098 3.371928 0
M  V30 21 N -1.741379 2.973946 -1.626344 0
M  V30 22 N -1.440681 2.260697 -2.722970 0
M  V30 23 C -0.809817 1.132913 -2.365599 0
M  V30 24 C -0.190717 -0.096558 -2.905601 0
M  V30 25 C -1.154480 -0.967640 -3.647747 0
M  V30 26 C 0.977124 0.343431 -3.746464 0
M  V30 27 C 1.967431 -4.172892 -1.072128 0
M  V30 28 C 1.339899 -5.349149 -0.396618 0
M  V30 29 N 1.076987 -5.164561 0.990547 0
M  V30 30 C 2.236298 -5.519098 1.752120 0
M  V30 31 H -0.442192 -5.714333 2.606655 0
M  V30 32 H -1.700357 -4.475344 2.914523 0
M  V30 33 H -0.570445 -5.036405 4.269695 0
M  V30 34 H -0.141225 -2.691273 2.939211 0
M  V30 35 H 1.185125 -3.786749 3.366727 0
M  V30 36 H -0.430312 -3.781419 0.751936 0
M  V30 37 H 1.099039 -1.886154 1.145332 0
M  V30 38 H 2.511079 -2.971214 1.038687 0
M  V30 39 H -0.654576 -0.600369 0.234071 0
M  V30 40 H 0.934742 0.166277 -0.019275 0
M  V30 41 H -2.408022 2.482630 1.104012 0
M  V30 42 H 0.576094 5.254818 3.305938 0
M  V30 43 H -0.154780 5.917239 5.530873 0
M  V30 44 H -2.327295 5.069876 6.339430 0
M  V30 45 H -3.745080 3.568430 4.912612 0
M  V30 46 H -1.677797 2.569211 -3.688798 0
M  V30 47 H -1.556569 -1.744538 -2.961638 0
M  V30 48 H -2.034443 -0.317377 -3.898319 0
M  V30 49 H -0.751321 -1.418783 -4.573462 0
M  V30 50 H 1.219987 1.400467 -3.630400 0
M  V30 51 H 0.735206 0.113090 -4.805696 0
M  V30 52 H 1.833919 -0.331668 -3.494968 0
M  V30 53 H 1.986452 -4.335818 -2.172231 0
M  V30 54 H 3.032177 -4.126121 -0.768303 0
M  V30 55 H 1.937254 -6.272605 -0.518914 0
M  V30 56 H 0.368098 -5.558698 -0.927025 0
M  V30 57 H 3.006529 -6.063986 1.171853 0
M  V30 58 H 2.746325 -4.673999 2.226315 0
M  V30 59 H 1.905123 -6.221809 2.559957 0
M  V30 END ATOM
M  V30 BEGIN BOND
M  V30 1 1 1 2
M  V30 2 1 2 3
M  V30 3 1 3 4
M  V30 4 1 4 5
M  V30 5 1 5 6
M  V30 6 2 6 7
M  V30 7 1 6 8
M  V30 8 1 8 9
M  V30 9 1 9 10
M  V30 10 1 10 11
M  V30 11 1 11 12
M  V30 12 1 12 13
M  V30 13 2 13 14
M  V30 14 1 13 15
M  V30 15 2 15 16
M  V30 16 1 16 17
M  V30 17 2 17 18
M  V30 18 1 18 19
M  V30 19 2 19 20
M  V30 20 2 11 21
M  V30 21 1 21 22
M  V30 22 1 22 23
M  V30 23 1 23 24
M  V30 24 1 24 25
M  V30 25 1 24 26
M  V30 26 1 5 27
M  V30 27 1 27 28
M  V30 28 1 28 29
M  V30 29 1 29 30
M  V30 30 1 29 3
M  V30 31 1 24 8
M  V30 32 2 23 10
M  V30 33 1 20 15
M  V30 34 1 1 31
M  V30 35 1 1 32
M  V30 36 1 1 33
M  V30 37 1 2 34
M  V30 38 1 2 35
M  V30 39 1 3 36
M  V30 40 1 4 37
M  V30 41 1 4 38
M  V30 42 1 9 39
M  V30 43 1 9 40
M  V30 44 1 12 41
M  V30 45 1 16 42
M  V30 46 1 17 43
M  V30 47 1 18 44
M  V30 48 1 19 45
M  V30 49 1 22 46
M  V30 50 1 25 47
M  V30 51 1 25 48
M  V30 52 1 25 49
M  V30 53 1 26 50
M  V30 54 1 26 51
M  V30 55 1 26 52
M  V30 56 1 27 53
M  V30 57 1 27 54
M  V30 58 1 28 55
M  V30 59 1 28 56
M  V30 60 1 30 57
M  V30 61 1 30 58
M  V30 62 1 30 59
M  V30 END BOND
M  V30 END CTAB
M  END
>  <Dataset>  (786) 
ChEMBL_Kinases

>  <Ligand_Instance>  (786) 
nan

>  <PDB_ID>  (786) 
nan

>  <Standardized_SMILES>  (786) 
CCC1CN(C(=O)N2Cc3c(NC(=O)c4ccccn4)n[nH]c3C2(C)C)CCN1C

>  <Name>  (786) 
nan

>  <Pocket>  (786) 
nan

>  <ATP_Site>  (786) 
nan

>  <Peripheral>  (786) 
nan

>  <Num_H_Atoms_ProtBoundConf>  (786) 
nan

>  <Num_Resolved_Atoms>  (786) 
nan

>  <Num_Not_Resolved_Atoms>  (786) 
nan

$$$$
CHEMBL3661307
     RDKit          3D

  0  0  0  0  0  0  0  0  0  0999 V3000
M  V30 BEGIN CTAB
M  V30 COUNTS 46 50 0 0 0
M  V30 BEGIN ATOM
M  V30 1 C -3.567227 -3.455957 0.515304 0
M  V30 2 O -2.309527 -3.504845 0.189611 0
M  V30 3 C -1.088232 -3.467458 -0.124554 0
M  V30 4 C -0.387765 -2.290156 -0.276857 0
M  V30 5 C 0.928149 -2.168770 -0.613306 0
M  V30 6 C 1.612116 -0.907504 -0.759672 0
M  V30 7 C 2.644728 -0.893944 -1.699912 0
M  V30 8 C 3.396397 0.242072 -1.954317 0
M  V30 9 C 3.051006 1.353637 -1.213717 0
M  V30 10 N 3.739141 2.481349 -1.412332 0
M  V30 11 C 3.465839 3.606130 -0.731795 0
M  V30 12 N 2.480605 3.625473 0.177537 0
M  V30 13 C 1.735255 2.515556 0.435336 0
M  V30 14 N 0.733609 2.622304 1.393910 0
M  V30 15 C -0.278643 1.958478 2.064086 0
M  V30 16 C -1.571411 1.917185 1.616726 0
M  V30 17 F -1.855465 2.574402 0.453651 0
M  V30 18 C -2.630316 1.257565 2.251014 0
M  V30 19 C -2.274351 0.618269 3.414732 0
M  V30 20 C -1.018603 0.578955 3.976573 0
M  V30 21 N -0.445169 0.040696 5.065366 0
M  V30 22 N 0.846317 0.350480 5.082994 0
M  V30 23 C 1.112603 1.087406 4.010204 0
M  V30 24 C -0.056214 1.265791 3.260328 0
M  V30 25 C 2.052207 1.388780 -0.285743 0
M  V30 26 C 1.340422 0.241884 -0.072078 0
M  V30 27 C 1.585722 -3.383243 -0.812014 0
M  V30 28 C 0.989571 -4.614085 -0.687847 0
M  V30 29 C -0.347705 -4.633841 -0.343466 0
M  V30 30 O -0.964377 -5.872145 -0.214096 0
M  V30 31 H -3.700039 -2.983292 1.548454 0
M  V30 32 H -4.222071 -2.850274 -0.191198 0
M  V30 33 H -4.101513 -4.444460 0.650044 0
M  V30 34 H -0.931883 -1.361525 -0.114134 0
M  V30 35 H 2.919648 -1.772394 -2.287162 0
M  V30 36 H 4.183193 0.236073 -2.676873 0
M  V30 37 H 4.007817 4.553151 -0.865602 0
M  V30 38 H 0.559469 3.516882 1.900232 0
M  V30 39 H -3.634816 1.255140 1.856821 0
M  V30 40 H -3.073976 0.095965 3.931985 0
M  V30 41 H -1.035030 -0.511316 5.715199 0
M  V30 42 H 2.104911 1.471705 3.789202 0
M  V30 43 H 0.554738 0.207415 0.633852 0
M  V30 44 H 2.626002 -3.392162 -1.080184 0
M  V30 45 H 1.515274 -5.541027 -0.845618 0
M  V30 46 H -1.802113 -6.060816 -0.782784 0
M  V30 END ATOM
M  V30 BEGIN BOND
M  V30 1 1 1 2
M  V30 2 1 2 3
M  V30 3 2 3 4
M  V30 4 1 4 5
M  V30 5 1 5 6
M  V30 6 2 6 7
M  V30 7 1 7 8
M  V30 8 2 8 9
M  V30 9 1 9 10
M  V30 10 2 10 11
M  V30 11 1 11 12
M  V30 12 2 12 13
M  V30 13 1 13 14
M  V30 14 1 14 15
M  V30 15 2 15 16
M  V30 16 1 16 17
M  V30 17 1 16 18
M  V30 18 2 18 19
M  V30 19 1 19 20
M  V30 20 1 20 21
M  V30 21 1 21 22
M  V30 22 2 22 23
M  V30 23 1 23 24
M  V30 24 1 13 25
M  V30 25 2 25 26
M  V30 26 2 5 27
M  V30 27 1 27 28
M  V30 28 2 28 29
M  V30 29 1 29 30
M  V30 30 1 29 3
M  V30 31 1 26 6
M  V30 32 1 25 9
M  V30 33 1 24 15
M  V30 34 2 24 20
M  V30 35 1 1 31
M  V30 36 1 1 32
M  V30 37 1 1 33
M  V30 38 1 4 34
M  V30 39 1 7 35
M  V30 40 1 8 36
M  V30 41 1 11 37
M  V30 42 1 14 38
M  V30 43 1 18 39
M  V30 44 1 19 40
M  V30 45 1 21 41
M  V30 46 1 23 42
M  V30 47 1 26 43
M  V30 48 1 27 44
M  V30 49 1 28 45
M  V30 50 1 30 46
M  V30 END BOND
M  V30 END CTAB
M  END
>  <Dataset>  (787) 
ChEMBL_Kinases

>  <Ligand_Instance>  (787) 
nan

>  <PDB_ID>  (787) 
nan

>  <Standardized_SMILES>  (787) 
COc1cc(-c2ccc3ncnc(Nc4c(F)ccc5[nH]ncc45)c3c2)ccc1O

>  <Name>  (787) 
nan

>  <Pocket>  (787) 
nan

>  <ATP_Site>  (787) 
nan

>  <Peripheral>  (787) 
nan

>  <Num_H_Atoms_ProtBoundConf>  (787) 
nan

>  <Num_Resolved_Atoms>  (787) 
nan

>  <Num_Not_Resolved_Atoms>  (787) 
nan

$$$$
CHEMBL3661306
     RDKit          3D

  0  0  0  0  0  0  0  0  0  0999 V3000
M  V30 BEGIN CTAB
M  V30 COUNTS 43 46 0 0 0
M  V30 BEGIN ATOM
M  V30 1 C -2.820835 -5.354399 0.086906 0
M  V30 2 O -1.860610 -5.272090 1.098174 0
M  V30 3 C -0.862138 -4.346748 1.184777 0
M  V30 4 C -0.614006 -3.320602 0.315370 0
M  V30 5 C 0.424449 -2.435318 0.482810 0
M  V30 6 C 0.648017 -1.363555 -0.477100 0
M  V30 7 C 0.360194 -1.470635 -1.814749 0
M  V30 8 C 0.563724 -0.454297 -2.739426 0
M  V30 9 C 1.088439 0.746884 -2.293027 0
M  V30 10 N 1.318805 1.805657 -3.108087 0
M  V30 11 C 1.827883 2.949777 -2.589680 0
M  V30 12 N 2.104733 3.040268 -1.273637 0
M  V30 13 C 1.887318 2.005378 -0.437320 0
M  V30 14 N 2.241207 2.353274 0.904679 0
M  V30 15 C 1.457404 2.501393 2.108261 0
M  V30 16 C 1.418126 1.749070 3.261045 0
M  V30 17 F 2.307299 0.734894 3.295300 0
M  V30 18 C 0.524888 2.092859 4.255406 0
M  V30 19 C -0.350272 3.160992 4.175936 0
M  V30 20 C -0.299387 3.911675 3.009185 0
M  V30 21 C 0.587126 3.590305 1.993141 0
M  V30 22 F 0.471182 4.450701 0.961934 0
M  V30 23 C 1.377218 0.855979 -0.951907 0
M  V30 24 C 1.169734 -0.151276 -0.072943 0
M  V30 25 C 1.213055 -2.639039 1.590470 0
M  V30 26 C 1.046349 -3.645252 2.529573 0
M  V30 27 C -0.033125 -4.506678 2.288023 0
M  V30 28 O -0.224319 -5.520043 3.205643 0
M  V30 29 H -3.834843 -5.513519 0.502213 0
M  V30 30 H -2.558480 -6.193301 -0.631861 0
M  V30 31 H -2.841832 -4.447255 -0.517593 0
M  V30 32 H -1.259944 -3.196648 -0.539259 0
M  V30 33 H -0.052496 -2.400348 -2.194353 0
M  V30 34 H 0.329492 -0.573609 -3.771527 0
M  V30 35 H 1.997881 3.774463 -3.275315 0
M  V30 36 H 3.258996 2.537677 1.029993 0
M  V30 37 H 0.568533 1.435985 5.128601 0
M  V30 38 H -1.018420 3.358848 5.007882 0
M  V30 39 H -1.007542 4.729065 3.015449 0
M  V30 40 H 1.401859 -0.041492 0.972959 0
M  V30 41 H 2.030244 -1.955786 1.740798 0
M  V30 42 H 1.689435 -3.768811 3.383602 0
M  V30 43 H 0.299626 -5.593827 4.048445 0
M  V30 END ATOM
M  V30 BEGIN BOND
M  V30 1 1 1 2
M  V30 2 1 2 3
M  V30 3 2 3 4
M  V30 4 1 4 5
M  V30 5 1 5 6
M  V30 6 2 6 7
M  V30 7 1 7 8
M  V30 8 2 8 9
M  V30 9 1 9 10
M  V30 10 2 10 11
M  V30 11 1 11 12
M  V30 12 2 12 13
M  V30 13 1 13 14
M  V30 14 1 14 15
M  V30 15 2 15 16
M  V30 16 1 16 17
M  V30 17 1 16 18
M  V30 18 2 18 19
M  V30 19 1 19 20
M  V30 20 2 20 21
M  V30 21 1 21 22
M  V30 22 1 13 23
M  V30 23 2 23 24
M  V30 24 2 5 25
M  V30 25 1 25 26
M  V30 26 2 26 27
M  V30 27 1 27 28
M  V30 28 1 27 3
M  V30 29 1 24 6
M  V30 30 1 23 9
M  V30 31 1 21 15
M  V30 32 1 1 29
M  V30 33 1 1 30
M  V30 34 1 1 31
M  V30 35 1 4 32
M  V30 36 1 7 33
M  V30 37 1 8 34
M  V30 38 1 11 35
M  V30 39 1 14 36
M  V30 40 1 18 37
M  V30 41 1 19 38
M  V30 42 1 20 39
M  V30 43 1 24 40
M  V30 44 1 25 41
M  V30 45 1 26 42
M  V30 46 1 28 43
M  V30 END BOND
M  V30 END CTAB
M  END
>  <Dataset>  (788) 
ChEMBL_Kinases

>  <Ligand_Instance>  (788) 
nan

>  <PDB_ID>  (788) 
nan

>  <Standardized_SMILES>  (788) 
COc1cc(-c2ccc3ncnc(Nc4c(F)cccc4F)c3c2)ccc1O

>  <Name>  (788) 
nan

>  <Pocket>  (788) 
nan

>  <ATP_Site>  (788) 
nan

>  <Peripheral>  (788) 
nan

>  <Num_H_Atoms_ProtBoundConf>  (788) 
nan

>  <Num_Resolved_Atoms>  (788) 
nan

>  <Num_Not_Resolved_Atoms>  (788) 
nan

$$$$
CHEMBL3661305
     RDKit          3D

  0  0  0  0  0  0  0  0  0  0999 V3000
M  V30 BEGIN CTAB
M  V30 COUNTS 39 42 0 0 0
M  V30 BEGIN ATOM
M  V30 1 O 4.256875 -4.051963 3.087758 0
M  V30 2 C 3.915393 -2.938256 2.340201 0
M  V30 3 C 4.407888 -2.681026 1.081385 0
M  V30 4 C 4.117370 -1.602325 0.280817 0
M  V30 5 C 3.233130 -0.710549 0.843145 0
M  V30 6 C 2.660012 -0.836179 2.090178 0
M  V30 7 N 1.752960 0.102955 2.641897 0
M  V30 8 C 1.361684 1.264648 1.939787 0
M  V30 9 N 2.160845 2.327206 2.144128 0
M  V30 10 C 1.937266 3.517188 1.558618 0
M  V30 11 N 0.871245 3.622924 0.745000 0
M  V30 12 C 0.036586 2.593478 0.503036 0
M  V30 13 C -1.066556 2.665671 -0.323616 0
M  V30 14 C -1.909247 1.596755 -0.555571 0
M  V30 15 C -1.594844 0.420075 0.091002 0
M  V30 16 C -2.500063 -0.719667 -0.157633 0
M  V30 17 C -3.831174 -0.405991 -0.386385 0
M  V30 18 C -4.794745 -1.385401 -0.634753 0
M  V30 19 C -4.371953 -2.711843 -0.646354 0
M  V30 20 C -3.031027 -3.020837 -0.415485 0
M  V30 21 C -2.089282 -2.040024 -0.171057 0
M  V30 22 C -0.521209 0.227955 0.938864 0
M  V30 23 C 0.249508 1.361727 1.095551 0
M  V30 24 C 3.030892 -1.960996 2.795682 0
M  V30 25 H 4.336779 -4.935637 2.572346 0
M  V30 26 H 5.111111 -3.428089 0.681041 0
M  V30 27 H 4.547282 -1.473183 -0.698596 0
M  V30 28 H 2.940107 0.185437 0.276684 0
M  V30 29 H 1.367350 -0.064242 3.580309 0
M  V30 30 H 2.536842 4.409585 1.678042 0
M  V30 31 H -1.278047 3.603479 -0.810530 0
M  V30 32 H -2.751561 1.691657 -1.200969 0
M  V30 33 H -4.270227 0.586735 -0.400865 0
M  V30 34 H -5.834340 -1.187630 -0.816926 0
M  V30 35 H -5.009545 -3.567615 -0.824884 0
M  V30 36 H -2.659776 -4.043511 -0.416229 0
M  V30 37 H -1.057870 -2.250466 0.008747 0
M  V30 38 H -0.283658 -0.679635 1.433484 0
M  V30 39 H 2.610965 -2.123213 3.798267 0
M  V30 END ATOM
M  V30 BEGIN BOND
M  V30 1 1 1 2
M  V30 2 2 2 3
M  V30 3 1 3 4
M  V30 4 2 4 5
M  V30 5 1 5 6
M  V30 6 1 6 7
M  V30 7 1 7 8
M  V30 8 2 8 9
M  V30 9 1 9 10
M  V30 10 2 10 11
M  V30 11 1 11 12
M  V30 12 2 12 13
M  V30 13 1 13 14
M  V30 14 2 14 15
M  V30 15 1 15 16
M  V30 16 2 16 17
M  V30 17 1 17 18
M  V30 18 2 18 19
M  V30 19 1 19 20
M  V30 20 2 20 21
M  V30 21 1 15 22
M  V30 22 2 22 23
M  V30 23 2 6 24
M  V30 24 1 24 2
M  V30 25 1 23 8
M  V30 26 1 23 12
M  V30 27 1 21 16
M  V30 28 1 1 25
M  V30 29 1 3 26
M  V30 30 1 4 27
M  V30 31 1 5 28
M  V30 32 1 7 29
M  V30 33 1 10 30
M  V30 34 1 13 31
M  V30 35 1 14 32
M  V30 36 1 17 33
M  V30 37 1 18 34
M  V30 38 1 19 35
M  V30 39 1 20 36
M  V30 40 1 21 37
M  V30 41 1 22 38
M  V30 42 1 24 39
M  V30 END BOND
M  V30 END CTAB
M  END
>  <Dataset>  (789) 
ChEMBL_Kinases

>  <Ligand_Instance>  (789) 
nan

>  <PDB_ID>  (789) 
nan

>  <Standardized_SMILES>  (789) 
Oc1cccc(Nc2ncnc3ccc(-c4ccccc4)cc23)c1

>  <Name>  (789) 
nan

>  <Pocket>  (789) 
nan

>  <ATP_Site>  (789) 
nan

>  <Peripheral>  (789) 
nan

>  <Num_H_Atoms_ProtBoundConf>  (789) 
nan

>  <Num_Resolved_Atoms>  (789) 
nan

>  <Num_Not_Resolved_Atoms>  (789) 
nan

$$$$
CHEMBL3661304
     RDKit          3D

  0  0  0  0  0  0  0  0  0  0999 V3000
M  V30 BEGIN CTAB
M  V30 COUNTS 42 46 0 0 0
M  V30 BEGIN ATOM
M  V30 1 O 1.327858 -6.028982 2.514685 0
M  V30 2 C 1.100082 -4.986486 1.604701 0
M  V30 3 C 0.286710 -5.140725 0.499842 0
M  V30 4 C 0.089454 -4.076834 -0.376656 0
M  V30 5 C 0.712579 -2.872352 -0.130956 0
M  V30 6 C 0.595847 -1.685224 -0.969568 0
M  V30 7 C 0.430622 -1.956210 -2.322723 0
M  V30 8 C 0.318600 -0.869685 -3.168234 0
M  V30 9 C 0.371713 0.421453 -2.661191 0
M  V30 10 N 0.283015 1.479587 -3.446998 0
M  V30 11 C 0.344087 2.722608 -2.992987 0
M  V30 12 N 0.501821 2.935635 -1.682508 0
M  V30 13 C 0.603052 1.931401 -0.787498 0
M  V30 14 N 0.770490 2.269168 0.565884 0
M  V30 15 C 0.756169 1.826504 1.885513 0
M  V30 16 C 1.817026 1.775499 2.783975 0
M  V30 17 C 1.600972 1.330844 4.070951 0
M  V30 18 C 0.338116 0.940844 4.459978 0
M  V30 19 C -0.748978 0.971312 3.611373 0
M  V30 20 N -2.039751 0.643538 3.778921 0
M  V30 21 N -2.658877 0.871267 2.614513 0
M  V30 22 C -1.778244 1.334925 1.722840 0
M  V30 23 C -0.518505 1.419756 2.319617 0
M  V30 24 C 0.532764 0.671087 -1.331904 0
M  V30 25 C 0.645507 -0.402677 -0.487725 0
M  V30 26 C 1.534063 -2.701855 0.976374 0
M  V30 27 C 1.726504 -3.756885 1.841046 0
M  V30 28 H 1.646696 -5.792181 3.455087 0
M  V30 29 H -0.202777 -6.091729 0.309747 0
M  V30 30 H -0.539883 -4.147347 -1.257871 0
M  V30 31 H 0.377186 -2.915842 -2.806375 0
M  V30 32 H 0.188558 -0.985834 -4.235667 0
M  V30 33 H 0.275689 3.629922 -3.610468 0
M  V30 34 H 1.016253 3.279299 0.782248 0
M  V30 35 H 2.771357 2.102179 2.390248 0
M  V30 36 H 2.453289 1.303173 4.748608 0
M  V30 37 H 0.186535 0.594065 5.475782 0
M  V30 38 H -2.467213 0.273684 4.679313 0
M  V30 39 H -1.990867 1.606913 0.698166 0
M  V30 40 H 0.788616 -0.275377 0.563467 0
M  V30 41 H 2.056803 -1.784958 1.236301 0
M  V30 42 H 2.361957 -3.656026 2.711863 0
M  V30 END ATOM
M  V30 BEGIN BOND
M  V30 1 1 1 2
M  V30 2 2 2 3
M  V30 3 1 3 4
M  V30 4 2 4 5
M  V30 5 1 5 6
M  V30 6 2 6 7
M  V30 7 1 7 8
M  V30 8 2 8 9
M  V30 9 1 9 10
M  V30 10 2 10 11
M  V30 11 1 11 12
M  V30 12 2 12 13
M  V30 13 1 13 14
M  V30 14 1 14 15
M  V30 15 2 15 16
M  V30 16 1 16 17
M  V30 17 2 17 18
M  V30 18 1 18 19
M  V30 19 1 19 20
M  V30 20 1 20 21
M  V30 21 2 21 22
M  V30 22 1 22 23
M  V30 23 1 13 24
M  V30 24 2 24 25
M  V30 25 1 5 26
M  V30 26 2 26 27
M  V30 27 1 27 2
M  V30 28 1 25 6
M  V30 29 1 24 9
M  V30 30 1 23 15
M  V30 31 2 23 19
M  V30 32 1 1 28
M  V30 33 1 3 29
M  V30 34 1 4 30
M  V30 35 1 7 31
M  V30 36 1 8 32
M  V30 37 1 11 33
M  V30 38 1 14 34
M  V30 39 1 16 35
M  V30 40 1 17 36
M  V30 41 1 18 37
M  V30 42 1 20 38
M  V30 43 1 22 39
M  V30 44 1 25 40
M  V30 45 1 26 41
M  V30 46 1 27 42
M  V30 END BOND
M  V30 END CTAB
M  END
>  <Dataset>  (790) 
ChEMBL_Kinases

>  <Ligand_Instance>  (790) 
nan

>  <PDB_ID>  (790) 
nan

>  <Standardized_SMILES>  (790) 
Oc1ccc(-c2ccc3ncnc(Nc4cccc5[nH]ncc45)c3c2)cc1

>  <Name>  (790) 
nan

>  <Pocket>  (790) 
nan

>  <ATP_Site>  (790) 
nan

>  <Peripheral>  (790) 
nan

>  <Num_H_Atoms_ProtBoundConf>  (790) 
nan

>  <Num_Resolved_Atoms>  (790) 
nan

>  <Num_Not_Resolved_Atoms>  (790) 
nan

$$$$
CHEMBL3661303
     RDKit          3D

  0  0  0  0  0  0  0  0  0  0999 V3000
M  V30 BEGIN CTAB
M  V30 COUNTS 51 54 0 0 0
M  V30 BEGIN ATOM
M  V30 1 C 0.559043 -2.473435 4.634501 0
M  V30 2 O 0.873107 -3.593912 3.839707 0
M  V30 3 C 1.497362 -3.460921 2.612038 0
M  V30 4 C 1.903038 -2.307223 1.977100 0
M  V30 5 C 2.525153 -2.315282 0.729915 0
M  V30 6 C 2.881907 -0.991171 0.174390 0
M  V30 7 C 3.957401 -0.714527 -0.642456 0
M  V30 8 C 4.165304 0.581320 -1.097462 0
M  V30 9 C 3.320247 1.628337 -0.758642 0
M  V30 10 N 3.512667 2.867577 -1.197949 0
M  V30 11 C 2.659390 3.843959 -0.845148 0
M  V30 12 N 1.578441 3.641205 -0.042417 0
M  V30 13 C 1.320454 2.397519 0.444515 0
M  V30 14 N 0.275083 1.937647 1.275663 0
M  V30 15 C -0.915271 1.211329 1.225883 0
M  V30 16 C -1.400353 0.686873 0.074877 0
M  V30 17 C -2.568219 -0.038576 0.112020 0
M  V30 18 N -3.219059 -0.673236 -0.979754 0
M  V30 19 S -4.923076 -0.663775 -1.346880 0
M  V30 20 C -5.211462 0.307043 -2.797621 0
M  V30 21 O -5.677792 -0.120630 -0.163754 0
M  V30 22 O -5.429240 -2.055253 -1.607694 0
M  V30 23 C -3.229300 -0.222911 1.312291 0
M  V30 24 C -2.721856 0.318879 2.474858 0
M  V30 25 C -1.550754 1.044739 2.433201 0
M  V30 26 F -1.061927 1.574769 3.603887 0
M  V30 27 C 2.213868 1.395625 0.069026 0
M  V30 28 C 2.076358 0.084495 0.479104 0
M  V30 29 C 2.757716 -3.509165 0.081588 0
M  V30 30 C 2.353095 -4.684636 0.709728 0
M  V30 31 C 1.738828 -4.645242 1.945898 0
M  V30 32 O 1.371414 -5.885292 2.491612 0
M  V30 33 H 1.344832 -2.342875 5.425178 0
M  V30 34 H 0.483907 -1.524701 4.085597 0
M  V30 35 H -0.444255 -2.620292 5.141037 0
M  V30 36 H 1.710751 -1.403644 2.523634 0
M  V30 37 H 4.595275 -1.555596 -0.886816 0
M  V30 38 H 5.026679 0.761240 -1.742662 0
M  V30 39 H 2.707595 4.883440 -1.131769 0
M  V30 40 H 0.693832 2.357722 2.130033 0
M  V30 41 H -0.924968 0.799037 -0.884796 0
M  V30 42 H -2.761001 -1.243369 -1.727341 0
M  V30 43 H -5.525185 -0.360177 -3.643065 0
M  V30 44 H -4.281844 0.820100 -3.076779 0
M  V30 45 H -6.044881 1.031169 -2.586877 0
M  V30 46 H -4.158845 -0.773534 1.481693 0
M  V30 47 H -3.214698 0.197089 3.453393 0
M  V30 48 H 1.221378 -0.109977 1.110979 0
M  V30 49 H 3.244996 -3.425658 -0.879712 0
M  V30 50 H 2.551722 -5.597139 0.167903 0
M  V30 51 H 0.390845 -6.185671 2.543002 0
M  V30 END ATOM
M  V30 BEGIN BOND
M  V30 1 1 1 2
M  V30 2 1 2 3
M  V30 3 2 3 4
M  V30 4 1 4 5
M  V30 5 1 5 6
M  V30 6 2 6 7
M  V30 7 1 7 8
M  V30 8 2 8 9
M  V30 9 1 9 10
M  V30 10 2 10 11
M  V30 11 1 11 12
M  V30 12 2 12 13
M  V30 13 1 13 14
M  V30 14 1 14 15
M  V30 15 2 15 16
M  V30 16 1 16 17
M  V30 17 1 17 18
M  V30 18 1 18 19
M  V30 19 1 19 20
M  V30 20 2 19 21
M  V30 21 2 19 22
M  V30 22 2 17 23
M  V30 23 1 23 24
M  V30 24 2 24 25
M  V30 25 1 25 26
M  V30 26 1 13 27
M  V30 27 2 27 28
M  V30 28 2 5 29
M  V30 29 1 29 30
M  V30 30 2 30 31
M  V30 31 1 31 32
M  V30 32 1 31 3
M  V30 33 1 28 6
M  V30 34 1 27 9
M  V30 35 1 25 15
M  V30 36 1 1 33
M  V30 37 1 1 34
M  V30 38 1 1 35
M  V30 39 1 4 36
M  V30 40 1 7 37
M  V30 41 1 8 38
M  V30 42 1 11 39
M  V30 43 1 14 40
M  V30 44 1 16 41
M  V30 45 1 18 42
M  V30 46 1 20 43
M  V30 47 1 20 44
M  V30 48 1 20 45
M  V30 49 1 23 46
M  V30 50 1 24 47
M  V30 51 1 28 48
M  V30 52 1 29 49
M  V30 53 1 30 50
M  V30 54 1 32 51
M  V30 END BOND
M  V30 END CTAB
M  END
>  <Dataset>  (791) 
ChEMBL_Kinases

>  <Ligand_Instance>  (791) 
nan

>  <PDB_ID>  (791) 
nan

>  <Standardized_SMILES>  (791) 
COc1cc(-c2ccc3ncnc(Nc4cc(NS(C)(=O)=O)ccc4F)c3c2)ccc1O

>  <Name>  (791) 
nan

>  <Pocket>  (791) 
nan

>  <ATP_Site>  (791) 
nan

>  <Peripheral>  (791) 
nan

>  <Num_H_Atoms_ProtBoundConf>  (791) 
nan

>  <Num_Resolved_Atoms>  (791) 
nan

>  <Num_Not_Resolved_Atoms>  (791) 
nan

$$$$
CHEMBL3661301
     RDKit          3D

  0  0  0  0  0  0  0  0  0  0999 V3000
M  V30 BEGIN CTAB
M  V30 COUNTS 47 51 0 0 0
M  V30 BEGIN ATOM
M  V30 1 C -3.581761 -1.815886 0.228393 0
M  V30 2 O -3.080676 -3.121047 0.551771 0
M  V30 3 C -1.725030 -3.369272 0.342162 0
M  V30 4 C -0.918665 -2.343983 -0.170449 0
M  V30 5 C 0.435954 -2.654931 -0.356428 0
M  V30 6 C 1.254128 -1.559613 -0.867312 0
M  V30 7 C 2.371834 -1.684761 -1.700664 0
M  V30 8 C 3.072550 -0.568462 -2.106937 0
M  V30 9 C 2.706413 0.715777 -1.713462 0
M  V30 10 N 3.413146 1.784269 -2.122157 0
M  V30 11 C 2.978761 2.995836 -1.678572 0
M  V30 12 N 1.911767 3.237021 -0.871261 0
M  V30 13 C 1.200187 2.178536 -0.459045 0
M  V30 14 N 0.045165 2.103032 0.397916 0
M  V30 15 C 0.381878 1.709405 1.743512 0
M  V30 16 C 1.686637 1.478319 2.121408 0
M  V30 17 C 2.020875 1.071476 3.419174 0
M  V30 18 C 0.990200 0.902003 4.336721 0
M  V30 19 C -0.329170 1.126564 3.987060 0
M  V30 20 N -1.499266 1.033598 4.671714 0
M  V30 21 C -2.491297 1.370395 3.820865 0
M  V30 22 O -3.691942 1.371274 4.192053 0
M  V30 23 N -1.970003 1.667057 2.637314 0
M  V30 24 C -0.623556 1.526525 2.700862 0
M  V30 25 C 1.603901 0.914540 -0.885095 0
M  V30 26 C 0.954572 -0.263732 -0.522007 0
M  V30 27 C 0.997597 -3.888555 -0.069219 0
M  V30 28 C 0.151129 -4.860918 0.433080 0
M  V30 29 C -1.169981 -4.610861 0.633827 0
M  V30 30 O -2.060487 -5.574480 1.143270 0
M  V30 31 H -2.958551 -1.108213 0.846910 0
M  V30 32 H -3.355143 -1.563259 -0.830272 0
M  V30 33 H -4.650255 -1.733595 0.417996 0
M  V30 34 H -1.376434 -1.410274 -0.388156 0
M  V30 35 H 2.631518 -2.692736 -1.988758 0
M  V30 36 H 3.927850 -0.735370 -2.750766 0
M  V30 37 H 3.528040 3.880212 -1.991368 0
M  V30 38 H -0.966325 2.287268 0.186827 0
M  V30 39 H 2.496895 1.602113 1.432051 0
M  V30 40 H 3.020731 0.882039 3.751022 0
M  V30 41 H 1.162558 0.592757 5.356339 0
M  V30 42 H -1.598093 0.746176 5.691107 0
M  V30 43 H -2.530928 1.958491 1.816784 0
M  V30 44 H 0.084281 -0.149370 0.135282 0
M  V30 45 H 2.023651 -4.102241 -0.217229 0
M  V30 46 H 0.464358 -5.863149 0.695775 0
M  V30 47 H -2.348926 -5.404243 2.119559 0
M  V30 END ATOM
M  V30 BEGIN BOND
M  V30 1 1 1 2
M  V30 2 1 2 3
M  V30 3 2 3 4
M  V30 4 1 4 5
M  V30 5 1 5 6
M  V30 6 2 6 7
M  V30 7 1 7 8
M  V30 8 2 8 9
M  V30 9 1 9 10
M  V30 10 2 10 11
M  V30 11 1 11 12
M  V30 12 2 12 13
M  V30 13 1 13 14
M  V30 14 1 14 15
M  V30 15 2 15 16
M  V30 16 1 16 17
M  V30 17 2 17 18
M  V30 18 1 18 19
M  V30 19 1 19 20
M  V30 20 1 20 21
M  V30 21 2 21 22
M  V30 22 1 21 23
M  V30 23 1 23 24
M  V30 24 1 13 25
M  V30 25 2 25 26
M  V30 26 2 5 27
M  V30 27 1 27 28
M  V30 28 2 28 29
M  V30 29 1 29 30
M  V30 30 1 29 3
M  V30 31 1 26 6
M  V30 32 1 25 9
M  V30 33 1 24 15
M  V30 34 2 24 19
M  V30 35 1 1 31
M  V30 36 1 1 32
M  V30 37 1 1 33
M  V30 38 1 4 34
M  V30 39 1 7 35
M  V30 40 1 8 36
M  V30 41 1 11 37
M  V30 42 1 14 38
M  V30 43 1 16 39
M  V30 44 1 17 40
M  V30 45 1 18 41
M  V30 46 1 20 42
M  V30 47 1 23 43
M  V30 48 1 26 44
M  V30 49 1 27 45
M  V30 50 1 28 46
M  V30 51 1 30 47
M  V30 END BOND
M  V30 END CTAB
M  END
>  <Dataset>  (792) 
ChEMBL_Kinases

>  <Ligand_Instance>  (792) 
nan

>  <PDB_ID>  (792) 
nan

>  <Standardized_SMILES>  (792) 
COc1cc(-c2ccc3ncnc(Nc4cccc5[nH]c(=O)[nH]c45)c3c2)ccc1O

>  <Name>  (792) 
nan

>  <Pocket>  (792) 
nan

>  <ATP_Site>  (792) 
nan

>  <Peripheral>  (792) 
nan

>  <Num_H_Atoms_ProtBoundConf>  (792) 
nan

>  <Num_Resolved_Atoms>  (792) 
nan

>  <Num_Not_Resolved_Atoms>  (792) 
nan

$$$$
CHEMBL3661300
     RDKit          3D

  0  0  0  0  0  0  0  0  0  0999 V3000
M  V30 BEGIN CTAB
M  V30 COUNTS 46 50 0 0 0
M  V30 BEGIN ATOM
M  V30 1 C -2.579278 -3.032987 1.644321 0
M  V30 2 O -1.591612 -3.982137 1.411517 0
M  V30 3 C -0.357884 -3.758852 0.864250 0
M  V30 4 C 0.147761 -2.562529 0.439010 0
M  V30 5 C 1.400493 -2.374274 -0.109509 0
M  V30 6 C 1.854125 -1.047215 -0.533584 0
M  V30 7 C 2.739706 -0.999459 -1.612248 0
M  V30 8 C 3.228046 0.198962 -2.088445 0
M  V30 9 C 2.806161 1.346814 -1.457018 0
M  V30 10 N 3.254882 2.542180 -1.866392 0
M  V30 11 C 2.862988 3.668061 -1.257605 0
M  V30 12 N 2.015739 3.635991 -0.227411 0
M  V30 13 C 1.501341 2.493768 0.268266 0
M  V30 14 N 0.643904 2.557744 1.345478 0
M  V30 15 C -0.263643 1.866450 2.131707 0
M  V30 16 C -0.080767 1.571900 3.493886 0
M  V30 17 C -0.983191 0.906487 4.294260 0
M  V30 18 C -2.143152 0.519336 3.661996 0
M  V30 19 C -2.456029 0.739824 2.340796 0
M  V30 20 N -3.499694 0.462926 1.540557 0
M  V30 21 N -3.210445 0.944142 0.348185 0
M  V30 22 C -2.002348 1.529334 0.350238 0
M  V30 23 Cl -1.337226 2.270352 -1.088790 0
M  V30 24 C -1.491995 1.410874 1.627473 0
M  V30 25 C 1.933667 1.358106 -0.389437 0
M  V30 26 C 1.486316 0.148714 0.037045 0
M  V30 27 C 2.218305 -3.483558 -0.243263 0
M  V30 28 C 1.756000 -4.736284 0.174109 0
M  V30 29 C 0.486064 -4.838335 0.713984 0
M  V30 30 O 0.154462 -6.136848 1.086680 0
M  V30 31 H -2.217073 -2.020522 1.456517 0
M  V30 32 H -3.414443 -3.195430 0.920860 0
M  V30 33 H -3.038138 -3.125500 2.664002 0
M  V30 34 H -0.461193 -1.677984 0.527510 0
M  V30 35 H 3.105693 -1.873947 -2.148226 0
M  V30 36 H 3.913716 0.279508 -2.919658 0
M  V30 37 H 3.220628 4.644545 -1.581158 0
M  V30 38 H 0.574189 3.491581 1.856199 0
M  V30 39 H 0.867264 1.921554 3.896526 0
M  V30 40 H -0.766181 0.719466 5.334548 0
M  V30 41 H -2.869321 -0.007838 4.269778 0
M  V30 42 H -4.353133 -0.053426 1.897815 0
M  V30 43 H 0.826491 0.072649 0.854808 0
M  V30 44 H 3.195031 -3.324729 -0.673043 0
M  V30 45 H 2.441103 -5.542461 0.040027 0
M  V30 46 H -0.629033 -6.573420 0.591341 0
M  V30 END ATOM
M  V30 BEGIN BOND
M  V30 1 1 1 2
M  V30 2 1 2 3
M  V30 3 2 3 4
M  V30 4 1 4 5
M  V30 5 1 5 6
M  V30 6 2 6 7
M  V30 7 1 7 8
M  V30 8 2 8 9
M  V30 9 1 9 10
M  V30 10 2 10 11
M  V30 11 1 11 12
M  V30 12 2 12 13
M  V30 13 1 13 14
M  V30 14 1 14 15
M  V30 15 2 15 16
M  V30 16 1 16 17
M  V30 17 2 17 18
M  V30 18 1 18 19
M  V30 19 1 19 20
M  V30 20 1 20 21
M  V30 21 2 21 22
M  V30 22 1 22 23
M  V30 23 1 22 24
M  V30 24 1 13 25
M  V30 25 2 25 26
M  V30 26 2 5 27
M  V30 27 1 27 28
M  V30 28 2 28 29
M  V30 29 1 29 30
M  V30 30 1 29 3
M  V30 31 1 26 6
M  V30 32 1 25 9
M  V30 33 1 24 15
M  V30 34 2 24 19
M  V30 35 1 1 31
M  V30 36 1 1 32
M  V30 37 1 1 33
M  V30 38 1 4 34
M  V30 39 1 7 35
M  V30 40 1 8 36
M  V30 41 1 11 37
M  V30 42 1 14 38
M  V30 43 1 16 39
M  V30 44 1 17 40
M  V30 45 1 18 41
M  V30 46 1 20 42
M  V30 47 1 26 43
M  V30 48 1 27 44
M  V30 49 1 28 45
M  V30 50 1 30 46
M  V30 END BOND
M  V30 END CTAB
M  END
>  <Dataset>  (793) 
ChEMBL_Kinases

>  <Ligand_Instance>  (793) 
nan

>  <PDB_ID>  (793) 
nan

>  <Standardized_SMILES>  (793) 
COc1cc(-c2ccc3ncnc(Nc4cccc5[nH]nc(Cl)c45)c3c2)ccc1O

>  <Name>  (793) 
nan

>  <Pocket>  (793) 
nan

>  <ATP_Site>  (793) 
nan

>  <Peripheral>  (793) 
nan

>  <Num_H_Atoms_ProtBoundConf>  (793) 
nan

>  <Num_Resolved_Atoms>  (793) 
nan

>  <Num_Not_Resolved_Atoms>  (793) 
nan

$$$$
CHEMBL3661299
     RDKit          3D

  0  0  0  0  0  0  0  0  0  0999 V3000
M  V30 BEGIN CTAB
M  V30 COUNTS 42 46 0 0 0
M  V30 BEGIN ATOM
M  V30 1 F 5.835143 -0.069528 1.186357 0
M  V30 2 C 5.370876 -1.291111 1.534880 0
M  V30 3 C 6.078772 -2.214654 2.279651 0
M  V30 4 C 5.494189 -3.432037 2.571587 0
M  V30 5 C 4.213540 -3.781419 2.149572 0
M  V30 6 C 3.526187 -2.825999 1.399537 0
M  V30 7 C 4.095709 -1.588977 1.091758 0
M  V30 8 C 3.228717 -0.722075 0.300526 0
M  V30 9 C 3.753701 -0.055430 -0.771735 0
M  V30 10 C 2.999714 0.786715 -1.574783 0
M  V30 11 C 1.668552 0.921002 -1.231596 0
M  V30 12 N 0.974057 1.758106 -2.051303 0
M  V30 13 C -0.338736 1.970226 -1.816564 0
M  V30 14 C -0.951678 1.336939 -0.753390 0
M  V30 15 C -0.236403 0.508519 0.046707 0
M  V30 16 N -0.868939 -0.144719 1.136699 0
M  V30 17 C -2.230868 -0.070384 1.539527 0
M  V30 18 C -2.705885 0.390312 2.760981 0
M  V30 19 C -4.038312 0.428740 3.086435 0
M  V30 20 C -4.986858 -0.002356 2.184575 0
M  V30 21 C -4.547333 -0.464795 0.965359 0
M  V30 22 N -5.316398 -0.924214 -0.031557 0
M  V30 23 N -4.501849 -1.266998 -1.015760 0
M  V30 24 C -3.223797 -1.030531 -0.655506 0
M  V30 25 C -3.191506 -0.509301 0.620752 0
M  V30 26 C 1.102660 0.259531 -0.150140 0
M  V30 27 C 1.900711 -0.559140 0.605190 0
M  V30 28 H 7.071118 -1.949103 2.609027 0
M  V30 29 H 6.033785 -4.174581 3.156960 0
M  V30 30 H 3.769803 -4.740647 2.387257 0
M  V30 31 H 2.527447 -3.142678 1.090678 0
M  V30 32 H 4.803189 -0.189429 -1.005702 0
M  V30 33 H 3.448056 1.298546 -2.415666 0
M  V30 34 H -0.869485 2.642739 -2.485710 0
M  V30 35 H -1.985945 1.570909 -0.650542 0
M  V30 36 H -0.514473 -0.789916 1.852464 0
M  V30 37 H -1.935876 0.726409 3.458976 0
M  V30 38 H -4.326184 0.800605 4.055693 0
M  V30 39 H -6.029374 0.037813 2.464067 0
M  V30 40 H -6.345393 -1.022034 -0.094033 0
M  V30 41 H -2.328519 -1.204682 -1.238798 0
M  V30 42 H 1.442779 -1.062919 1.439283 0
M  V30 END ATOM
M  V30 BEGIN BOND
M  V30 1 1 1 2
M  V30 2 2 2 3
M  V30 3 1 3 4
M  V30 4 2 4 5
M  V30 5 1 5 6
M  V30 6 2 6 7
M  V30 7 1 7 8
M  V30 8 2 8 9
M  V30 9 1 9 10
M  V30 10 2 10 11
M  V30 11 1 11 12
M  V30 12 2 12 13
M  V30 13 1 13 14
M  V30 14 2 14 15
M  V30 15 1 15 16
M  V30 16 1 16 17
M  V30 17 2 17 18
M  V30 18 1 18 19
M  V30 19 2 19 20
M  V30 20 1 20 21
M  V30 21 1 21 22
M  V30 22 1 22 23
M  V30 23 2 23 24
M  V30 24 1 24 25
M  V30 25 1 15 26
M  V30 26 2 26 27
M  V30 27 1 7 2
M  V30 28 1 27 8
M  V30 29 1 26 11
M  V30 30 1 25 17
M  V30 31 2 25 21
M  V30 32 1 3 28
M  V30 33 1 4 29
M  V30 34 1 5 30
M  V30 35 1 6 31
M  V30 36 1 9 32
M  V30 37 1 10 33
M  V30 38 1 13 34
M  V30 39 1 14 35
M  V30 40 1 16 36
M  V30 41 1 18 37
M  V30 42 1 19 38
M  V30 43 1 20 39
M  V30 44 1 22 40
M  V30 45 1 24 41
M  V30 46 1 27 42
M  V30 END BOND
M  V30 END CTAB
M  END
>  <Dataset>  (794) 
ChEMBL_Kinases

>  <Ligand_Instance>  (794) 
nan

>  <PDB_ID>  (794) 
nan

>  <Standardized_SMILES>  (794) 
Fc1ccccc1-c1ccc2nccc(Nc3cccc4[nH]ncc34)c2c1

>  <Name>  (794) 
nan

>  <Pocket>  (794) 
nan

>  <ATP_Site>  (794) 
nan

>  <Peripheral>  (794) 
nan

>  <Num_H_Atoms_ProtBoundConf>  (794) 
nan

>  <Num_Resolved_Atoms>  (794) 
nan

>  <Num_Not_Resolved_Atoms>  (794) 
nan

$$$$
CHEMBL3661298
     RDKit          3D

  0  0  0  0  0  0  0  0  0  0999 V3000
M  V30 BEGIN CTAB
M  V30 COUNTS 43 47 0 0 0
M  V30 BEGIN ATOM
M  V30 1 O 1.159961 -6.320548 3.147217 0
M  V30 2 C 1.139983 -5.294460 2.199196 0
M  V30 3 C 0.517017 -5.480283 0.963852 0
M  V30 4 C 0.508623 -4.443844 0.032915 0
M  V30 5 C 1.110363 -3.234907 0.320130 0
M  V30 6 C 1.120472 -2.130896 -0.627741 0
M  V30 7 C 1.150234 -2.329616 -2.007927 0
M  V30 8 C 1.158884 -1.254994 -2.890550 0
M  V30 9 C 1.138516 0.045260 -2.438892 0
M  V30 10 N 1.144923 1.127921 -3.215511 0
M  V30 11 C 1.124245 2.376869 -2.725105 0
M  V30 12 C 1.094417 2.580140 -1.340888 0
M  V30 13 C 1.087322 1.456172 -0.518008 0
M  V30 14 N 1.055131 1.822776 0.854224 0
M  V30 15 C 0.250719 1.660245 2.002122 0
M  V30 16 C 0.688778 1.059418 3.162028 0
M  V30 17 C -0.180111 0.950637 4.227777 0
M  V30 18 C -1.470438 1.430079 4.151005 0
M  V30 19 C -1.904364 2.029659 2.990724 0
M  V30 20 N -3.121509 2.562926 2.709342 0
M  V30 21 N -3.044721 3.015000 1.470135 0
M  V30 22 C -1.815241 2.789556 0.943851 0
M  V30 23 C -1.049172 2.148285 1.912092 0
M  V30 24 C 1.109606 0.198467 -1.081279 0
M  V30 25 C 1.100058 -0.832694 -0.173215 0
M  V30 26 C 1.738116 -3.019671 1.540174 0
M  V30 27 C 1.735434 -4.063574 2.452922 0
M  V30 28 H 0.916242 -6.010176 4.100614 0
M  V30 29 H 0.034816 -6.427956 0.715609 0
M  V30 30 H 0.027572 -4.562822 -0.942112 0
M  V30 31 H 1.166756 -3.361728 -2.386542 0
M  V30 32 H 1.182296 -1.422341 -3.971726 0
M  V30 33 H 1.133757 3.125038 -3.513388 0
M  V30 34 H 1.079645 3.628242 -1.076651 0
M  V30 35 H 1.874178 2.410954 1.189002 0
M  V30 36 H 1.710839 0.724946 3.104884 0
M  V30 37 H 0.265399 0.460075 5.094636 0
M  V30 38 H -2.088315 1.300427 5.043761 0
M  V30 39 H -3.944405 2.601140 3.353933 0
M  V30 40 H -1.453630 3.046177 -0.045701 0
M  V30 41 H 1.077527 -0.680225 0.888528 0
M  V30 42 H 2.234937 -2.111936 1.856788 0
M  V30 43 H 2.210104 -3.947122 3.416568 0
M  V30 END ATOM
M  V30 BEGIN BOND
M  V30 1 1 1 2
M  V30 2 2 2 3
M  V30 3 1 3 4
M  V30 4 2 4 5
M  V30 5 1 5 6
M  V30 6 2 6 7
M  V30 7 1 7 8
M  V30 8 2 8 9
M  V30 9 1 9 10
M  V30 10 2 10 11
M  V30 11 1 11 12
M  V30 12 2 12 13
M  V30 13 1 13 14
M  V30 14 1 14 15
M  V30 15 2 15 16
M  V30 16 1 16 17
M  V30 17 2 17 18
M  V30 18 1 18 19
M  V30 19 1 19 20
M  V30 20 1 20 21
M  V30 21 2 21 22
M  V30 22 1 22 23
M  V30 23 1 13 24
M  V30 24 2 24 25
M  V30 25 1 5 26
M  V30 26 2 26 27
M  V30 27 1 27 2
M  V30 28 1 25 6
M  V30 29 1 24 9
M  V30 30 1 23 15
M  V30 31 2 23 19
M  V30 32 1 1 28
M  V30 33 1 3 29
M  V30 34 1 4 30
M  V30 35 1 7 31
M  V30 36 1 8 32
M  V30 37 1 11 33
M  V30 38 1 12 34
M  V30 39 1 14 35
M  V30 40 1 16 36
M  V30 41 1 17 37
M  V30 42 1 18 38
M  V30 43 1 20 39
M  V30 44 1 22 40
M  V30 45 1 25 41
M  V30 46 1 26 42
M  V30 47 1 27 43
M  V30 END BOND
M  V30 END CTAB
M  END
>  <Dataset>  (795) 
ChEMBL_Kinases

>  <Ligand_Instance>  (795) 
nan

>  <PDB_ID>  (795) 
nan

>  <Standardized_SMILES>  (795) 
Oc1ccc(-c2ccc3nccc(Nc4cccc5[nH]ncc45)c3c2)cc1

>  <Name>  (795) 
nan

>  <Pocket>  (795) 
nan

>  <ATP_Site>  (795) 
nan

>  <Peripheral>  (795) 
nan

>  <Num_H_Atoms_ProtBoundConf>  (795) 
nan

>  <Num_Resolved_Atoms>  (795) 
nan

>  <Num_Not_Resolved_Atoms>  (795) 
nan

$$$$
CHEMBL3661297
     RDKit          3D

  0  0  0  0  0  0  0  0  0  0999 V3000
M  V30 BEGIN CTAB
M  V30 COUNTS 46 50 0 0 0
M  V30 BEGIN ATOM
M  V30 1 C -0.152861 -3.465891 5.076506 0
M  V30 2 O 0.116875 -2.789606 3.865289 0
M  V30 3 C 1.262861 -2.023075 3.700066 0
M  V30 4 C 2.275327 -1.791825 4.607324 0
M  V30 5 C 3.352274 -1.000027 4.283498 0
M  V30 6 C 3.463183 -0.409256 3.047851 0
M  V30 7 C 2.479872 -0.604795 2.098238 0
M  V30 8 C 2.534421 -0.006159 0.763108 0
M  V30 9 C 3.772542 0.209011 0.148059 0
M  V30 10 C 3.792871 0.777098 -1.115153 0
M  V30 11 C 2.634843 1.136285 -1.784405 0
M  V30 12 N 2.631521 1.696182 -3.008518 0
M  V30 13 C 1.493813 2.043539 -3.636598 0
M  V30 14 C 0.274761 1.822763 -3.014274 0
M  V30 15 C 0.195314 1.244069 -1.740633 0
M  V30 16 N -1.082939 1.050026 -1.162299 0
M  V30 17 C -1.791684 -0.107840 -0.758938 0
M  V30 18 C -1.355486 -1.408948 -0.870461 0
M  V30 19 C -2.066616 -2.502892 -0.470144 0
M  V30 20 C -3.310397 -2.330152 0.088340 0
M  V30 21 C -3.759123 -1.016200 0.204736 0
M  V30 22 N -4.930381 -0.540666 0.709133 0
M  V30 23 N -4.966193 0.794757 0.634808 0
M  V30 24 C -3.794762 1.205591 0.070039 0
M  V30 25 C -3.035666 0.082078 -0.201465 0
M  V30 26 C 1.421011 0.930857 -1.194962 0
M  V30 27 C 1.405934 0.366285 0.061187 0
M  V30 28 C 1.402622 -1.408844 2.450430 0
M  V30 29 H 0.749545 -3.769108 5.635862 0
M  V30 30 H -0.845250 -2.896642 5.737760 0
M  V30 31 H -0.653648 -4.432716 4.797109 0
M  V30 32 H 2.138977 -2.279154 5.562623 0
M  V30 33 H 4.099271 -0.873052 5.055817 0
M  V30 34 H 4.298514 0.207881 2.790246 0
M  V30 35 H 4.698877 -0.045789 0.610800 0
M  V30 36 H 4.718659 0.977402 -1.662209 0
M  V30 37 H 1.530829 2.499660 -4.637750 0
M  V30 38 H -0.616358 2.121440 -3.564642 0
M  V30 39 H -1.485379 2.002746 -1.058721 0
M  V30 40 H -0.370866 -1.552814 -1.312002 0
M  V30 41 H -1.638117 -3.508071 -0.598369 0
M  V30 42 H -3.909678 -3.165125 0.419613 0
M  V30 43 H -5.689896 -1.150670 1.098442 0
M  V30 44 H -3.529946 2.235086 -0.121335 0
M  V30 45 H 0.490585 0.177620 0.603362 0
M  V30 46 H 0.638244 -1.547530 1.680531 0
M  V30 END ATOM
M  V30 BEGIN BOND
M  V30 1 1 1 2
M  V30 2 1 2 3
M  V30 3 2 3 4
M  V30 4 1 4 5
M  V30 5 2 5 6
M  V30 6 1 6 7
M  V30 7 1 7 8
M  V30 8 2 8 9
M  V30 9 1 9 10
M  V30 10 2 10 11
M  V30 11 1 11 12
M  V30 12 2 12 13
M  V30 13 1 13 14
M  V30 14 2 14 15
M  V30 15 1 15 16
M  V30 16 1 16 17
M  V30 17 2 17 18
M  V30 18 1 18 19
M  V30 19 2 19 20
M  V30 20 1 20 21
M  V30 21 1 21 22
M  V30 22 1 22 23
M  V30 23 2 23 24
M  V30 24 1 24 25
M  V30 25 1 15 26
M  V30 26 2 26 27
M  V30 27 2 7 28
M  V30 28 1 28 3
M  V30 29 1 27 8
M  V30 30 1 26 11
M  V30 31 1 25 17
M  V30 32 2 25 21
M  V30 33 1 1 29
M  V30 34 1 1 30
M  V30 35 1 1 31
M  V30 36 1 4 32
M  V30 37 1 5 33
M  V30 38 1 6 34
M  V30 39 1 9 35
M  V30 40 1 10 36
M  V30 41 1 13 37
M  V30 42 1 14 38
M  V30 43 1 16 39
M  V30 44 1 18 40
M  V30 45 1 19 41
M  V30 46 1 20 42
M  V30 47 1 22 43
M  V30 48 1 24 44
M  V30 49 1 27 45
M  V30 50 1 28 46
M  V30 END BOND
M  V30 END CTAB
M  END
>  <Dataset>  (796) 
ChEMBL_Kinases

>  <Ligand_Instance>  (796) 
nan

>  <PDB_ID>  (796) 
nan

>  <Standardized_SMILES>  (796) 
COc1cccc(-c2ccc3nccc(Nc4cccc5[nH]ncc45)c3c2)c1

>  <Name>  (796) 
nan

>  <Pocket>  (796) 
nan

>  <ATP_Site>  (796) 
nan

>  <Peripheral>  (796) 
nan

>  <Num_H_Atoms_ProtBoundConf>  (796) 
nan

>  <Num_Resolved_Atoms>  (796) 
nan

>  <Num_Not_Resolved_Atoms>  (796) 
nan

$$$$
CHEMBL3661296
     RDKit          3D

  0  0  0  0  0  0  0  0  0  0999 V3000
M  V30 BEGIN CTAB
M  V30 COUNTS 56 60 0 0 0
M  V30 BEGIN ATOM
M  V30 1 C 2.959409 -1.673046 4.308567 0
M  V30 2 C 2.760026 -2.651646 3.177968 0
M  V30 3 C 2.601007 -1.864205 1.881006 0
M  V30 4 S 4.032849 -0.887617 1.561537 0
M  V30 5 O 4.298166 0.067785 2.699195 0
M  V30 6 O 5.259950 -1.751026 1.424322 0
M  V30 7 N 3.810301 -0.032369 0.083549 0
M  V30 8 C 2.897790 0.938098 -0.392917 0
M  V30 9 C 3.382363 2.089604 -1.016188 0
M  V30 10 C 2.607940 3.115954 -1.506306 0
M  V30 11 C 1.251449 2.971163 -1.357800 0
M  V30 12 C 0.691837 1.882933 -0.763627 0
M  V30 13 C -0.759986 1.821253 -0.651735 0
M  V30 14 C -1.402716 3.040930 -0.501484 0
M  V30 15 C -2.777262 3.150280 -0.385505 0
M  V30 16 C -3.566358 2.019082 -0.416904 0
M  V30 17 N -4.897683 2.067880 -0.316254 0
M  V30 18 C -5.696472 1.004367 -0.348265 0
M  V30 19 C -5.027746 -0.208366 -0.498933 0
M  V30 20 C -3.643877 -0.377782 -0.613220 0
M  V30 21 N -3.117327 -1.687372 -0.765640 0
M  V30 22 C -2.246078 -2.496029 0.010269 0
M  V30 23 C -1.677491 -2.154571 1.208429 0
M  V30 24 C -0.847966 -2.974746 1.909657 0
M  V30 25 C -0.554500 -4.211035 1.406627 0
M  V30 26 C -1.119048 -4.564006 0.205949 0
M  V30 27 N -1.005164 -5.705134 -0.514146 0
M  V30 28 N -1.729094 -5.638444 -1.641377 0
M  V30 29 C -2.325896 -4.416380 -1.644160 0
M  V30 30 C -1.949308 -3.738014 -0.491843 0
M  V30 31 C -2.933826 0.804246 -0.565528 0
M  V30 32 C -1.565254 0.702811 -0.680753 0
M  V30 33 C 1.543385 0.903732 -0.302181 0
M  V30 34 H 2.493949 -2.030666 5.254009 0
M  V30 35 H 4.027508 -1.488581 4.545725 0
M  V30 36 H 2.508874 -0.666635 4.074407 0
M  V30 37 H 1.828985 -3.202939 3.354406 0
M  V30 38 H 3.587000 -3.369012 3.121639 0
M  V30 39 H 1.725588 -1.190065 2.051475 0
M  V30 40 H 2.379093 -2.511408 1.032325 0
M  V30 41 H 4.488433 -0.238188 -0.714804 0
M  V30 42 H 4.465508 2.208800 -1.137100 0
M  V30 43 H 3.075972 3.976912 -1.978254 0
M  V30 44 H 0.634064 3.773199 -1.740712 0
M  V30 45 H -0.930468 4.014436 -0.458111 0
M  V30 46 H -3.320880 4.077510 -0.267070 0
M  V30 47 H -6.774858 0.988112 -0.271783 0
M  V30 48 H -5.627288 -1.114429 -0.531958 0
M  V30 49 H -3.522052 -2.018339 -1.665685 0
M  V30 50 H -1.913120 -1.174793 1.602202 0
M  V30 51 H -0.443715 -2.633339 2.840089 0
M  V30 52 H 0.103044 -4.915614 1.919021 0
M  V30 53 H -0.460901 -6.589732 -0.328616 0
M  V30 54 H -2.983682 -4.061578 -2.435583 0
M  V30 55 H -1.046483 -0.235775 -0.805412 0
M  V30 56 H 1.075511 0.047929 0.160324 0
M  V30 END ATOM
M  V30 BEGIN BOND
M  V30 1 1 1 2
M  V30 2 1 2 3
M  V30 3 1 3 4
M  V30 4 2 4 5
M  V30 5 2 4 6
M  V30 6 1 4 7
M  V30 7 1 7 8
M  V30 8 2 8 9
M  V30 9 1 9 10
M  V30 10 2 10 11
M  V30 11 1 11 12
M  V30 12 1 12 13
M  V30 13 2 13 14
M  V30 14 1 14 15
M  V30 15 2 15 16
M  V30 16 1 16 17
M  V30 17 2 17 18
M  V30 18 1 18 19
M  V30 19 2 19 20
M  V30 20 1 20 21
M  V30 21 1 21 22
M  V30 22 2 22 23
M  V30 23 1 23 24
M  V30 24 2 24 25
M  V30 25 1 25 26
M  V30 26 1 26 27
M  V30 27 1 27 28
M  V30 28 2 28 29
M  V30 29 1 29 30
M  V30 30 1 20 31
M  V30 31 2 31 32
M  V30 32 2 12 33
M  V30 33 1 33 8
M  V30 34 1 32 13
M  V30 35 1 31 16
M  V30 36 1 30 22
M  V30 37 2 30 26
M  V30 38 1 1 34
M  V30 39 1 1 35
M  V30 40 1 1 36
M  V30 41 1 2 37
M  V30 42 1 2 38
M  V30 43 1 3 39
M  V30 44 1 3 40
M  V30 45 1 7 41
M  V30 46 1 9 42
M  V30 47 1 10 43
M  V30 48 1 11 44
M  V30 49 1 14 45
M  V30 50 1 15 46
M  V30 51 1 18 47
M  V30 52 1 19 48
M  V30 53 1 21 49
M  V30 54 1 23 50
M  V30 55 1 24 51
M  V30 56 1 25 52
M  V30 57 1 27 53
M  V30 58 1 29 54
M  V30 59 1 32 55
M  V30 60 1 33 56
M  V30 END BOND
M  V30 END CTAB
M  END
>  <Dataset>  (797) 
ChEMBL_Kinases

>  <Ligand_Instance>  (797) 
nan

>  <PDB_ID>  (797) 
nan

>  <Standardized_SMILES>  (797) 
CCCS(=O)(=O)Nc1cccc(-c2ccc3nccc(Nc4cccc5[nH]ncc45)c3c2)c1

>  <Name>  (797) 
nan

>  <Pocket>  (797) 
nan

>  <ATP_Site>  (797) 
nan

>  <Peripheral>  (797) 
nan

>  <Num_H_Atoms_ProtBoundConf>  (797) 
nan

>  <Num_Resolved_Atoms>  (797) 
nan

>  <Num_Not_Resolved_Atoms>  (797) 
nan

$$$$
CHEMBL3661295
     RDKit          3D

  0  0  0  0  0  0  0  0  0  0999 V3000
M  V30 BEGIN CTAB
M  V30 COUNTS 44 48 0 0 0
M  V30 BEGIN ATOM
M  V30 1 N -0.377779 -6.380869 1.806568 0
M  V30 2 C -0.113744 -5.225708 1.002838 0
M  V30 3 C -0.642291 -5.150434 -0.284089 0
M  V30 4 C -0.342149 -3.999933 -1.002960 0
M  V30 5 C 0.440244 -3.008836 -0.437284 0
M  V30 6 C 0.772638 -1.782074 -1.177429 0
M  V30 7 C 0.922071 -1.788253 -2.549173 0
M  V30 8 C 1.238739 -0.595769 -3.213360 0
M  V30 9 C 1.404033 0.588813 -2.525415 0
M  V30 10 N 1.747517 1.732191 -3.118208 0
M  V30 11 C 1.954804 2.886117 -2.474871 0
M  V30 12 C 1.778003 2.807697 -1.094514 0
M  V30 13 C 1.416046 1.667742 -0.356632 0
M  V30 14 N 1.314499 1.874158 1.029189 0
M  V30 15 C 0.477928 2.049090 2.136265 0
M  V30 16 C 0.880863 3.277303 2.722814 0
M  V30 17 C 0.284306 3.852126 3.855402 0
M  V30 18 C -0.756232 3.119858 4.379467 0
M  V30 19 C -1.217169 1.925917 3.883392 0
M  V30 20 N -2.166026 1.027091 4.139808 0
M  V30 21 N -2.127040 0.045135 3.254976 0
M  V30 22 C -1.137474 0.292475 2.396315 0
M  V30 23 C -0.562105 1.462829 2.780418 0
M  V30 24 C 1.254078 0.594276 -1.175703 0
M  V30 25 C 0.947847 -0.576949 -0.539752 0
M  V30 26 C 0.948420 -3.115922 0.842369 0
M  V30 27 C 0.666496 -4.246650 1.578591 0
M  V30 28 H -0.099727 -7.400533 1.724952 0
M  V30 29 H -0.921595 -6.520248 2.696507 0
M  V30 30 H -1.249089 -5.953794 -0.679849 0
M  V30 31 H -0.731429 -3.898157 -2.006570 0
M  V30 32 H 0.793943 -2.712644 -3.102976 0
M  V30 33 H 1.359009 -0.591443 -4.289275 0
M  V30 34 H 2.234453 3.812843 -2.949978 0
M  V30 35 H 1.953157 3.767279 -0.583342 0
M  V30 36 H 2.350024 1.845485 1.229067 0
M  V30 37 H 1.697102 3.958830 2.400549 0
M  V30 38 H 0.559927 4.779177 4.329849 0
M  V30 39 H -1.278322 3.482429 5.251820 0
M  V30 40 H -2.817857 1.148982 4.949362 0
M  V30 41 H -0.947991 -0.375024 1.595165 0
M  V30 42 H 0.876578 -0.605027 0.528738 0
M  V30 43 H 1.565237 -2.368462 1.329490 0
M  V30 44 H 1.047944 -4.371934 2.595056 0
M  V30 END ATOM
M  V30 BEGIN BOND
M  V30 1 1 1 2
M  V30 2 2 2 3
M  V30 3 1 3 4
M  V30 4 2 4 5
M  V30 5 1 5 6
M  V30 6 2 6 7
M  V30 7 1 7 8
M  V30 8 2 8 9
M  V30 9 1 9 10
M  V30 10 2 10 11
M  V30 11 1 11 12
M  V30 12 2 12 13
M  V30 13 1 13 14
M  V30 14 1 14 15
M  V30 15 2 15 16
M  V30 16 1 16 17
M  V30 17 2 17 18
M  V30 18 1 18 19
M  V30 19 1 19 20
M  V30 20 1 20 21
M  V30 21 2 21 22
M  V30 22 1 22 23
M  V30 23 1 13 24
M  V30 24 2 24 25
M  V30 25 1 5 26
M  V30 26 2 26 27
M  V30 27 1 27 2
M  V30 28 1 25 6
M  V30 29 1 24 9
M  V30 30 1 23 15
M  V30 31 2 23 19
M  V30 32 1 1 28
M  V30 33 1 1 29
M  V30 34 1 3 30
M  V30 35 1 4 31
M  V30 36 1 7 32
M  V30 37 1 8 33
M  V30 38 1 11 34
M  V30 39 1 12 35
M  V30 40 1 14 36
M  V30 41 1 16 37
M  V30 42 1 17 38
M  V30 43 1 18 39
M  V30 44 1 20 40
M  V30 45 1 22 41
M  V30 46 1 25 42
M  V30 47 1 26 43
M  V30 48 1 27 44
M  V30 END BOND
M  V30 END CTAB
M  END
>  <Dataset>  (798) 
ChEMBL_Kinases

>  <Ligand_Instance>  (798) 
nan

>  <PDB_ID>  (798) 
nan

>  <Standardized_SMILES>  (798) 
Nc1ccc(-c2ccc3nccc(Nc4cccc5[nH]ncc45)c3c2)cc1

>  <Name>  (798) 
nan

>  <Pocket>  (798) 
nan

>  <ATP_Site>  (798) 
nan

>  <Peripheral>  (798) 
nan

>  <Num_H_Atoms_ProtBoundConf>  (798) 
nan

>  <Num_Resolved_Atoms>  (798) 
nan

>  <Num_Not_Resolved_Atoms>  (798) 
nan

$$$$
CHEMBL3661294
     RDKit          3D

  0  0  0  0  0  0  0  0  0  0999 V3000
M  V30 BEGIN CTAB
M  V30 COUNTS 48 52 0 0 0
M  V30 BEGIN ATOM
M  V30 1 C 1.773103 -2.609026 7.288993 0
M  V30 2 S 3.049970 -2.873565 6.078790 0
M  V30 3 O 4.368274 -2.602535 6.757354 0
M  V30 4 O 3.045430 -4.327970 5.670644 0
M  V30 5 C 2.814543 -1.834300 4.682074 0
M  V30 6 C 2.034448 -2.334758 3.640250 0
M  V30 7 C 1.830645 -1.530303 2.516238 0
M  V30 8 C 2.389698 -0.265197 2.437156 0
M  V30 9 C 2.108404 0.490493 1.209705 0
M  V30 10 C 3.002057 1.399738 0.680704 0
M  V30 11 C 2.680158 2.081133 -0.477307 0
M  V30 12 C 1.474557 1.877502 -1.131010 0
M  V30 13 N 1.171082 2.547084 -2.258803 0
M  V30 14 C 0.016887 2.387510 -2.931472 0
M  V30 15 C -0.906126 1.483141 -2.431318 0
M  V30 16 C -0.620962 0.785618 -1.280528 0
M  V30 17 N -1.565685 -0.133975 -0.783272 0
M  V30 18 C -2.824569 -0.487473 -1.308889 0
M  V30 19 C -4.043768 -0.324957 -0.680905 0
M  V30 20 C -5.269091 -0.680804 -1.202809 0
M  V30 21 C -5.263894 -1.246456 -2.459909 0
M  V30 22 C -4.088739 -1.440880 -3.148584 0
M  V30 23 N -3.923607 -1.973990 -4.362658 0
M  V30 24 N -2.623121 -1.956998 -4.605425 0
M  V30 25 C -1.962341 -1.421718 -3.564849 0
M  V30 26 C -2.869421 -1.065669 -2.582488 0
M  V30 27 C 0.565981 0.966510 -0.611084 0
M  V30 28 C 0.913347 0.301556 0.544454 0
M  V30 29 C 3.156903 0.202753 3.483880 0
M  V30 30 C 3.353822 -0.584255 4.578821 0
M  V30 31 H 2.179104 -2.381200 8.294520 0
M  V30 32 H 1.072271 -1.832633 6.921932 0
M  V30 33 H 1.166508 -3.530585 7.413310 0
M  V30 34 H 1.604539 -3.334418 3.725448 0
M  V30 35 H 1.206623 -2.005467 1.750822 0
M  V30 36 H 3.934936 1.578125 1.158701 0
M  V30 37 H 3.399201 2.795755 -0.880490 0
M  V30 38 H -0.171938 2.954102 -3.833618 0
M  V30 39 H -1.813565 1.399454 -3.009963 0
M  V30 40 H -1.543335 -0.741268 0.060719 0
M  V30 41 H -3.941336 0.130476 0.308701 0
M  V30 42 H -6.120994 -0.483138 -0.577410 0
M  V30 43 H -6.224195 -1.522948 -2.863938 0
M  V30 44 H -4.662653 -2.334995 -5.001453 0
M  V30 45 H -0.894670 -1.271892 -3.463668 0
M  V30 46 H 0.229670 -0.399781 0.957005 0
M  V30 47 H 3.578364 1.190780 3.393039 0
M  V30 48 H 3.957511 -0.205788 5.393314 0
M  V30 END ATOM
M  V30 BEGIN BOND
M  V30 1 1 1 2
M  V30 2 2 2 3
M  V30 3 2 2 4
M  V30 4 1 2 5
M  V30 5 2 5 6
M  V30 6 1 6 7
M  V30 7 2 7 8
M  V30 8 1 8 9
M  V30 9 2 9 10
M  V30 10 1 10 11
M  V30 11 2 11 12
M  V30 12 1 12 13
M  V30 13 2 13 14
M  V30 14 1 14 15
M  V30 15 2 15 16
M  V30 16 1 16 17
M  V30 17 1 17 18
M  V30 18 2 18 19
M  V30 19 1 19 20
M  V30 20 2 20 21
M  V30 21 1 21 22
M  V30 22 1 22 23
M  V30 23 1 23 24
M  V30 24 2 24 25
M  V30 25 1 25 26
M  V30 26 1 16 27
M  V30 27 2 27 28
M  V30 28 1 8 29
M  V30 29 2 29 30
M  V30 30 1 30 5
M  V30 31 1 28 9
M  V30 32 1 27 12
M  V30 33 1 26 18
M  V30 34 2 26 22
M  V30 35 1 1 31
M  V30 36 1 1 32
M  V30 37 1 1 33
M  V30 38 1 6 34
M  V30 39 1 7 35
M  V30 40 1 10 36
M  V30 41 1 11 37
M  V30 42 1 14 38
M  V30 43 1 15 39
M  V30 44 1 17 40
M  V30 45 1 19 41
M  V30 46 1 20 42
M  V30 47 1 21 43
M  V30 48 1 23 44
M  V30 49 1 25 45
M  V30 50 1 28 46
M  V30 51 1 29 47
M  V30 52 1 30 48
M  V30 END BOND
M  V30 END CTAB
M  END
>  <Dataset>  (799) 
ChEMBL_Kinases

>  <Ligand_Instance>  (799) 
nan

>  <PDB_ID>  (799) 
nan

>  <Standardized_SMILES>  (799) 
CS(=O)(=O)c1ccc(-c2ccc3nccc(Nc4cccc5[nH]ncc45)c3c2)cc1

>  <Name>  (799) 
nan

>  <Pocket>  (799) 
nan

>  <ATP_Site>  (799) 
nan

>  <Peripheral>  (799) 
nan

>  <Num_H_Atoms_ProtBoundConf>  (799) 
nan

>  <Num_Resolved_Atoms>  (799) 
nan

>  <Num_Not_Resolved_Atoms>  (799) 
nan

$$$$
CHEMBL3661293
     RDKit          3D

  0  0  0  0  0  0  0  0  0  0999 V3000
M  V30 BEGIN CTAB
M  V30 COUNTS 43 46 0 0 0
M  V30 BEGIN ATOM
M  V30 1 C -1.110089 -2.790499 3.486870 0
M  V30 2 O -0.471649 -3.827953 2.770358 0
M  V30 3 C 0.047944 -3.570794 1.523391 0
M  V30 4 C 0.070616 -2.419534 0.774245 0
M  V30 5 C 0.657087 -2.398131 -0.471635 0
M  V30 6 C 0.612125 -1.094881 -1.150660 0
M  V30 7 C 0.540860 -1.191725 -2.537703 0
M  V30 8 C 0.501017 0.008293 -3.222504 0
M  V30 9 C 0.531506 1.213328 -2.534086 0
M  V30 10 N 0.504847 2.356621 -3.199676 0
M  V30 11 C 0.543188 3.522495 -2.565367 0
M  V30 12 N 0.609682 3.569645 -1.249531 0
M  V30 13 C 0.642825 2.438907 -0.476034 0
M  V30 14 N 0.724574 2.621009 0.915795 0
M  V30 15 C 0.630776 2.020516 2.185407 0
M  V30 16 C 1.686710 1.883937 3.099671 0
M  V30 17 C 1.488234 1.311053 4.334033 0
M  V30 18 C 0.223658 0.884876 4.626922 0
M  V30 19 C -0.871862 0.976614 3.797895 0
M  V30 20 C -0.624024 1.555876 2.573971 0
M  V30 21 F -1.702725 1.656713 1.737448 0
M  V30 22 C 0.601983 1.251360 -1.161170 0
M  V30 23 C 0.644117 0.090178 -0.437442 0
M  V30 24 C 1.245527 -3.506689 -1.031579 0
M  V30 25 C 1.231409 -4.667057 -0.294219 0
M  V30 26 C 0.637915 -4.689129 0.964893 0
M  V30 27 O 0.715800 -5.938156 1.563655 0
M  V30 28 H -1.033005 -2.933670 4.584016 0
M  V30 29 H -2.197613 -2.742750 3.223169 0
M  V30 30 H -0.601417 -1.834719 3.248488 0
M  V30 31 H -0.403503 -1.573549 1.251286 0
M  V30 32 H 0.516145 -2.117440 -3.069408 0
M  V30 33 H 0.446081 -0.035149 -4.301258 0
M  V30 34 H 0.522771 4.473693 -3.112643 0
M  V30 35 H 0.943522 3.600820 1.268057 0
M  V30 36 H 2.657708 2.253539 2.780382 0
M  V30 37 H 2.317700 1.212604 5.032684 0
M  V30 38 H 0.097907 0.437800 5.600944 0
M  V30 39 H -1.807560 0.602620 4.153336 0
M  V30 40 H 0.710691 0.098478 0.634755 0
M  V30 41 H 1.686246 -3.408715 -2.015132 0
M  V30 42 H 1.705385 -5.516265 -0.764852 0
M  V30 43 H 0.101855 -6.163551 2.352019 0
M  V30 END ATOM
M  V30 BEGIN BOND
M  V30 1 1 1 2
M  V30 2 1 2 3
M  V30 3 2 3 4
M  V30 4 1 4 5
M  V30 5 1 5 6
M  V30 6 2 6 7
M  V30 7 1 7 8
M  V30 8 2 8 9
M  V30 9 1 9 10
M  V30 10 2 10 11
M  V30 11 1 11 12
M  V30 12 2 12 13
M  V30 13 1 13 14
M  V30 14 1 14 15
M  V30 15 2 15 16
M  V30 16 1 16 17
M  V30 17 2 17 18
M  V30 18 1 18 19
M  V30 19 2 19 20
M  V30 20 1 20 21
M  V30 21 1 13 22
M  V30 22 2 22 23
M  V30 23 2 5 24
M  V30 24 1 24 25
M  V30 25 2 25 26
M  V30 26 1 26 27
M  V30 27 1 26 3
M  V30 28 1 23 6
M  V30 29 1 22 9
M  V30 30 1 20 15
M  V30 31 1 1 28
M  V30 32 1 1 29
M  V30 33 1 1 30
M  V30 34 1 4 31
M  V30 35 1 7 32
M  V30 36 1 8 33
M  V30 37 1 11 34
M  V30 38 1 14 35
M  V30 39 1 16 36
M  V30 40 1 17 37
M  V30 41 1 18 38
M  V30 42 1 19 39
M  V30 43 1 23 40
M  V30 44 1 24 41
M  V30 45 1 25 42
M  V30 46 1 27 43
M  V30 END BOND
M  V30 END CTAB
M  END
>  <Dataset>  (800) 
ChEMBL_Kinases

>  <Ligand_Instance>  (800) 
nan

>  <PDB_ID>  (800) 
nan

>  <Standardized_SMILES>  (800) 
COc1cc(-c2ccc3ncnc(Nc4ccccc4F)c3c2)ccc1O

>  <Name>  (800) 
nan

>  <Pocket>  (800) 
nan

>  <ATP_Site>  (800) 
nan

>  <Peripheral>  (800) 
nan

>  <Num_H_Atoms_ProtBoundConf>  (800) 
nan

>  <Num_Resolved_Atoms>  (800) 
nan

>  <Num_Not_Resolved_Atoms>  (800) 
nan

$$$$
CHEMBL3661292
     RDKit          3D

  0  0  0  0  0  0  0  0  0  0999 V3000
M  V30 BEGIN CTAB
M  V30 COUNTS 47 50 0 0 0
M  V30 BEGIN ATOM
M  V30 1 C -2.678960 -2.589299 2.398491 0
M  V30 2 O -1.665343 -3.555287 2.589557 0
M  V30 3 C -0.417657 -3.438689 2.011246 0
M  V30 4 C 0.102127 -2.475728 1.200774 0
M  V30 5 C 1.391825 -2.597026 0.753036 0
M  V30 6 C 1.916665 -1.544761 -0.111932 0
M  V30 7 C 2.865737 -1.939642 -1.061685 0
M  V30 8 C 3.452314 -1.040496 -1.950779 0
M  V30 9 C 3.043090 0.271794 -1.843043 0
M  V30 10 N 3.591120 1.155640 -2.683501 0
M  V30 11 C 3.222641 2.439659 -2.611737 0
M  V30 12 N 2.320012 2.867294 -1.722179 0
M  V30 13 C 1.729951 2.013691 -0.843107 0
M  V30 14 N 0.795355 2.543511 0.056726 0
M  V30 15 C -0.081387 2.256667 1.096928 0
M  V30 16 C 0.338924 2.318079 2.417250 0
M  V30 17 C -0.539584 2.026349 3.468025 0
M  V30 18 C -1.829112 1.679110 3.123204 0
M  V30 19 C -2.293549 1.604835 1.816655 0
M  V30 20 O -3.618462 1.234142 1.791931 0
M  V30 21 C -4.313110 1.090029 0.581642 0
M  V30 22 F -5.395954 1.978488 0.508644 0
M  V30 23 F -4.785139 -0.220798 0.439777 0
M  V30 24 C -1.386148 1.901989 0.830575 0
M  V30 25 C 2.119616 0.700682 -0.930700 0
M  V30 26 C 1.564336 -0.212855 -0.072580 0
M  V30 27 C 2.212607 -3.668358 1.087126 0
M  V30 28 C 1.684014 -4.655535 1.916421 0
M  V30 29 C 0.379375 -4.521208 2.362085 0
M  V30 30 O 0.012406 -5.592289 3.178129 0
M  V30 31 H -2.305122 -1.602465 2.063972 0
M  V30 32 H -3.383532 -3.052353 1.657691 0
M  V30 33 H -3.251598 -2.408061 3.337709 0
M  V30 34 H -0.582403 -1.678997 0.982329 0
M  V30 35 H 3.216383 -2.973044 -1.178591 0
M  V30 36 H 4.184592 -1.365927 -2.678057 0
M  V30 37 H 3.640172 3.210653 -3.277319 0
M  V30 38 H 0.583604 3.565190 0.037668 0
M  V30 39 H 1.373973 2.599149 2.639103 0
M  V30 40 H -0.141413 2.095263 4.466827 0
M  V30 41 H -2.413249 1.475779 4.035105 0
M  V30 42 H -3.731155 1.289798 -0.328911 0
M  V30 43 H -1.806080 1.826930 -0.161653 0
M  V30 44 H 0.834384 0.073236 0.663766 0
M  V30 45 H 3.225929 -3.730088 0.714402 0
M  V30 46 H 2.355617 -5.453006 2.140604 0
M  V30 47 H -0.947727 -5.846314 3.209970 0
M  V30 END ATOM
M  V30 BEGIN BOND
M  V30 1 1 1 2
M  V30 2 1 2 3
M  V30 3 2 3 4
M  V30 4 1 4 5
M  V30 5 1 5 6
M  V30 6 2 6 7
M  V30 7 1 7 8
M  V30 8 2 8 9
M  V30 9 1 9 10
M  V30 10 2 10 11
M  V30 11 1 11 12
M  V30 12 2 12 13
M  V30 13 1 13 14
M  V30 14 1 14 15
M  V30 15 2 15 16
M  V30 16 1 16 17
M  V30 17 2 17 18
M  V30 18 1 18 19
M  V30 19 1 19 20
M  V30 20 1 20 21
M  V30 21 1 21 22
M  V30 22 1 21 23
M  V30 23 2 19 24
M  V30 24 1 13 25
M  V30 25 2 25 26
M  V30 26 2 5 27
M  V30 27 1 27 28
M  V30 28 2 28 29
M  V30 29 1 29 30
M  V30 30 1 29 3
M  V30 31 1 26 6
M  V30 32 1 25 9
M  V30 33 1 24 15
M  V30 34 1 1 31
M  V30 35 1 1 32
M  V30 36 1 1 33
M  V30 37 1 4 34
M  V30 38 1 7 35
M  V30 39 1 8 36
M  V30 40 1 11 37
M  V30 41 1 14 38
M  V30 42 1 16 39
M  V30 43 1 17 40
M  V30 44 1 18 41
M  V30 45 1 21 42
M  V30 46 1 24 43
M  V30 47 1 26 44
M  V30 48 1 27 45
M  V30 49 1 28 46
M  V30 50 1 30 47
M  V30 END BOND
M  V30 END CTAB
M  END
>  <Dataset>  (801) 
ChEMBL_Kinases

>  <Ligand_Instance>  (801) 
nan

>  <PDB_ID>  (801) 
nan

>  <Standardized_SMILES>  (801) 
COc1cc(-c2ccc3ncnc(Nc4cccc(OC(F)F)c4)c3c2)ccc1O

>  <Name>  (801) 
nan

>  <Pocket>  (801) 
nan

>  <ATP_Site>  (801) 
nan

>  <Peripheral>  (801) 
nan

>  <Num_H_Atoms_ProtBoundConf>  (801) 
nan

>  <Num_Resolved_Atoms>  (801) 
nan

>  <Num_Not_Resolved_Atoms>  (801) 
nan

$$$$
CHEMBL3662750
     RDKit          3D

  0  0  0  0  0  0  0  0  0  0999 V3000
M  V30 BEGIN CTAB
M  V30 COUNTS 61 65 0 0 0
M  V30 BEGIN ATOM
M  V30 1 C 1.005634 -0.328729 2.313509 0
M  V30 2 C 2.291740 -0.777187 1.658064 0 CFG=1
M  V30 3 C 2.409445 -2.274792 1.940557 0
M  V30 4 N 3.395022 -2.887491 1.077985 0
M  V30 5 C 4.366512 -3.664538 1.821431 0
M  V30 6 C 5.534793 -3.761570 0.861412 0
M  V30 7 C 5.280136 -2.711726 -0.200787 0
M  V30 8 C 4.224797 -1.850416 0.494488 0 CFG=1
M  V30 9 C 3.381181 -1.110770 -0.511082 0
M  V30 10 N 2.257194 -0.546627 0.208915 0
M  V30 11 C 1.377479 0.106226 -0.685061 0
M  V30 12 O 2.156657 -0.228111 -1.584529 0
M  V30 13 N 0.196002 0.836918 -0.872047 0
M  V30 14 C -0.953283 1.428676 -0.217645 0
M  V30 15 C -2.123148 0.930115 -0.945028 0
M  V30 16 C -3.455334 0.507085 -1.010944 0
M  V30 17 N -4.279349 0.473609 0.157305 0
M  V30 18 C -4.150538 -0.809686 0.770989 0
M  V30 19 O -3.348611 -1.560900 0.118451 0
M  V30 20 C -4.872888 -1.182737 2.007544 0
M  V30 21 C -5.728395 -0.379975 2.702837 0
M  V30 22 C -6.303129 -0.917711 3.835741 0
M  V30 23 C -6.056136 -2.194970 4.281292 0
M  V30 24 Cl -6.860714 -2.760201 5.751347 0
M  V30 25 C -5.185021 -2.985572 3.556771 0
M  V30 26 Cl -4.897388 -4.614618 4.163188 0
M  V30 27 C -4.601045 -2.483953 2.433313 0
M  V30 28 N -3.724303 0.183044 -2.288660 0
M  V30 29 N -2.666800 0.365085 -3.050936 0
M  V30 30 C -1.672264 0.824218 -2.242083 0
M  V30 31 C -0.237852 1.281575 -2.155788 0
M  V30 32 C -0.273460 2.770431 -2.331706 0
M  V30 33 C 0.529158 0.624923 -3.311447 0
M  V30 34 H 0.175755 -0.858650 1.812822 0
M  V30 35 H 1.040317 -0.712545 3.363115 0
M  V30 36 H 0.892936 0.777420 2.294077 0
M  V30 37 H 3.159216 -0.209294 2.058320 0
M  V30 38 H 2.612147 -2.368086 3.007831 0
M  V30 39 H 1.426317 -2.721340 1.681380 0
M  V30 40 H 4.691130 -3.157158 2.755018 0
M  V30 41 H 3.989622 -4.694029 2.012390 0
M  V30 42 H 6.517858 -3.558201 1.351086 0
M  V30 43 H 5.622393 -4.782576 0.424935 0
M  V30 44 H 4.797042 -3.119247 -1.109897 0
M  V30 45 H 6.191095 -2.113322 -0.413862 0
M  V30 46 H 4.717940 -1.198295 1.229144 0
M  V30 47 H 3.972107 -0.363399 -1.079081 0
M  V30 48 H 3.010352 -1.883549 -1.237632 0
M  V30 49 H -0.837688 2.533427 -0.307245 0
M  V30 50 H -0.981092 1.125083 0.836461 0
M  V30 51 H -4.912454 1.185402 0.598963 0
M  V30 52 H -5.885843 0.607309 2.311805 0
M  V30 53 H -6.984687 -0.279703 4.390615 0
M  V30 54 H -3.921728 -3.164877 1.908029 0
M  V30 55 H -2.577431 0.197751 -4.083461 0
M  V30 56 H 0.496140 3.219166 -1.682569 0
M  V30 57 H 0.065930 2.986742 -3.386843 0
M  V30 58 H -1.299871 3.201887 -2.171953 0
M  V30 59 H 1.535364 1.021240 -3.434769 0
M  V30 60 H -0.050453 0.828958 -4.261243 0
M  V30 61 H 0.493678 -0.460353 -3.179399 0
M  V30 END ATOM
M  V30 BEGIN BOND
M  V30 1 1 1 2
M  V30 2 1 2 3
M  V30 3 1 3 4
M  V30 4 1 4 5
M  V30 5 1 5 6
M  V30 6 1 6 7
M  V30 7 1 7 8
M  V30 8 1 8 9
M  V30 9 1 9 10
M  V30 10 1 10 11
M  V30 11 2 11 12
M  V30 12 1 11 13
M  V30 13 1 13 14
M  V30 14 1 14 15
M  V30 15 1 15 16
M  V30 16 1 16 17
M  V30 17 1 17 18
M  V30 18 2 18 19
M  V30 19 1 18 20
M  V30 20 2 20 21
M  V30 21 1 21 22
M  V30 22 2 22 23
M  V30 23 1 23 24
M  V30 24 1 23 25
M  V30 25 1 25 26
M  V30 26 2 25 27
M  V30 27 2 16 28
M  V30 28 1 28 29
M  V30 29 1 29 30
M  V30 30 1 30 31
M  V30 31 1 31 32
M  V30 32 1 31 33
M  V30 33 1 10 2
M  V30 34 1 31 13
M  V30 35 1 8 4
M  V30 36 2 30 15
M  V30 37 1 27 20
M  V30 38 1 1 34
M  V30 39 1 1 35
M  V30 40 1 1 36
M  V30 41 1 2 37 CFG=1
M  V30 42 1 3 38
M  V30 43 1 3 39
M  V30 44 1 5 40
M  V30 45 1 5 41
M  V30 46 1 6 42
M  V30 47 1 6 43
M  V30 48 1 7 44
M  V30 49 1 7 45
M  V30 50 1 8 46 CFG=1
M  V30 51 1 9 47
M  V30 52 1 9 48
M  V30 53 1 14 49
M  V30 54 1 14 50
M  V30 55 1 17 51
M  V30 56 1 21 52
M  V30 57 1 22 53
M  V30 58 1 27 54
M  V30 59 1 29 55
M  V30 60 1 32 56
M  V30 61 1 32 57
M  V30 62 1 32 58
M  V30 63 1 33 59
M  V30 64 1 33 60
M  V30 65 1 33 61
M  V30 END BOND
M  V30 END CTAB
M  END
>  <Dataset>  (802) 
ChEMBL_Kinases

>  <Ligand_Instance>  (802) 
nan

>  <PDB_ID>  (802) 
nan

>  <Standardized_SMILES>  (802) 
C[C@H]1CN2CCC[C@H]2CN1C(=O)N1Cc2c(NC(=O)c3ccc(Cl)c(Cl)c3)n[nH]c2C1(C)C

>  <Name>  (802) 
nan

>  <Pocket>  (802) 
nan

>  <ATP_Site>  (802) 
nan

>  <Peripheral>  (802) 
nan

>  <Num_H_Atoms_ProtBoundConf>  (802) 
nan

>  <Num_Resolved_Atoms>  (802) 
nan

>  <Num_Not_Resolved_Atoms>  (802) 
nan

$$$$
CHEMBL3661275
     RDKit          3D

  0  0  0  0  0  0  0  0  0  0999 V3000
M  V30 BEGIN CTAB
M  V30 COUNTS 49 53 0 0 0
M  V30 BEGIN ATOM
M  V30 1 C -2.327212 -3.005205 1.732631 0
M  V30 2 O -1.735009 -4.088597 1.063470 0
M  V30 3 C -0.568270 -3.905978 0.356123 0
M  V30 4 C 0.176659 -2.772698 0.172168 0
M  V30 5 C 1.333987 -2.677707 -0.549128 0
M  V30 6 C 2.058010 -1.422393 -0.703593 0
M  V30 7 C 3.421905 -1.309472 -0.851849 0
M  V30 8 C 3.995375 -0.079013 -1.004787 0
M  V30 9 C 3.227077 1.045260 -1.011007 0
M  V30 10 N 3.803813 2.266687 -1.166016 0
M  V30 11 C 3.067467 3.375168 -1.175513 0
M  V30 12 N 1.728827 3.381465 -1.037098 0
M  V30 13 C 1.082847 2.216258 -0.879314 0
M  V30 14 N -0.287744 1.882547 -0.674012 0
M  V30 15 C -0.474601 1.649184 0.739669 0
M  V30 16 C 0.500251 1.767456 1.681145 0
M  V30 17 C 0.361645 1.531798 3.048903 0
M  V30 18 C -0.886396 1.141714 3.479145 0
M  V30 19 C -1.930072 1.000719 2.564115 0
M  V30 20 C -1.689603 1.260529 1.220629 0
M  V30 21 C -2.932143 1.010665 0.658790 0
M  V30 22 N -3.808402 0.637986 1.607019 0
M  V30 23 N -3.205803 0.625507 2.798705 0
M  V30 24 C -3.736224 0.286710 4.112630 0
M  V30 25 C 1.846814 1.041368 -0.868385 0
M  V30 26 C 1.338540 -0.248948 -0.718278 0
M  V30 27 C 1.795792 -3.820861 -1.145913 0
M  V30 28 C 1.085085 -5.005054 -0.997879 0
M  V30 29 C -0.078915 -5.062728 -0.262012 0
M  V30 30 O -0.722062 -6.289345 -0.169342 0
M  V30 31 H -3.065547 -2.574233 0.999985 0
M  V30 32 H -2.936748 -3.333030 2.607057 0
M  V30 33 H -1.549552 -2.311644 2.048429 0
M  V30 34 H -0.194604 -1.877376 0.645036 0
M  V30 35 H 3.969474 -2.227541 -0.837680 0
M  V30 36 H 5.073593 0.010282 -1.121649 0
M  V30 37 H 3.451061 4.390236 -1.296474 0
M  V30 38 H -1.104460 1.786257 -1.306651 0
M  V30 39 H 1.506393 2.071920 1.392659 0
M  V30 40 H 1.209504 1.657072 3.727041 0
M  V30 41 H -1.009902 0.952194 4.541337 0
M  V30 42 H -3.141241 1.108110 -0.408227 0
M  V30 43 H -4.263565 1.122598 4.571498 0
M  V30 44 H -2.870411 -0.041621 4.759155 0
M  V30 45 H -4.342623 -0.631860 3.965706 0
M  V30 46 H 0.258505 -0.336338 -0.601948 0
M  V30 47 H 2.712843 -3.742531 -1.714185 0
M  V30 48 H 1.457790 -5.916538 -1.476229 0
M  V30 49 H -1.009246 -6.646432 0.729724 0
M  V30 END ATOM
M  V30 BEGIN BOND
M  V30 1 1 1 2
M  V30 2 1 2 3
M  V30 3 2 3 4
M  V30 4 1 4 5
M  V30 5 1 5 6
M  V30 6 2 6 7
M  V30 7 1 7 8
M  V30 8 2 8 9
M  V30 9 1 9 10
M  V30 10 2 10 11
M  V30 11 1 11 12
M  V30 12 2 12 13
M  V30 13 1 13 14
M  V30 14 1 14 15
M  V30 15 2 15 16
M  V30 16 1 16 17
M  V30 17 2 17 18
M  V30 18 1 18 19
M  V30 19 2 19 20
M  V30 20 1 20 21
M  V30 21 2 21 22
M  V30 22 1 22 23
M  V30 23 1 23 24
M  V30 24 1 13 25
M  V30 25 2 25 26
M  V30 26 2 5 27
M  V30 27 1 27 28
M  V30 28 2 28 29
M  V30 29 1 29 30
M  V30 30 1 29 3
M  V30 31 1 26 6
M  V30 32 1 25 9
M  V30 33 1 20 15
M  V30 34 1 23 19
M  V30 35 1 1 31
M  V30 36 1 1 32
M  V30 37 1 1 33
M  V30 38 1 4 34
M  V30 39 1 7 35
M  V30 40 1 8 36
M  V30 41 1 11 37
M  V30 42 1 14 38
M  V30 43 1 16 39
M  V30 44 1 17 40
M  V30 45 1 18 41
M  V30 46 1 21 42
M  V30 47 1 24 43
M  V30 48 1 24 44
M  V30 49 1 24 45
M  V30 50 1 26 46
M  V30 51 1 27 47
M  V30 52 1 28 48
M  V30 53 1 30 49
M  V30 END BOND
M  V30 END CTAB
M  END
>  <Dataset>  (803) 
ChEMBL_Kinases

>  <Ligand_Instance>  (803) 
nan

>  <PDB_ID>  (803) 
nan

>  <Standardized_SMILES>  (803) 
COc1cc(-c2ccc3ncnc(Nc4cccc5c4cnn5C)c3c2)ccc1O

>  <Name>  (803) 
nan

>  <Pocket>  (803) 
nan

>  <ATP_Site>  (803) 
nan

>  <Peripheral>  (803) 
nan

>  <Num_H_Atoms_ProtBoundConf>  (803) 
nan

>  <Num_Resolved_Atoms>  (803) 
nan

>  <Num_Not_Resolved_Atoms>  (803) 
nan

$$$$
CHEMBL3661276
     RDKit          3D

  0  0  0  0  0  0  0  0  0  0999 V3000
M  V30 BEGIN CTAB
M  V30 COUNTS 45 48 0 0 0
M  V30 BEGIN ATOM
M  V30 1 C -1.247605 -4.236837 3.198662 0
M  V30 2 O -0.687327 -4.777495 2.046705 0
M  V30 3 C 0.154695 -4.075701 1.219262 0
M  V30 4 C 0.653564 -2.795643 1.244258 0
M  V30 5 C 1.502888 -2.323219 0.269628 0
M  V30 6 C 1.978872 -0.947504 0.387725 0
M  V30 7 C 3.262712 -0.716149 -0.133154 0
M  V30 8 C 3.686779 0.589439 -0.008388 0
M  V30 9 C 2.986625 1.631255 0.557434 0
M  V30 10 N 3.557038 2.838541 0.601304 0
M  V30 11 C 2.932838 3.908480 1.148762 0
M  V30 12 C 1.657571 3.638515 1.654767 0
M  V30 13 C 1.038901 2.398505 1.623915 0
M  V30 14 N -0.260475 2.179559 2.156164 0
M  V30 15 C -1.393459 1.760559 1.365191 0
M  V30 16 C -2.595375 1.360696 1.911660 0
M  V30 17 C -3.653580 0.982323 1.092048 0
M  V30 18 C -3.515168 1.002217 -0.270863 0
M  V30 19 C -2.340305 1.391907 -0.878780 0
M  V30 20 O -2.218119 1.406176 -2.253438 0
M  V30 21 C -1.326541 1.755603 -0.027274 0
M  V30 22 C 1.735409 1.355728 1.052149 0
M  V30 23 C 1.248108 0.071493 0.961554 0
M  V30 24 C 1.906458 -3.108613 -0.795919 0
M  V30 25 C 1.411022 -4.387587 -0.825922 0
M  V30 26 C 0.549128 -4.886670 0.152092 0
M  V30 27 O 0.165192 -6.216064 -0.072074 0
M  V30 28 H -0.804104 -3.265225 3.477141 0
M  V30 29 H -1.145282 -4.883118 4.105912 0
M  V30 30 H -2.335339 -4.095458 3.009841 0
M  V30 31 H 0.293129 -2.247212 2.105597 0
M  V30 32 H 3.855415 -1.492828 -0.587252 0
M  V30 33 H 4.692195 0.789875 -0.412583 0
M  V30 34 H 3.309340 4.920289 1.230962 0
M  V30 35 H 1.124087 4.448488 2.095966 0
M  V30 36 H -0.448609 2.315732 3.155723 0
M  V30 37 H -2.611250 1.376909 3.002338 0
M  V30 38 H -4.557394 0.682916 1.583633 0
M  V30 39 H -4.341109 0.707239 -0.906049 0
M  V30 40 H -2.413115 2.277936 -2.750011 0
M  V30 41 H -0.389124 2.067442 -0.486447 0
M  V30 42 H 0.264154 -0.155013 1.358945 0
M  V30 43 H 2.568374 -2.741420 -1.556276 0
M  V30 44 H 1.744798 -4.992313 -1.679136 0
M  V30 45 H 0.832824 -6.886754 -0.405624 0
M  V30 END ATOM
M  V30 BEGIN BOND
M  V30 1 1 1 2
M  V30 2 1 2 3
M  V30 3 2 3 4
M  V30 4 1 4 5
M  V30 5 1 5 6
M  V30 6 2 6 7
M  V30 7 1 7 8
M  V30 8 2 8 9
M  V30 9 1 9 10
M  V30 10 2 10 11
M  V30 11 1 11 12
M  V30 12 2 12 13
M  V30 13 1 13 14
M  V30 14 1 14 15
M  V30 15 2 15 16
M  V30 16 1 16 17
M  V30 17 2 17 18
M  V30 18 1 18 19
M  V30 19 1 19 20
M  V30 20 2 19 21
M  V30 21 1 13 22
M  V30 22 2 22 23
M  V30 23 2 5 24
M  V30 24 1 24 25
M  V30 25 2 25 26
M  V30 26 1 26 27
M  V30 27 1 26 3
M  V30 28 1 23 6
M  V30 29 1 22 9
M  V30 30 1 21 15
M  V30 31 1 1 28
M  V30 32 1 1 29
M  V30 33 1 1 30
M  V30 34 1 4 31
M  V30 35 1 7 32
M  V30 36 1 8 33
M  V30 37 1 11 34
M  V30 38 1 12 35
M  V30 39 1 14 36
M  V30 40 1 16 37
M  V30 41 1 17 38
M  V30 42 1 18 39
M  V30 43 1 20 40
M  V30 44 1 21 41
M  V30 45 1 23 42
M  V30 46 1 24 43
M  V30 47 1 25 44
M  V30 48 1 27 45
M  V30 END BOND
M  V30 END CTAB
M  END
>  <Dataset>  (804) 
ChEMBL_Kinases

>  <Ligand_Instance>  (804) 
nan

>  <PDB_ID>  (804) 
nan

>  <Standardized_SMILES>  (804) 
COc1cc(-c2ccc3nccc(Nc4cccc(O)c4)c3c2)ccc1O

>  <Name>  (804) 
nan

>  <Pocket>  (804) 
nan

>  <ATP_Site>  (804) 
nan

>  <Peripheral>  (804) 
nan

>  <Num_H_Atoms_ProtBoundConf>  (804) 
nan

>  <Num_Resolved_Atoms>  (804) 
nan

>  <Num_Not_Resolved_Atoms>  (804) 
nan

$$$$
CHEMBL3661277
     RDKit          3D

  0  0  0  0  0  0  0  0  0  0999 V3000
M  V30 BEGIN CTAB
M  V30 COUNTS 45 48 0 0 0
M  V30 BEGIN ATOM
M  V30 1 C -1.337277 -3.396982 2.106348 0
M  V30 2 O -0.686337 -4.371279 1.319213 0
M  V30 3 C 0.139845 -3.914847 0.274681 0
M  V30 4 C 0.304287 -2.554377 0.032278 0
M  V30 5 C 1.098636 -2.082164 -0.972810 0
M  V30 6 C 1.224240 -0.634719 -1.168327 0
M  V30 7 C 1.434011 -0.190684 -2.461434 0
M  V30 8 C 1.550455 1.195842 -2.619239 0
M  V30 9 C 1.464841 2.096612 -1.561239 0
M  V30 10 N 1.591084 3.413915 -1.775170 0
M  V30 11 C 1.518254 4.298811 -0.768679 0
M  V30 12 C 1.307334 3.777900 0.487335 0
M  V30 13 C 1.165400 2.425255 0.793435 0
M  V30 14 N 0.953585 2.004216 2.133256 0
M  V30 15 C -0.101041 1.324429 2.801969 0
M  V30 16 C -1.273164 0.905359 2.215088 0
M  V30 17 C -2.273648 0.247954 2.899285 0
M  V30 18 O -3.426073 -0.140226 2.228517 0
M  V30 19 C -2.089877 -0.001731 4.238231 0
M  V30 20 C -0.907930 0.423884 4.818114 0
M  V30 21 C 0.092751 1.080082 4.139133 0
M  V30 22 F 1.219368 1.458115 4.800838 0
M  V30 23 C 1.255075 1.601552 -0.296263 0
M  V30 24 C 1.139942 0.260213 -0.122267 0
M  V30 25 C 1.776026 -2.986254 -1.794425 0
M  V30 26 C 1.607640 -4.331722 -1.547525 0
M  V30 27 C 0.810230 -4.818928 -0.538161 0
M  V30 28 O 0.608039 -6.157787 -0.249053 0
M  V30 29 H -0.686381 -2.826891 2.767815 0
M  V30 30 H -1.898383 -2.659858 1.468348 0
M  V30 31 H -2.116191 -3.938924 2.686759 0
M  V30 32 H -0.205929 -1.858741 0.650755 0
M  V30 33 H 1.514400 -0.815217 -3.346812 0
M  V30 34 H 1.717454 1.564659 -3.640241 0
M  V30 35 H 1.619394 5.351274 -0.938753 0
M  V30 36 H 1.249586 4.499035 1.294760 0
M  V30 37 H 1.817127 2.315143 2.619399 0
M  V30 38 H -1.385948 1.117746 1.159358 0
M  V30 39 H -4.305631 -0.210933 2.758176 0
M  V30 40 H -2.827684 -0.506859 4.823365 0
M  V30 41 H -0.770210 0.222669 5.877370 0
M  V30 42 H 0.983809 -0.168529 0.853330 0
M  V30 43 H 2.401711 -2.631626 -2.585797 0
M  V30 44 H 2.119220 -5.059799 -2.167036 0
M  V30 45 H 1.436795 -6.698596 0.026221 0
M  V30 END ATOM
M  V30 BEGIN BOND
M  V30 1 1 1 2
M  V30 2 1 2 3
M  V30 3 2 3 4
M  V30 4 1 4 5
M  V30 5 1 5 6
M  V30 6 2 6 7
M  V30 7 1 7 8
M  V30 8 2 8 9
M  V30 9 1 9 10
M  V30 10 2 10 11
M  V30 11 1 11 12
M  V30 12 2 12 13
M  V30 13 1 13 14
M  V30 14 1 14 15
M  V30 15 2 15 16
M  V30 16 1 16 17
M  V30 17 1 17 18
M  V30 18 2 17 19
M  V30 19 1 19 20
M  V30 20 2 20 21
M  V30 21 1 21 22
M  V30 22 1 13 23
M  V30 23 2 23 24
M  V30 24 2 5 25
M  V30 25 1 25 26
M  V30 26 2 26 27
M  V30 27 1 27 28
M  V30 28 1 27 3
M  V30 29 1 24 6
M  V30 30 1 23 9
M  V30 31 1 21 15
M  V30 32 1 1 29
M  V30 33 1 1 30
M  V30 34 1 1 31
M  V30 35 1 4 32
M  V30 36 1 7 33
M  V30 37 1 8 34
M  V30 38 1 11 35
M  V30 39 1 12 36
M  V30 40 1 14 37
M  V30 41 1 16 38
M  V30 42 1 18 39
M  V30 43 1 19 40
M  V30 44 1 20 41
M  V30 45 1 24 42
M  V30 46 1 25 43
M  V30 47 1 26 44
M  V30 48 1 28 45
M  V30 END BOND
M  V30 END CTAB
M  END
>  <Dataset>  (805) 
ChEMBL_Kinases

>  <Ligand_Instance>  (805) 
nan

>  <PDB_ID>  (805) 
nan

>  <Standardized_SMILES>  (805) 
COc1cc(-c2ccc3nccc(Nc4cc(O)ccc4F)c3c2)ccc1O

>  <Name>  (805) 
nan

>  <Pocket>  (805) 
nan

>  <ATP_Site>  (805) 
nan

>  <Peripheral>  (805) 
nan

>  <Num_H_Atoms_ProtBoundConf>  (805) 
nan

>  <Num_Resolved_Atoms>  (805) 
nan

>  <Num_Not_Resolved_Atoms>  (805) 
nan

$$$$
CHEMBL3661278
     RDKit          3D

  0  0  0  0  0  0  0  0  0  0999 V3000
M  V30 BEGIN CTAB
M  V30 COUNTS 42 46 0 0 0
M  V30 BEGIN ATOM
M  V30 1 N 5.746400 -5.890082 0.506590 0
M  V30 2 C 4.857929 -5.173631 0.696773 0
M  V30 3 C 3.744326 -4.295008 0.949999 0
M  V30 4 C 2.963596 -4.555789 2.058481 0
M  V30 5 C 1.895263 -3.742881 2.317058 0
M  V30 6 C 1.637702 -2.689809 1.458021 0
M  V30 7 C 2.406638 -2.400524 0.331632 0
M  V30 8 C 2.019189 -1.266647 -0.514273 0
M  V30 9 C 2.287444 -1.268623 -1.890293 0
M  V30 10 C 1.886673 -0.188283 -2.682557 0
M  V30 11 C 1.225230 0.896667 -2.144559 0
M  V30 12 N 0.801321 1.965448 -2.839603 0
M  V30 13 C 0.150799 3.001397 -2.285959 0
M  V30 14 N -0.087309 2.962965 -0.965003 0
M  V30 15 C 0.320665 1.911866 -0.234616 0
M  V30 16 N -0.024023 2.000155 1.163702 0
M  V30 17 C -1.216963 1.252661 1.439383 0
M  V30 18 C -1.909387 0.551991 0.478483 0
M  V30 19 C -3.067260 -0.193783 0.702762 0
M  V30 20 C -3.539656 -0.221141 1.987185 0
M  V30 21 C -2.903111 0.454925 3.007191 0
M  V30 22 N -3.198960 0.556909 4.325445 0
M  V30 23 N -2.259790 1.331967 4.873996 0
M  V30 24 C -1.385008 1.712087 3.912992 0
M  V30 25 C -1.759642 1.174075 2.709107 0
M  V30 26 C 0.993578 0.834687 -0.788409 0
M  V30 27 C 1.354995 -0.191862 0.067295 0
M  V30 28 C 3.480889 -3.229263 0.084383 0
M  V30 29 H 3.157030 -5.378315 2.736030 0
M  V30 30 H 1.286289 -3.947959 3.185490 0
M  V30 31 H 0.760656 -2.091048 1.748026 0
M  V30 32 H 2.810154 -2.116580 -2.348764 0
M  V30 33 H 2.083547 -0.166858 -3.752993 0
M  V30 34 H -0.171778 3.839971 -2.890812 0
M  V30 35 H 0.419526 2.485818 1.965257 0
M  V30 36 H -1.568256 0.548588 -0.554523 0
M  V30 37 H -3.555861 -0.722391 -0.123889 0
M  V30 38 H -4.448395 -0.809351 2.153000 0
M  V30 39 H -4.017653 0.092095 4.753594 0
M  V30 40 H -0.531097 2.342736 4.095472 0
M  V30 41 H 1.127574 -0.144846 1.123523 0
M  V30 42 H 4.091628 -3.024878 -0.782900 0
M  V30 END ATOM
M  V30 BEGIN BOND
M  V30 1 3 1 2
M  V30 2 1 2 3
M  V30 3 2 3 4
M  V30 4 1 4 5
M  V30 5 2 5 6
M  V30 6 1 6 7
M  V30 7 1 7 8
M  V30 8 2 8 9
M  V30 9 1 9 10
M  V30 10 2 10 11
M  V30 11 1 11 12
M  V30 12 2 12 13
M  V30 13 1 13 14
M  V30 14 2 14 15
M  V30 15 1 15 16
M  V30 16 1 16 17
M  V30 17 2 17 18
M  V30 18 1 18 19
M  V30 19 2 19 20
M  V30 20 1 20 21
M  V30 21 1 21 22
M  V30 22 1 22 23
M  V30 23 2 23 24
M  V30 24 1 24 25
M  V30 25 1 15 26
M  V30 26 2 26 27
M  V30 27 2 7 28
M  V30 28 1 28 3
M  V30 29 1 27 8
M  V30 30 1 26 11
M  V30 31 1 25 17
M  V30 32 2 25 21
M  V30 33 1 4 29
M  V30 34 1 5 30
M  V30 35 1 6 31
M  V30 36 1 9 32
M  V30 37 1 10 33
M  V30 38 1 13 34
M  V30 39 1 16 35
M  V30 40 1 18 36
M  V30 41 1 19 37
M  V30 42 1 20 38
M  V30 43 1 22 39
M  V30 44 1 24 40
M  V30 45 1 27 41
M  V30 46 1 28 42
M  V30 END BOND
M  V30 END CTAB
M  END
>  <Dataset>  (806) 
ChEMBL_Kinases

>  <Ligand_Instance>  (806) 
nan

>  <PDB_ID>  (806) 
nan

>  <Standardized_SMILES>  (806) 
N#Cc1cccc(-c2ccc3ncnc(Nc4cccc5[nH]ncc45)c3c2)c1

>  <Name>  (806) 
nan

>  <Pocket>  (806) 
nan

>  <ATP_Site>  (806) 
nan

>  <Peripheral>  (806) 
nan

>  <Num_H_Atoms_ProtBoundConf>  (806) 
nan

>  <Num_Resolved_Atoms>  (806) 
nan

>  <Num_Not_Resolved_Atoms>  (806) 
nan

$$$$
CHEMBL3661279
     RDKit          3D

  0  0  0  0  0  0  0  0  0  0999 V3000
M  V30 BEGIN CTAB
M  V30 COUNTS 47 51 0 0 0
M  V30 BEGIN ATOM
M  V30 1 C -2.537156 -3.680563 1.732584 0
M  V30 2 O -2.842580 -3.717578 0.368619 0
M  V30 3 C -2.208279 -3.019554 -0.635675 0
M  V30 4 C -1.149144 -2.156192 -0.449882 0
M  V30 5 C -0.620211 -1.530011 -1.559270 0
M  V30 6 C 0.490466 -0.615918 -1.425289 0
M  V30 7 C 1.384006 -0.531809 -2.490817 0
M  V30 8 C 2.492264 0.277839 -2.540662 0
M  V30 9 C 2.722778 1.067125 -1.430996 0
M  V30 10 N 3.786399 1.887753 -1.415628 0
M  V30 11 C 4.084898 2.694553 -0.382672 0
M  V30 12 C 3.197308 2.605412 0.668535 0
M  V30 13 C 2.060755 1.790753 0.764199 0
M  V30 14 N 1.261301 1.839834 1.935086 0
M  V30 15 C 0.913022 0.892079 2.933064 0
M  V30 16 C 1.347825 -0.412165 2.971655 0
M  V30 17 C 0.997192 -1.315887 3.951887 0
M  V30 18 C 0.157526 -0.884497 4.956896 0
M  V30 19 C -0.268203 0.422318 4.903736 0
M  V30 20 N -1.091561 1.057156 5.779872 0
M  V30 21 N -1.280915 2.318401 5.404765 0
M  V30 22 C -0.574893 2.534605 4.260254 0
M  V30 23 C 0.073183 1.338630 3.930581 0
M  V30 24 C 1.861198 1.011927 -0.355898 0
M  V30 25 C 0.760297 0.188894 -0.341339 0
M  V30 26 C -1.165542 -1.786390 -2.814188 0
M  V30 27 C -2.224468 -2.647951 -3.009825 0
M  V30 28 C -2.752710 -3.277266 -1.877992 0
M  V30 29 O -3.816163 -4.134750 -2.122764 0
M  V30 30 H -3.320668 -3.191130 2.345117 0
M  V30 31 H -1.580946 -3.206315 1.994001 0
M  V30 32 H -2.486345 -4.736119 2.107173 0
M  V30 33 H -0.777047 -2.005299 0.554182 0
M  V30 34 H 1.230548 -1.145240 -3.388110 0
M  V30 35 H 3.145734 0.302058 -3.387605 0
M  V30 36 H 4.913228 3.366377 -0.312898 0
M  V30 37 H 3.395737 3.245713 1.540845 0
M  V30 38 H 0.914449 2.822232 1.955830 0
M  V30 39 H 2.016110 -0.703490 2.145118 0
M  V30 40 H 1.421029 -2.319100 3.850812 0
M  V30 41 H -0.110820 -1.587133 5.712729 0
M  V30 42 H -1.529462 0.639993 6.636001 0
M  V30 43 H -0.439953 3.387095 3.622128 0
M  V30 44 H 0.091816 0.147239 0.476132 0
M  V30 45 H -0.774675 -1.308937 -3.724654 0
M  V30 46 H -2.628689 -2.828695 -3.998081 0
M  V30 47 H -3.948552 -5.040267 -1.715962 0
M  V30 END ATOM
M  V30 BEGIN BOND
M  V30 1 1 1 2
M  V30 2 1 2 3
M  V30 3 2 3 4
M  V30 4 1 4 5
M  V30 5 1 5 6
M  V30 6 2 6 7
M  V30 7 1 7 8
M  V30 8 2 8 9
M  V30 9 1 9 10
M  V30 10 2 10 11
M  V30 11 1 11 12
M  V30 12 2 12 13
M  V30 13 1 13 14
M  V30 14 1 14 15
M  V30 15 2 15 16
M  V30 16 1 16 17
M  V30 17 2 17 18
M  V30 18 1 18 19
M  V30 19 1 19 20
M  V30 20 1 20 21
M  V30 21 2 21 22
M  V30 22 1 22 23
M  V30 23 1 13 24
M  V30 24 2 24 25
M  V30 25 2 5 26
M  V30 26 1 26 27
M  V30 27 2 27 28
M  V30 28 1 28 29
M  V30 29 1 28 3
M  V30 30 1 25 6
M  V30 31 1 24 9
M  V30 32 1 23 15
M  V30 33 2 23 19
M  V30 34 1 1 30
M  V30 35 1 1 31
M  V30 36 1 1 32
M  V30 37 1 4 33
M  V30 38 1 7 34
M  V30 39 1 8 35
M  V30 40 1 11 36
M  V30 41 1 12 37
M  V30 42 1 14 38
M  V30 43 1 16 39
M  V30 44 1 17 40
M  V30 45 1 18 41
M  V30 46 1 20 42
M  V30 47 1 22 43
M  V30 48 1 25 44
M  V30 49 1 26 45
M  V30 50 1 27 46
M  V30 51 1 29 47
M  V30 END BOND
M  V30 END CTAB
M  END
>  <Dataset>  (807) 
ChEMBL_Kinases

>  <Ligand_Instance>  (807) 
nan

>  <PDB_ID>  (807) 
nan

>  <Standardized_SMILES>  (807) 
COc1cc(-c2ccc3nccc(Nc4cccc5[nH]ncc45)c3c2)ccc1O

>  <Name>  (807) 
nan

>  <Pocket>  (807) 
nan

>  <ATP_Site>  (807) 
nan

>  <Peripheral>  (807) 
nan

>  <Num_H_Atoms_ProtBoundConf>  (807) 
nan

>  <Num_Resolved_Atoms>  (807) 
nan

>  <Num_Not_Resolved_Atoms>  (807) 
nan

$$$$
CHEMBL3661280
     RDKit          3D

  0  0  0  0  0  0  0  0  0  0999 V3000
M  V30 BEGIN CTAB
M  V30 COUNTS 44 48 0 0 0
M  V30 BEGIN ATOM
M  V30 1 C 1.541819 -1.572271 2.815232 0
M  V30 2 C 2.412331 -1.838851 1.664718 0
M  V30 3 C 2.848394 -3.152301 1.548203 0
M  V30 4 C 3.671195 -3.580091 0.532448 0
M  V30 5 C 4.077718 -2.650194 -0.410227 0
M  V30 6 F 4.900204 -3.039620 -1.439180 0
M  V30 7 C 3.667450 -1.338144 -0.330483 0
M  V30 8 C 2.840011 -0.944166 0.702817 0
M  V30 9 C 2.360042 0.443819 0.804479 0
M  V30 10 C 3.128494 1.586204 0.710235 0
M  V30 11 C 2.574341 2.835879 0.792925 0
M  V30 12 C 1.224570 2.955784 0.974275 0
M  V30 13 N 0.735878 4.219186 1.040741 0
M  V30 14 C -0.589240 4.334095 1.209917 0
M  V30 15 N -1.475781 3.308016 1.319832 0
M  V30 16 C -1.030335 2.014408 1.259509 0
M  V30 17 N -1.635077 0.756229 1.329944 0
M  V30 18 C -2.024755 -0.150106 0.338595 0
M  V30 19 C -1.855646 0.159423 -0.990889 0
M  V30 20 C -2.223428 -0.774214 -1.951743 0
M  V30 21 C -2.750704 -1.993298 -1.556042 0
M  V30 22 C -2.915156 -2.289029 -0.211402 0
M  V30 23 N -3.378435 -3.347682 0.494132 0
M  V30 24 N -3.315244 -3.117272 1.794814 0
M  V30 25 C -2.799976 -1.877229 2.027189 0
M  V30 26 C -2.547891 -1.356418 0.753506 0
M  V30 27 C 0.345614 1.876848 1.082810 0
M  V30 28 C 1.018177 0.655928 0.984714 0
M  V30 29 H 1.518883 -0.513603 3.148898 0
M  V30 30 H 1.934976 -2.128988 3.725819 0
M  V30 31 H 0.530687 -2.013697 2.659909 0
M  V30 32 H 2.558777 -3.934572 2.261238 0
M  V30 33 H 3.998502 -4.600549 0.459175 0
M  V30 34 H 3.967058 -0.581505 -1.059722 0
M  V30 35 H 4.199043 1.403435 0.566039 0
M  V30 36 H 3.242450 3.673342 0.711525 0
M  V30 37 H -1.069289 5.304188 1.270850 0
M  V30 38 H -1.728875 0.646302 2.360409 0
M  V30 39 H -1.438872 1.129665 -1.301716 0
M  V30 40 H -2.112228 -0.581419 -3.013268 0
M  V30 41 H -3.050836 -2.750201 -2.262919 0
M  V30 42 H -3.744003 -4.245997 0.053544 0
M  V30 43 H -2.604100 -1.356497 2.949743 0
M  V30 44 H 0.391145 -0.245658 1.056992 0
M  V30 END ATOM
M  V30 BEGIN BOND
M  V30 1 1 1 2
M  V30 2 2 2 3
M  V30 3 1 3 4
M  V30 4 2 4 5
M  V30 5 1 5 6
M  V30 6 1 5 7
M  V30 7 2 7 8
M  V30 8 1 8 9
M  V30 9 2 9 10
M  V30 10 1 10 11
M  V30 11 2 11 12
M  V30 12 1 12 13
M  V30 13 2 13 14
M  V30 14 1 14 15
M  V30 15 2 15 16
M  V30 16 1 16 17
M  V30 17 1 17 18
M  V30 18 2 18 19
M  V30 19 1 19 20
M  V30 20 2 20 21
M  V30 21 1 21 22
M  V30 22 1 22 23
M  V30 23 1 23 24
M  V30 24 2 24 25
M  V30 25 1 25 26
M  V30 26 1 16 27
M  V30 27 2 27 28
M  V30 28 1 8 2
M  V30 29 1 28 9
M  V30 30 1 27 12
M  V30 31 1 26 18
M  V30 32 2 26 22
M  V30 33 1 1 29
M  V30 34 1 1 30
M  V30 35 1 1 31
M  V30 36 1 3 32
M  V30 37 1 4 33
M  V30 38 1 7 34
M  V30 39 1 10 35
M  V30 40 1 11 36
M  V30 41 1 14 37
M  V30 42 1 17 38
M  V30 43 1 19 39
M  V30 44 1 20 40
M  V30 45 1 21 41
M  V30 46 1 23 42
M  V30 47 1 25 43
M  V30 48 1 28 44
M  V30 END BOND
M  V30 END CTAB
M  END
>  <Dataset>  (808) 
ChEMBL_Kinases

>  <Ligand_Instance>  (808) 
nan

>  <PDB_ID>  (808) 
nan

>  <Standardized_SMILES>  (808) 
Cc1ccc(F)cc1-c1ccc2ncnc(Nc3cccc4[nH]ncc34)c2c1

>  <Name>  (808) 
nan

>  <Pocket>  (808) 
nan

>  <ATP_Site>  (808) 
nan

>  <Peripheral>  (808) 
nan

>  <Num_H_Atoms_ProtBoundConf>  (808) 
nan

>  <Num_Resolved_Atoms>  (808) 
nan

>  <Num_Not_Resolved_Atoms>  (808) 
nan

$$$$
CHEMBL3661281
     RDKit          3D

  0  0  0  0  0  0  0  0  0  0999 V3000
M  V30 BEGIN CTAB
M  V30 COUNTS 49 53 0 0 0
M  V30 BEGIN ATOM
M  V30 1 C -0.141950 -6.704939 -0.065226 0
M  V30 2 O 0.092604 -5.446653 -0.652381 0
M  V30 3 C 0.668766 -4.448080 0.112240 0
M  V30 4 C 1.038547 -4.603690 1.428902 0
M  V30 5 C 1.611990 -3.597180 2.181882 0
M  V30 6 C 1.799061 -2.390005 1.518937 0
M  V30 7 C 1.448963 -2.155681 0.181276 0
M  V30 8 C 1.748572 -0.812197 -0.279236 0
M  V30 9 C 2.440680 -0.318027 -1.359100 0
M  V30 10 C 2.587109 1.022696 -1.620805 0
M  V30 11 C 2.024567 1.941659 -0.777580 0
M  V30 12 N 2.158502 3.267937 -1.023102 0
M  V30 13 C 1.600006 4.184751 -0.189775 0
M  V30 14 N 0.910836 3.762700 0.884390 0
M  V30 15 C 0.737529 2.464964 1.189494 0
M  V30 16 N -0.008148 2.042311 2.329695 0
M  V30 17 C -1.362089 1.648769 2.534696 0
M  V30 18 C -1.716304 0.396734 3.033044 0
M  V30 19 C -2.993707 -0.040549 3.241497 0
M  V30 20 C -4.027865 0.814603 2.939585 0
M  V30 21 C -3.755469 2.059249 2.447051 0
M  V30 22 N -4.558028 3.093348 2.068655 0
M  V30 23 N -3.825981 4.097176 1.655940 0
M  V30 24 C -2.540302 3.726603 1.761681 0
M  V30 25 C -2.448239 2.449399 2.255830 0
M  V30 26 C 1.316380 1.526824 0.325884 0
M  V30 27 C 1.198161 0.185540 0.544128 0
M  V30 28 C 0.885621 -3.220417 -0.479095 0
M  V30 29 O 0.519305 -3.050972 -1.791455 0
M  V30 30 C 1.442713 -3.375783 -2.808783 0
M  V30 31 H 0.728858 -7.392174 -0.083956 0
M  V30 32 H -0.926179 -7.237612 -0.687738 0
M  V30 33 H -0.495719 -6.633475 0.968661 0
M  V30 34 H 0.891650 -5.545613 1.937429 0
M  V30 35 H 1.904532 -3.712941 3.214852 0
M  V30 36 H 2.256625 -1.604907 2.138474 0
M  V30 37 H 2.862867 -1.084724 -1.974040 0
M  V30 38 H 3.153662 1.284551 -2.502095 0
M  V30 39 H 1.698633 5.248425 -0.371775 0
M  V30 40 H 0.456416 1.974140 3.277454 0
M  V30 41 H -0.895691 -0.290908 3.276839 0
M  V30 42 H -3.148638 -1.033483 3.633770 0
M  V30 43 H -5.056407 0.497903 3.093369 0
M  V30 44 H -5.602585 3.037315 2.121253 0
M  V30 45 H -1.731945 4.365554 1.489623 0
M  V30 46 H 0.626798 -0.066260 1.437696 0
M  V30 47 H 1.018849 -4.238643 -3.369503 0
M  V30 48 H 1.567347 -2.537369 -3.538891 0
M  V30 49 H 2.431996 -3.658321 -2.404094 0
M  V30 END ATOM
M  V30 BEGIN BOND
M  V30 1 1 1 2
M  V30 2 1 2 3
M  V30 3 2 3 4
M  V30 4 1 4 5
M  V30 5 2 5 6
M  V30 6 1 6 7
M  V30 7 1 7 8
M  V30 8 2 8 9
M  V30 9 1 9 10
M  V30 10 2 10 11
M  V30 11 1 11 12
M  V30 12 2 12 13
M  V30 13 1 13 14
M  V30 14 2 14 15
M  V30 15 1 15 16
M  V30 16 1 16 17
M  V30 17 2 17 18
M  V30 18 1 18 19
M  V30 19 2 19 20
M  V30 20 1 20 21
M  V30 21 1 21 22
M  V30 22 1 22 23
M  V30 23 2 23 24
M  V30 24 1 24 25
M  V30 25 1 15 26
M  V30 26 2 26 27
M  V30 27 2 7 28
M  V30 28 1 28 29
M  V30 29 1 29 30
M  V30 30 1 28 3
M  V30 31 1 27 8
M  V30 32 1 26 11
M  V30 33 1 25 17
M  V30 34 2 25 21
M  V30 35 1 1 31
M  V30 36 1 1 32
M  V30 37 1 1 33
M  V30 38 1 4 34
M  V30 39 1 5 35
M  V30 40 1 6 36
M  V30 41 1 9 37
M  V30 42 1 10 38
M  V30 43 1 13 39
M  V30 44 1 16 40
M  V30 45 1 18 41
M  V30 46 1 19 42
M  V30 47 1 20 43
M  V30 48 1 22 44
M  V30 49 1 24 45
M  V30 50 1 27 46
M  V30 51 1 30 47
M  V30 52 1 30 48
M  V30 53 1 30 49
M  V30 END BOND
M  V30 END CTAB
M  END
>  <Dataset>  (809) 
ChEMBL_Kinases

>  <Ligand_Instance>  (809) 
nan

>  <PDB_ID>  (809) 
nan

>  <Standardized_SMILES>  (809) 
COc1cccc(-c2ccc3ncnc(Nc4cccc5[nH]ncc45)c3c2)c1OC

>  <Name>  (809) 
nan

>  <Pocket>  (809) 
nan

>  <ATP_Site>  (809) 
nan

>  <Peripheral>  (809) 
nan

>  <Num_H_Atoms_ProtBoundConf>  (809) 
nan

>  <Num_Resolved_Atoms>  (809) 
nan

>  <Num_Not_Resolved_Atoms>  (809) 
nan

$$$$
CHEMBL3661291
     RDKit          3D

  0  0  0  0  0  0  0  0  0  0999 V3000
M  V30 BEGIN CTAB
M  V30 COUNTS 48 52 0 0 0
M  V30 BEGIN ATOM
M  V30 1 C -0.827023 -6.336902 3.293320 0
M  V30 2 O 0.063650 -5.954108 2.280092 0
M  V30 3 C 0.458309 -4.676056 1.984871 0
M  V30 4 C 0.062411 -3.502763 2.621793 0
M  V30 5 C 0.566596 -2.294430 2.186033 0
M  V30 6 C 1.456607 -2.184402 1.135637 0
M  V30 7 C 1.969858 -0.889542 0.700862 0
M  V30 8 C 3.239823 -0.737766 0.153347 0
M  V30 9 C 3.723828 0.503429 -0.260242 0
M  V30 10 C 2.941744 1.632820 -0.134804 0
M  V30 11 N 3.340118 2.855942 -0.509730 0
M  V30 12 C 2.541378 3.914296 -0.364785 0
M  V30 13 C 1.265463 3.759591 0.185655 0
M  V30 14 C 0.842794 2.509647 0.575050 0
M  V30 15 N -0.473030 2.546624 1.106804 0
M  V30 16 C -1.733488 1.991618 0.840205 0
M  V30 17 C -2.440071 1.207025 1.709368 0
M  V30 18 C -3.676080 0.669427 1.430649 0
M  V30 19 C -4.186979 0.980698 0.165858 0
M  V30 20 C -3.531278 1.764435 -0.760350 0
M  V30 21 N -3.870877 2.156483 -1.999339 0
M  V30 22 N -2.873369 2.914879 -2.473358 0
M  V30 23 C -1.913549 2.991293 -1.522379 0
M  V30 24 C -2.278743 2.272936 -0.399890 0
M  V30 25 C 1.697096 1.440579 0.409293 0
M  V30 26 C 1.178824 0.235237 0.830747 0
M  V30 27 C 1.848471 -3.364682 0.502451 0
M  V30 28 C 1.357408 -4.580597 0.921547 0
M  V30 29 C 1.863208 -5.713661 0.158151 0
M  V30 30 O 2.659270 -5.692931 -0.792438 0
M  V30 31 H -1.473196 -7.198644 2.975654 0
M  V30 32 H -1.435137 -5.507070 3.705043 0
M  V30 33 H -0.220576 -6.725311 4.158151 0
M  V30 34 H -0.632873 -3.634987 3.436012 0
M  V30 35 H 0.235539 -1.389602 2.708136 0
M  V30 36 H 3.862749 -1.638565 0.053732 0
M  V30 37 H 4.720105 0.588514 -0.683835 0
M  V30 38 H 3.012677 4.829612 -0.716643 0
M  V30 39 H 0.754179 4.731187 0.227863 0
M  V30 40 H -0.625476 3.146565 1.951768 0
M  V30 41 H -2.016082 0.982304 2.687414 0
M  V30 42 H -4.247166 0.052854 2.095603 0
M  V30 43 H -5.159794 0.575401 -0.093041 0
M  V30 44 H -4.735425 1.935807 -2.528246 0
M  V30 45 H -0.987053 3.538611 -1.624366 0
M  V30 46 H 0.190768 0.132677 1.254353 0
M  V30 47 H 2.551112 -3.241484 -0.321968 0
M  V30 48 H 1.677304 -6.764199 0.234676 0
M  V30 END ATOM
M  V30 BEGIN BOND
M  V30 1 1 1 2
M  V30 2 1 2 3
M  V30 3 2 3 4
M  V30 4 1 4 5
M  V30 5 2 5 6
M  V30 6 1 6 7
M  V30 7 2 7 8
M  V30 8 1 8 9
M  V30 9 2 9 10
M  V30 10 1 10 11
M  V30 11 2 11 12
M  V30 12 1 12 13
M  V30 13 2 13 14
M  V30 14 1 14 15
M  V30 15 1 15 16
M  V30 16 2 16 17
M  V30 17 1 17 18
M  V30 18 2 18 19
M  V30 19 1 19 20
M  V30 20 1 20 21
M  V30 21 1 21 22
M  V30 22 2 22 23
M  V30 23 1 23 24
M  V30 24 1 14 25
M  V30 25 2 25 26
M  V30 26 1 6 27
M  V30 27 2 27 28
M  V30 28 1 28 29
M  V30 29 2 29 30
M  V30 30 1 28 3
M  V30 31 1 26 7
M  V30 32 1 25 10
M  V30 33 1 24 16
M  V30 34 2 24 20
M  V30 35 1 1 31
M  V30 36 1 1 32
M  V30 37 1 1 33
M  V30 38 1 4 34
M  V30 39 1 5 35
M  V30 40 1 8 36
M  V30 41 1 9 37
M  V30 42 1 12 38
M  V30 43 1 13 39
M  V30 44 1 15 40
M  V30 45 1 17 41
M  V30 46 1 18 42
M  V30 47 1 19 43
M  V30 48 1 21 44
M  V30 49 1 23 45
M  V30 50 1 26 46
M  V30 51 1 27 47
M  V30 52 1 29 48
M  V30 END BOND
M  V30 END CTAB
M  END
>  <Dataset>  (810) 
ChEMBL_Kinases

>  <Ligand_Instance>  (810) 
nan

>  <PDB_ID>  (810) 
nan

>  <Standardized_SMILES>  (810) 
COc1ccc(-c2ccc3nccc(Nc4cccc5[nH]ncc45)c3c2)cc1C=O

>  <Name>  (810) 
nan

>  <Pocket>  (810) 
nan

>  <ATP_Site>  (810) 
nan

>  <Peripheral>  (810) 
nan

>  <Num_H_Atoms_ProtBoundConf>  (810) 
nan

>  <Num_Resolved_Atoms>  (810) 
nan

>  <Num_Not_Resolved_Atoms>  (810) 
nan

$$$$
CHEMBL3661283
     RDKit          3D

  0  0  0  0  0  0  0  0  0  0999 V3000
M  V30 BEGIN CTAB
M  V30 COUNTS 52 56 0 0 0
M  V30 BEGIN ATOM
M  V30 1 C 2.141186 -2.211295 3.454183 0
M  V30 2 C 2.325788 -2.621896 2.018265 0
M  V30 3 S 3.945335 -2.330317 1.407637 0
M  V30 4 O 3.977196 -2.810696 -0.029834 0
M  V30 5 O 4.910336 -3.158134 2.168581 0
M  V30 6 N 4.446694 -0.707138 1.449762 0
M  V30 7 C 3.919771 0.445197 0.808015 0
M  V30 8 C 4.744231 1.370217 0.153428 0
M  V30 9 C 4.285673 2.502313 -0.487568 0
M  V30 10 C 2.930179 2.753112 -0.492724 0
M  V30 11 C 2.068006 1.876262 0.136646 0
M  V30 12 C 0.636841 2.167193 0.115716 0
M  V30 13 C 0.204362 3.477079 0.107481 0
M  V30 14 C -1.150038 3.729101 0.087966 0
M  V30 15 C -2.040777 2.679564 0.077057 0
M  V30 16 N -3.368270 2.993358 0.057911 0
M  V30 17 C -4.289258 2.010638 0.046583 0
M  V30 18 N -3.872849 0.753314 0.054474 0
M  V30 19 C -2.606604 0.332091 0.072943 0
M  V30 20 N -2.158278 -1.002896 0.081385 0
M  V30 21 C -2.931916 -2.185583 0.071324 0
M  V30 22 C -4.305130 -2.184360 0.050669 0
M  V30 23 C -5.104952 -3.305558 0.039939 0
M  V30 24 C -4.509166 -4.551302 0.050346 0
M  V30 25 C -3.137362 -4.612922 0.071047 0
M  V30 26 N -2.271596 -5.632131 0.085156 0
M  V30 27 N -1.008187 -5.232911 0.103647 0
M  V30 28 C -1.085358 -3.889929 0.100980 0
M  V30 29 C -2.414636 -3.462145 0.080587 0
M  V30 30 C -1.682559 1.350032 0.084260 0
M  V30 31 C -0.317358 1.173168 0.103837 0
M  V30 32 C 2.591038 0.762050 0.759690 0
M  V30 33 H 1.142216 -2.641626 3.758603 0
M  V30 34 H 2.923669 -2.573226 4.123810 0
M  V30 35 H 2.032245 -1.122702 3.609138 0
M  V30 36 H 1.519072 -2.222990 1.408697 0
M  V30 37 H 2.182310 -3.739285 2.002495 0
M  V30 38 H 5.287706 -0.403057 2.027561 0
M  V30 39 H 5.822254 1.159568 0.164276 0
M  V30 40 H 5.032333 3.132301 -0.953689 0
M  V30 41 H 2.627877 3.652549 -1.008845 0
M  V30 42 H 0.896856 4.293899 0.115969 0
M  V30 43 H -1.483272 4.761605 0.081636 0
M  V30 44 H -5.356847 2.212336 0.031289 0
M  V30 45 H -1.151977 -1.242842 0.096920 0
M  V30 46 H -4.904266 -1.288683 0.040599 0
M  V30 47 H -6.167142 -3.305862 0.024121 0
M  V30 48 H -5.070470 -5.473719 0.042772 0
M  V30 49 H -2.586237 -6.629255 0.081431 0
M  V30 50 H -0.220420 -3.251393 0.113279 0
M  V30 51 H 0.089892 0.177788 0.111155 0
M  V30 52 H 1.876203 0.132575 1.223082 0
M  V30 END ATOM
M  V30 BEGIN BOND
M  V30 1 1 1 2
M  V30 2 1 2 3
M  V30 3 2 3 4
M  V30 4 2 3 5
M  V30 5 1 3 6
M  V30 6 1 6 7
M  V30 7 2 7 8
M  V30 8 1 8 9
M  V30 9 2 9 10
M  V30 10 1 10 11
M  V30 11 1 11 12
M  V30 12 2 12 13
M  V30 13 1 13 14
M  V30 14 2 14 15
M  V30 15 1 15 16
M  V30 16 2 16 17
M  V30 17 1 17 18
M  V30 18 2 18 19
M  V30 19 1 19 20
M  V30 20 1 20 21
M  V30 21 2 21 22
M  V30 22 1 22 23
M  V30 23 2 23 24
M  V30 24 1 24 25
M  V30 25 1 25 26
M  V30 26 1 26 27
M  V30 27 2 27 28
M  V30 28 1 28 29
M  V30 29 1 19 30
M  V30 30 2 30 31
M  V30 31 2 11 32
M  V30 32 1 32 7
M  V30 33 1 31 12
M  V30 34 1 30 15
M  V30 35 1 29 21
M  V30 36 2 29 25
M  V30 37 1 1 33
M  V30 38 1 1 34
M  V30 39 1 1 35
M  V30 40 1 2 36
M  V30 41 1 2 37
M  V30 42 1 6 38
M  V30 43 1 8 39
M  V30 44 1 9 40
M  V30 45 1 10 41
M  V30 46 1 13 42
M  V30 47 1 14 43
M  V30 48 1 17 44
M  V30 49 1 20 45
M  V30 50 1 22 46
M  V30 51 1 23 47
M  V30 52 1 24 48
M  V30 53 1 26 49
M  V30 54 1 28 50
M  V30 55 1 31 51
M  V30 56 1 32 52
M  V30 END BOND
M  V30 END CTAB
M  END
>  <Dataset>  (811) 
ChEMBL_Kinases

>  <Ligand_Instance>  (811) 
nan

>  <PDB_ID>  (811) 
nan

>  <Standardized_SMILES>  (811) 
CCS(=O)(=O)Nc1cccc(-c2ccc3ncnc(Nc4cccc5[nH]ncc45)c3c2)c1

>  <Name>  (811) 
nan

>  <Pocket>  (811) 
nan

>  <ATP_Site>  (811) 
nan

>  <Peripheral>  (811) 
nan

>  <Num_H_Atoms_ProtBoundConf>  (811) 
nan

>  <Num_Resolved_Atoms>  (811) 
nan

>  <Num_Not_Resolved_Atoms>  (811) 
nan

$$$$
CHEMBL3661284
     RDKit          3D

  0  0  0  0  0  0  0  0  0  0999 V3000
M  V30 BEGIN CTAB
M  V30 COUNTS 55 59 0 0 0
M  V30 BEGIN ATOM
M  V30 1 C 2.478464 -1.364535 4.266698 0
M  V30 2 C 3.317759 -0.325718 4.948198 0
M  V30 3 C 3.812917 0.774631 4.086896 0
M  V30 4 S 4.823341 0.337533 2.741767 0
M  V30 5 O 5.276252 1.605952 2.043548 0
M  V30 6 O 6.086797 -0.294286 3.283401 0
M  V30 7 N 4.158336 -0.679987 1.574119 0
M  V30 8 C 3.041533 -0.486509 0.716871 0
M  V30 9 C 3.157783 -0.843227 -0.634463 0
M  V30 10 C 2.171958 -0.718002 -1.588519 0
M  V30 11 C 0.962419 -0.195660 -1.180864 0
M  V30 12 C 0.809195 0.167847 0.143244 0
M  V30 13 C -0.505718 0.711293 0.492790 0
M  V30 14 C -0.610322 1.668700 1.504845 0
M  V30 15 C -1.881738 2.160057 1.804863 0
M  V30 16 C -3.000909 1.717861 1.127730 0
M  V30 17 N -4.244880 2.158012 1.357904 0
M  V30 18 C -5.314698 1.720294 0.676367 0
M  V30 19 N -5.174668 0.803030 -0.282840 0
M  V30 20 C -3.983622 0.293617 -0.596420 0
M  V30 21 N -3.923562 -0.661912 -1.617524 0
M  V30 22 C -3.142501 -1.631694 -2.273747 0
M  V30 23 C -2.726097 -1.580366 -3.608264 0
M  V30 24 C -1.983170 -2.591034 -4.172944 0
M  V30 25 C -1.665940 -3.659419 -3.366888 0
M  V30 26 C -2.022258 -3.811384 -2.047896 0
M  V30 27 N -1.836062 -4.732813 -1.090127 0
M  V30 28 N -2.440696 -4.297060 0.005408 0
M  V30 29 C -3.017386 -3.103107 -0.229530 0
M  V30 30 C -2.756204 -2.768269 -1.562538 0
M  V30 31 C -2.915843 0.774335 0.128452 0
M  V30 32 C -1.665195 0.315078 -0.142066 0
M  V30 33 C 1.818233 0.028146 1.069599 0
M  V30 34 H 2.366416 -2.273776 4.904205 0
M  V30 35 H 1.457756 -0.926129 4.113311 0
M  V30 36 H 2.963930 -1.707527 3.348874 0
M  V30 37 H 4.104214 -0.816692 5.557001 0
M  V30 38 H 2.640006 0.148334 5.714366 0
M  V30 39 H 4.431182 1.448301 4.752373 0
M  V30 40 H 2.958260 1.406099 3.766600 0
M  V30 41 H 4.588221 -1.639614 1.396572 0
M  V30 42 H 4.110012 -1.252499 -0.944604 0
M  V30 43 H 2.395936 -1.036201 -2.609252 0
M  V30 44 H 0.222623 -0.115741 -1.964539 0
M  V30 45 H 0.240065 2.034999 2.052546 0
M  V30 46 H -2.068485 2.904860 2.570681 0
M  V30 47 H -6.305996 2.102930 0.891399 0
M  V30 48 H -4.793612 -0.793151 -2.214667 0
M  V30 49 H -3.027431 -0.696961 -4.159400 0
M  V30 50 H -1.673412 -2.530670 -5.202445 0
M  V30 51 H -1.078528 -4.430654 -3.857421 0
M  V30 52 H -1.292421 -5.619129 -1.264634 0
M  V30 53 H -3.572157 -2.548045 0.519665 0
M  V30 54 H -1.493526 -0.408014 -0.914223 0
M  V30 55 H 1.668512 0.316943 2.072769 0
M  V30 END ATOM
M  V30 BEGIN BOND
M  V30 1 1 1 2
M  V30 2 1 2 3
M  V30 3 1 3 4
M  V30 4 2 4 5
M  V30 5 2 4 6
M  V30 6 1 4 7
M  V30 7 1 7 8
M  V30 8 2 8 9
M  V30 9 1 9 10
M  V30 10 2 10 11
M  V30 11 1 11 12
M  V30 12 1 12 13
M  V30 13 2 13 14
M  V30 14 1 14 15
M  V30 15 2 15 16
M  V30 16 1 16 17
M  V30 17 2 17 18
M  V30 18 1 18 19
M  V30 19 2 19 20
M  V30 20 1 20 21
M  V30 21 1 21 22
M  V30 22 2 22 23
M  V30 23 1 23 24
M  V30 24 2 24 25
M  V30 25 1 25 26
M  V30 26 1 26 27
M  V30 27 1 27 28
M  V30 28 2 28 29
M  V30 29 1 29 30
M  V30 30 1 20 31
M  V30 31 2 31 32
M  V30 32 2 12 33
M  V30 33 1 33 8
M  V30 34 1 32 13
M  V30 35 1 31 16
M  V30 36 1 30 22
M  V30 37 2 30 26
M  V30 38 1 1 34
M  V30 39 1 1 35
M  V30 40 1 1 36
M  V30 41 1 2 37
M  V30 42 1 2 38
M  V30 43 1 3 39
M  V30 44 1 3 40
M  V30 45 1 7 41
M  V30 46 1 9 42
M  V30 47 1 10 43
M  V30 48 1 11 44
M  V30 49 1 14 45
M  V30 50 1 15 46
M  V30 51 1 18 47
M  V30 52 1 21 48
M  V30 53 1 23 49
M  V30 54 1 24 50
M  V30 55 1 25 51
M  V30 56 1 27 52
M  V30 57 1 29 53
M  V30 58 1 32 54
M  V30 59 1 33 55
M  V30 END BOND
M  V30 END CTAB
M  END
>  <Dataset>  (812) 
ChEMBL_Kinases

>  <Ligand_Instance>  (812) 
nan

>  <PDB_ID>  (812) 
nan

>  <Standardized_SMILES>  (812) 
CCCS(=O)(=O)Nc1cccc(-c2ccc3ncnc(Nc4cccc5[nH]ncc45)c3c2)c1

>  <Name>  (812) 
nan

>  <Pocket>  (812) 
nan

>  <ATP_Site>  (812) 
nan

>  <Peripheral>  (812) 
nan

>  <Num_H_Atoms_ProtBoundConf>  (812) 
nan

>  <Num_Resolved_Atoms>  (812) 
nan

>  <Num_Not_Resolved_Atoms>  (812) 
nan

$$$$
CHEMBL3661285
     RDKit          3D

  0  0  0  0  0  0  0  0  0  0999 V3000
M  V30 BEGIN CTAB
M  V30 COUNTS 47 51 0 0 0
M  V30 BEGIN ATOM
M  V30 1 C 0.549687 -1.684254 7.803427 0
M  V30 2 S 2.136553 -1.394718 7.044362 0
M  V30 3 O 2.893159 -0.493157 8.003520 0
M  V30 4 O 2.818547 -2.711659 6.896225 0
M  V30 5 C 1.999711 -0.563836 5.524546 0
M  V30 6 C 1.867359 -1.406754 4.426278 0
M  V30 7 C 1.747866 -0.873120 3.139756 0
M  V30 8 C 1.762080 0.513406 2.962042 0
M  V30 9 C 1.634739 1.055209 1.603042 0
M  V30 10 C 2.218136 2.242880 1.182381 0
M  V30 11 C 2.047553 2.680396 -0.114804 0
M  V30 12 C 1.304354 1.973157 -1.036860 0
M  V30 13 N 1.118720 2.369048 -2.302553 0
M  V30 14 C 0.386677 1.671195 -3.207302 0
M  V30 15 N -0.180069 0.508074 -2.781081 0
M  V30 16 C -0.011683 0.084356 -1.516377 0
M  V30 17 N -0.650671 -1.139937 -1.191069 0
M  V30 18 C -1.416665 -1.825412 -2.168698 0
M  V30 19 C -1.124801 -3.116235 -2.606010 0
M  V30 20 C -1.860419 -3.781356 -3.546139 0
M  V30 21 C -2.957423 -3.159361 -4.106963 0
M  V30 22 C -3.287731 -1.874620 -3.703711 0
M  V30 23 N -4.307464 -1.098946 -4.120224 0
M  V30 24 N -4.206192 0.034956 -3.446163 0
M  V30 25 C -3.137848 -0.006661 -2.606964 0
M  V30 26 C -2.519610 -1.232199 -2.749190 0
M  V30 27 C 0.733319 0.796051 -0.598425 0
M  V30 28 C 0.887697 0.337003 0.689529 0
M  V30 29 C 1.895633 1.351791 4.072809 0
M  V30 30 C 2.012522 0.797515 5.338822 0
M  V30 31 H 0.734197 -2.449926 8.590020 0
M  V30 32 H -0.165724 -2.137966 7.083778 0
M  V30 33 H 0.123721 -0.763458 8.250118 0
M  V30 34 H 1.849124 -2.500102 4.496178 0
M  V30 35 H 1.645023 -1.568796 2.293442 0
M  V30 36 H 2.795378 2.778326 1.923720 0
M  V30 37 H 2.512040 3.599075 -0.401210 0
M  V30 38 H 0.261629 2.029096 -4.224854 0
M  V30 39 H -0.675589 -1.685733 -0.307024 0
M  V30 40 H -0.251918 -3.581909 -2.144513 0
M  V30 41 H -1.618270 -4.785107 -3.873968 0
M  V30 42 H -3.566852 -3.658551 -4.858811 0
M  V30 43 H -5.035930 -1.312960 -4.819135 0
M  V30 44 H -2.827857 0.785927 -1.941655 0
M  V30 45 H 0.431050 -0.576500 0.989634 0
M  V30 46 H 1.907547 2.426317 3.944719 0
M  V30 47 H 2.118782 1.405184 6.236953 0
M  V30 END ATOM
M  V30 BEGIN BOND
M  V30 1 1 1 2
M  V30 2 2 2 3
M  V30 3 2 2 4
M  V30 4 1 2 5
M  V30 5 2 5 6
M  V30 6 1 6 7
M  V30 7 2 7 8
M  V30 8 1 8 9
M  V30 9 2 9 10
M  V30 10 1 10 11
M  V30 11 2 11 12
M  V30 12 1 12 13
M  V30 13 2 13 14
M  V30 14 1 14 15
M  V30 15 2 15 16
M  V30 16 1 16 17
M  V30 17 1 17 18
M  V30 18 2 18 19
M  V30 19 1 19 20
M  V30 20 2 20 21
M  V30 21 1 21 22
M  V30 22 1 22 23
M  V30 23 1 23 24
M  V30 24 2 24 25
M  V30 25 1 25 26
M  V30 26 1 16 27
M  V30 27 2 27 28
M  V30 28 1 8 29
M  V30 29 2 29 30
M  V30 30 1 30 5
M  V30 31 1 28 9
M  V30 32 1 27 12
M  V30 33 1 26 18
M  V30 34 2 26 22
M  V30 35 1 1 31
M  V30 36 1 1 32
M  V30 37 1 1 33
M  V30 38 1 6 34
M  V30 39 1 7 35
M  V30 40 1 10 36
M  V30 41 1 11 37
M  V30 42 1 14 38
M  V30 43 1 17 39
M  V30 44 1 19 40
M  V30 45 1 20 41
M  V30 46 1 21 42
M  V30 47 1 23 43
M  V30 48 1 25 44
M  V30 49 1 28 45
M  V30 50 1 29 46
M  V30 51 1 30 47
M  V30 END BOND
M  V30 END CTAB
M  END
>  <Dataset>  (813) 
ChEMBL_Kinases

>  <Ligand_Instance>  (813) 
nan

>  <PDB_ID>  (813) 
nan

>  <Standardized_SMILES>  (813) 
CS(=O)(=O)c1ccc(-c2ccc3ncnc(Nc4cccc5[nH]ncc45)c3c2)cc1

>  <Name>  (813) 
nan

>  <Pocket>  (813) 
nan

>  <ATP_Site>  (813) 
nan

>  <Peripheral>  (813) 
nan

>  <Num_H_Atoms_ProtBoundConf>  (813) 
nan

>  <Num_Resolved_Atoms>  (813) 
nan

>  <Num_Not_Resolved_Atoms>  (813) 
nan

$$$$
CHEMBL3661286
     RDKit          3D

  0  0  0  0  0  0  0  0  0  0999 V3000
M  V30 BEGIN CTAB
M  V30 COUNTS 46 50 0 0 0
M  V30 BEGIN ATOM
M  V30 1 C 1.246034 -5.465745 2.807523 0
M  V30 2 O 1.072697 -4.291292 2.041905 0
M  V30 3 C 1.875182 -3.201852 2.345928 0
M  V30 4 C 2.826787 -3.227466 3.360525 0
M  V30 5 C 3.635652 -2.152300 3.678312 0
M  V30 6 C 3.505207 -0.982957 2.960395 0
M  V30 7 C 2.573230 -0.924896 1.950336 0
M  V30 8 C 2.387097 0.294970 1.148439 0
M  V30 9 C 3.441743 1.026810 0.637315 0
M  V30 10 C 3.211172 2.177637 -0.117879 0
M  V30 11 C 1.913298 2.581971 -0.351923 0
M  V30 12 N 1.582327 3.671579 -1.064044 0
M  V30 13 C 0.338226 4.088721 -1.307954 0
M  V30 14 C -0.695315 3.339202 -0.785676 0
M  V30 15 C -0.426895 2.200571 -0.039527 0
M  V30 16 N -1.586899 1.545496 0.423348 0
M  V30 17 C -2.272564 0.310864 0.353778 0
M  V30 18 C -2.553809 -0.469243 1.456122 0
M  V30 19 C -3.229932 -1.652177 1.244252 0
M  V30 20 C -3.614691 -2.044758 -0.035935 0
M  V30 21 C -3.334273 -1.265488 -1.141031 0
M  V30 22 N -3.608766 -1.451097 -2.444657 0
M  V30 23 N -3.113402 -0.389997 -3.092876 0
M  V30 24 C -2.541695 0.441829 -2.217710 0
M  V30 25 C -2.650477 -0.066149 -0.939032 0
M  V30 26 C 0.885823 1.830374 0.171572 0
M  V30 27 C 1.083907 0.706805 0.909575 0
M  V30 28 C 1.770629 -2.015010 1.646588 0
M  V30 29 F 0.840158 -1.994122 0.656565 0
M  V30 30 H 1.215642 -5.276084 3.900872 0
M  V30 31 H 0.432165 -6.208949 2.620950 0
M  V30 32 H 2.251398 -5.862220 2.588193 0
M  V30 33 H 2.936574 -4.141899 3.930100 0
M  V30 34 H 4.362031 -2.213817 4.473604 0
M  V30 35 H 4.095674 -0.093280 3.140315 0
M  V30 36 H 4.454918 0.690692 0.833582 0
M  V30 37 H 4.015519 2.763960 -0.526346 0
M  V30 38 H 0.182496 4.994651 -1.903119 0
M  V30 39 H -1.694049 3.703073 -1.000648 0
M  V30 40 H -2.191712 2.146281 1.046224 0
M  V30 41 H -2.244162 -0.141469 2.437287 0
M  V30 42 H -3.448142 -2.263640 2.125324 0
M  V30 43 H -4.143359 -2.998783 -0.081473 0
M  V30 44 H -4.117835 -2.290380 -2.816465 0
M  V30 45 H -2.054819 1.384642 -2.441050 0
M  V30 46 H 0.275507 0.138472 1.306315 0
M  V30 END ATOM
M  V30 BEGIN BOND
M  V30 1 1 1 2
M  V30 2 1 2 3
M  V30 3 2 3 4
M  V30 4 1 4 5
M  V30 5 2 5 6
M  V30 6 1 6 7
M  V30 7 1 7 8
M  V30 8 2 8 9
M  V30 9 1 9 10
M  V30 10 2 10 11
M  V30 11 1 11 12
M  V30 12 2 12 13
M  V30 13 1 13 14
M  V30 14 2 14 15
M  V30 15 1 15 16
M  V30 16 1 16 17
M  V30 17 2 17 18
M  V30 18 1 18 19
M  V30 19 2 19 20
M  V30 20 1 20 21
M  V30 21 1 21 22
M  V30 22 1 22 23
M  V30 23 2 23 24
M  V30 24 1 24 25
M  V30 25 1 15 26
M  V30 26 2 26 27
M  V30 27 2 7 28
M  V30 28 1 28 29
M  V30 29 1 28 3
M  V30 30 1 27 8
M  V30 31 1 26 11
M  V30 32 1 25 17
M  V30 33 2 25 21
M  V30 34 1 1 30
M  V30 35 1 1 31
M  V30 36 1 1 32
M  V30 37 1 4 33
M  V30 38 1 5 34
M  V30 39 1 6 35
M  V30 40 1 9 36
M  V30 41 1 10 37
M  V30 42 1 13 38
M  V30 43 1 14 39
M  V30 44 1 16 40
M  V30 45 1 18 41
M  V30 46 1 19 42
M  V30 47 1 20 43
M  V30 48 1 22 44
M  V30 49 1 24 45
M  V30 50 1 27 46
M  V30 END BOND
M  V30 END CTAB
M  END
>  <Dataset>  (814) 
ChEMBL_Kinases

>  <Ligand_Instance>  (814) 
nan

>  <PDB_ID>  (814) 
nan

>  <Standardized_SMILES>  (814) 
COc1cccc(-c2ccc3nccc(Nc4cccc5[nH]ncc45)c3c2)c1F

>  <Name>  (814) 
nan

>  <Pocket>  (814) 
nan

>  <ATP_Site>  (814) 
nan

>  <Peripheral>  (814) 
nan

>  <Num_H_Atoms_ProtBoundConf>  (814) 
nan

>  <Num_Resolved_Atoms>  (814) 
nan

>  <Num_Not_Resolved_Atoms>  (814) 
nan

$$$$
CHEMBL3661287
     RDKit          3D

  0  0  0  0  0  0  0  0  0  0999 V3000
M  V30 BEGIN CTAB
M  V30 COUNTS 46 50 0 0 0
M  V30 BEGIN ATOM
M  V30 1 C 1.259235 -5.164383 5.164045 0
M  V30 2 O 2.169705 -4.901318 4.096786 0
M  V30 3 C 2.130138 -3.707538 3.366231 0
M  V30 4 C 1.236291 -2.674823 3.581769 0
M  V30 5 C 1.284497 -1.536492 2.800500 0
M  V30 6 C 2.246950 -1.455037 1.798983 0
M  V30 7 C 2.336879 -0.270730 0.945866 0
M  V30 8 C 3.545788 0.181113 0.403182 0
M  V30 9 C 3.602015 1.303133 -0.400664 0
M  V30 10 C 2.457708 2.016462 -0.693777 0
M  V30 11 N 2.404653 3.115521 -1.461377 0
M  V30 12 C 1.275398 3.793320 -1.732469 0
M  V30 13 C 0.100853 3.322929 -1.183008 0
M  V30 14 C 0.091350 2.192109 -0.381349 0
M  V30 15 N -1.208727 1.873861 0.083670 0
M  V30 16 C -2.157204 0.842295 0.037989 0
M  V30 17 C -2.638828 0.204789 1.158884 0
M  V30 18 C -3.569049 -0.804598 1.072606 0
M  V30 19 C -3.993008 -1.141300 -0.218097 0
M  V30 20 C -3.524148 -0.516139 -1.354818 0
M  V30 21 N -3.835010 -0.728317 -2.651749 0
M  V30 22 N -3.121145 0.124770 -3.379648 0
M  V30 23 C -2.358943 0.876881 -2.549348 0
M  V30 24 C -2.590930 0.494139 -1.244229 0
M  V30 25 C 1.284436 1.544473 -0.143382 0
M  V30 26 C 1.182491 0.436624 0.658820 0
M  V30 27 C 3.152447 -2.499432 1.579531 0
M  V30 28 C 3.102641 -3.649100 2.369783 0
M  V30 29 F 3.993957 -4.624260 2.120112 0
M  V30 30 H 1.471560 -4.574888 6.060895 0
M  V30 31 H 0.204143 -5.026962 4.801510 0
M  V30 32 H 1.354452 -6.244473 5.405665 0
M  V30 33 H 0.515934 -2.826482 4.389936 0
M  V30 34 H 0.585180 -0.741152 2.977212 0
M  V30 35 H 4.450188 -0.376018 0.630472 0
M  V30 36 H 4.537776 1.657884 -0.824209 0
M  V30 37 H 1.335459 4.671225 -2.364355 0
M  V30 38 H -0.768099 3.934033 -1.454797 0
M  V30 39 H -1.665625 2.622360 0.661086 0
M  V30 40 H -2.284546 0.495229 2.148043 0
M  V30 41 H -3.954809 -1.312607 1.945724 0
M  V30 42 H -4.720574 -1.927527 -0.316538 0
M  V30 43 H -4.508508 -1.423170 -3.081309 0
M  V30 44 H -1.655184 1.670687 -2.795467 0
M  V30 45 H 0.245291 0.093767 1.074524 0
M  V30 46 H 3.885219 -2.387327 0.784667 0
M  V30 END ATOM
M  V30 BEGIN BOND
M  V30 1 1 1 2
M  V30 2 1 2 3
M  V30 3 2 3 4
M  V30 4 1 4 5
M  V30 5 2 5 6
M  V30 6 1 6 7
M  V30 7 2 7 8
M  V30 8 1 8 9
M  V30 9 2 9 10
M  V30 10 1 10 11
M  V30 11 2 11 12
M  V30 12 1 12 13
M  V30 13 2 13 14
M  V30 14 1 14 15
M  V30 15 1 15 16
M  V30 16 2 16 17
M  V30 17 1 17 18
M  V30 18 2 18 19
M  V30 19 1 19 20
M  V30 20 1 20 21
M  V30 21 1 21 22
M  V30 22 2 22 23
M  V30 23 1 23 24
M  V30 24 1 14 25
M  V30 25 2 25 26
M  V30 26 1 6 27
M  V30 27 2 27 28
M  V30 28 1 28 29
M  V30 29 1 28 3
M  V30 30 1 26 7
M  V30 31 1 25 10
M  V30 32 1 24 16
M  V30 33 2 24 20
M  V30 34 1 1 30
M  V30 35 1 1 31
M  V30 36 1 1 32
M  V30 37 1 4 33
M  V30 38 1 5 34
M  V30 39 1 8 35
M  V30 40 1 9 36
M  V30 41 1 12 37
M  V30 42 1 13 38
M  V30 43 1 15 39
M  V30 44 1 17 40
M  V30 45 1 18 41
M  V30 46 1 19 42
M  V30 47 1 21 43
M  V30 48 1 23 44
M  V30 49 1 26 45
M  V30 50 1 27 46
M  V30 END BOND
M  V30 END CTAB
M  END
>  <Dataset>  (815) 
ChEMBL_Kinases

>  <Ligand_Instance>  (815) 
nan

>  <PDB_ID>  (815) 
nan

>  <Standardized_SMILES>  (815) 
COc1ccc(-c2ccc3nccc(Nc4cccc5[nH]ncc45)c3c2)cc1F

>  <Name>  (815) 
nan

>  <Pocket>  (815) 
nan

>  <ATP_Site>  (815) 
nan

>  <Peripheral>  (815) 
nan

>  <Num_H_Atoms_ProtBoundConf>  (815) 
nan

>  <Num_Resolved_Atoms>  (815) 
nan

>  <Num_Not_Resolved_Atoms>  (815) 
nan

$$$$
CHEMBL3661288
     RDKit          3D

  0  0  0  0  0  0  0  0  0  0999 V3000
M  V30 BEGIN CTAB
M  V30 COUNTS 50 54 0 0 0
M  V30 BEGIN ATOM
M  V30 1 C -4.303356 -5.020647 1.146124 0
M  V30 2 O -3.140408 -5.068070 0.341676 0
M  V30 3 C -2.057966 -4.219433 0.521746 0
M  V30 4 C -1.946645 -3.230814 1.478265 0
M  V30 5 C -0.822200 -2.433995 1.577143 0
M  V30 6 C 0.243224 -2.600090 0.712185 0
M  V30 7 C 1.469946 -1.795583 0.754290 0
M  V30 8 C 2.693105 -2.315699 0.377235 0
M  V30 9 C 3.814808 -1.491614 0.444932 0
M  V30 10 C 3.769556 -0.169670 0.872831 0
M  V30 11 N 4.827098 0.631753 0.945160 0
M  V30 12 C 4.716842 1.900212 1.368221 0
M  V30 13 C 3.471823 2.370145 1.733290 0
M  V30 14 C 2.358285 1.557379 1.666933 0
M  V30 15 N 1.183798 2.213369 2.079826 0
M  V30 16 C -0.091202 2.577955 1.569932 0
M  V30 17 C -1.279202 2.147834 2.122225 0
M  V30 18 C -2.498692 2.520036 1.602564 0
M  V30 19 C -2.515460 3.344246 0.501643 0
M  V30 20 C -1.348396 3.791428 -0.073918 0
M  V30 21 N -1.091900 4.592398 -1.138870 0
M  V30 22 N 0.219890 4.733377 -1.302778 0
M  V30 23 C 0.840877 4.018249 -0.336227 0
M  V30 24 C -0.115834 3.417421 0.448403 0
M  V30 25 C 2.506353 0.256802 1.227000 0
M  V30 26 C 1.349478 -0.490907 1.189680 0
M  V30 27 C 0.101626 -3.598969 -0.235372 0
M  V30 28 C -1.014021 -4.415805 -0.360693 0
M  V30 29 O -1.048806 -5.382736 -1.344086 0
M  V30 30 C 0.032906 -5.547510 -2.218109 0
M  V30 31 H -5.021737 -4.335653 0.614799 0
M  V30 32 H -4.828254 -5.997476 1.166351 0
M  V30 33 H -4.146325 -4.605390 2.146630 0
M  V30 34 H -2.773050 -3.103951 2.146533 0
M  V30 35 H -0.754604 -1.668886 2.329579 0
M  V30 36 H 2.777682 -3.342691 0.036553 0
M  V30 37 H 4.778182 -1.897458 0.149354 0
M  V30 38 H 5.645987 2.448180 1.382047 0
M  V30 39 H 3.480685 3.400729 2.060281 0
M  V30 40 H 1.192678 2.570508 3.075597 0
M  V30 41 H -1.205731 1.502596 2.985171 0
M  V30 42 H -3.368902 2.123122 2.116321 0
M  V30 43 H -3.499347 3.631243 0.100180 0
M  V30 44 H -1.874598 5.004436 -1.703769 0
M  V30 45 H 1.915713 3.933568 -0.203116 0
M  V30 46 H 0.411076 -0.092881 1.478992 0
M  V30 47 H 0.919023 -3.757790 -0.931608 0
M  V30 48 H -0.127516 -6.471013 -2.837837 0
M  V30 49 H 1.014131 -5.632283 -1.730811 0
M  V30 50 H 0.040902 -4.641411 -2.883234 0
M  V30 END ATOM
M  V30 BEGIN BOND
M  V30 1 1 1 2
M  V30 2 1 2 3
M  V30 3 2 3 4
M  V30 4 1 4 5
M  V30 5 2 5 6
M  V30 6 1 6 7
M  V30 7 2 7 8
M  V30 8 1 8 9
M  V30 9 2 9 10
M  V30 10 1 10 11
M  V30 11 2 11 12
M  V30 12 1 12 13
M  V30 13 2 13 14
M  V30 14 1 14 15
M  V30 15 1 15 16
M  V30 16 2 16 17
M  V30 17 1 17 18
M  V30 18 2 18 19
M  V30 19 1 19 20
M  V30 20 1 20 21
M  V30 21 1 21 22
M  V30 22 2 22 23
M  V30 23 1 23 24
M  V30 24 1 14 25
M  V30 25 2 25 26
M  V30 26 1 6 27
M  V30 27 2 27 28
M  V30 28 1 28 29
M  V30 29 1 29 30
M  V30 30 1 28 3
M  V30 31 1 26 7
M  V30 32 1 25 10
M  V30 33 1 24 16
M  V30 34 2 24 20
M  V30 35 1 1 31
M  V30 36 1 1 32
M  V30 37 1 1 33
M  V30 38 1 4 34
M  V30 39 1 5 35
M  V30 40 1 8 36
M  V30 41 1 9 37
M  V30 42 1 12 38
M  V30 43 1 13 39
M  V30 44 1 15 40
M  V30 45 1 17 41
M  V30 46 1 18 42
M  V30 47 1 19 43
M  V30 48 1 21 44
M  V30 49 1 23 45
M  V30 50 1 26 46
M  V30 51 1 27 47
M  V30 52 1 30 48
M  V30 53 1 30 49
M  V30 54 1 30 50
M  V30 END BOND
M  V30 END CTAB
M  END
>  <Dataset>  (816) 
ChEMBL_Kinases

>  <Ligand_Instance>  (816) 
nan

>  <PDB_ID>  (816) 
nan

>  <Standardized_SMILES>  (816) 
COc1ccc(-c2ccc3nccc(Nc4cccc5[nH]ncc45)c3c2)cc1OC

>  <Name>  (816) 
nan

>  <Pocket>  (816) 
nan

>  <ATP_Site>  (816) 
nan

>  <Peripheral>  (816) 
nan

>  <Num_H_Atoms_ProtBoundConf>  (816) 
nan

>  <Num_Resolved_Atoms>  (816) 
nan

>  <Num_Not_Resolved_Atoms>  (816) 
nan

$$$$
CHEMBL3661289
     RDKit          3D

  0  0  0  0  0  0  0  0  0  0999 V3000
M  V30 BEGIN CTAB
M  V30 COUNTS 43 47 0 0 0
M  V30 BEGIN ATOM
M  V30 1 N 4.095851 -3.243879 5.340308 0
M  V30 2 C 4.180649 -3.173473 4.175687 0
M  V30 3 C 4.280603 -3.110251 2.724929 0
M  V30 4 C 5.098769 -4.003780 2.060540 0
M  V30 5 C 5.216153 -3.970435 0.682836 0
M  V30 6 C 4.481357 -3.006479 -0.002273 0
M  V30 7 C 3.675825 -2.132394 0.696767 0
M  V30 8 C 2.924699 -1.136520 -0.080720 0
M  V30 9 C 3.427409 -0.611090 -1.260830 0
M  V30 10 C 2.710722 0.325533 -1.982763 0
M  V30 11 C 1.484082 0.705631 -1.474085 0
M  V30 12 N 0.812449 1.618635 -2.200655 0
M  V30 13 C -0.393936 2.096427 -1.848098 0
M  V30 14 C -0.954246 1.613085 -0.678263 0
M  V30 15 C -0.269109 0.682042 0.062042 0
M  V30 16 N -0.865309 0.194899 1.254863 0
M  V30 17 C -2.125819 0.523605 1.816714 0
M  V30 18 C -2.343418 1.109043 3.069680 0
M  V30 19 C -3.611895 1.386058 3.535383 0
M  V30 20 C -4.727860 1.094815 2.778596 0
M  V30 21 C -4.537270 0.513399 1.531841 0
M  V30 22 N -5.481923 0.151461 0.645443 0
M  V30 23 N -4.856153 -0.362073 -0.401263 0
M  V30 24 C -3.533334 -0.334976 -0.201020 0
M  V30 25 C -3.256249 0.227295 1.047844 0
M  V30 26 C 0.965560 0.195228 -0.301835 0
M  V30 27 C 1.679075 -0.729537 0.405952 0
M  V30 28 C 3.545673 -2.149353 2.064943 0
M  V30 29 H 5.644409 -4.733580 2.678486 0
M  V30 30 H 5.870478 -4.693642 0.215419 0
M  V30 31 H 4.616772 -3.033376 -1.068615 0
M  V30 32 H 4.397161 -0.946610 -1.614022 0
M  V30 33 H 3.128255 0.716929 -2.898440 0
M  V30 34 H -0.901160 2.831468 -2.462111 0
M  V30 35 H -1.919778 2.033222 -0.441522 0
M  V30 36 H -0.535277 -0.485716 1.964337 0
M  V30 37 H -1.455413 1.325277 3.637446 0
M  V30 38 H -3.725226 1.840311 4.513203 0
M  V30 39 H -5.701548 1.331285 3.187907 0
M  V30 40 H -6.513817 0.222737 0.689268 0
M  V30 41 H -2.732174 -0.679299 -0.863319 0
M  V30 42 H 1.267745 -1.125039 1.322903 0
M  V30 43 H 2.912185 -1.456261 2.565282 0
M  V30 END ATOM
M  V30 BEGIN BOND
M  V30 1 3 1 2
M  V30 2 1 2 3
M  V30 3 2 3 4
M  V30 4 1 4 5
M  V30 5 2 5 6
M  V30 6 1 6 7
M  V30 7 1 7 8
M  V30 8 2 8 9
M  V30 9 1 9 10
M  V30 10 2 10 11
M  V30 11 1 11 12
M  V30 12 2 12 13
M  V30 13 1 13 14
M  V30 14 2 14 15
M  V30 15 1 15 16
M  V30 16 1 16 17
M  V30 17 2 17 18
M  V30 18 1 18 19
M  V30 19 2 19 20
M  V30 20 1 20 21
M  V30 21 1 21 22
M  V30 22 1 22 23
M  V30 23 2 23 24
M  V30 24 1 24 25
M  V30 25 1 15 26
M  V30 26 2 26 27
M  V30 27 2 7 28
M  V30 28 1 28 3
M  V30 29 1 27 8
M  V30 30 1 26 11
M  V30 31 1 25 17
M  V30 32 2 25 21
M  V30 33 1 4 29
M  V30 34 1 5 30
M  V30 35 1 6 31
M  V30 36 1 9 32
M  V30 37 1 10 33
M  V30 38 1 13 34
M  V30 39 1 14 35
M  V30 40 1 16 36
M  V30 41 1 18 37
M  V30 42 1 19 38
M  V30 43 1 20 39
M  V30 44 1 22 40
M  V30 45 1 24 41
M  V30 46 1 27 42
M  V30 47 1 28 43
M  V30 END BOND
M  V30 END CTAB
M  END
>  <Dataset>  (817) 
ChEMBL_Kinases

>  <Ligand_Instance>  (817) 
nan

>  <PDB_ID>  (817) 
nan

>  <Standardized_SMILES>  (817) 
N#Cc1cccc(-c2ccc3nccc(Nc4cccc5[nH]ncc45)c3c2)c1

>  <Name>  (817) 
nan

>  <Pocket>  (817) 
nan

>  <ATP_Site>  (817) 
nan

>  <Peripheral>  (817) 
nan

>  <Num_H_Atoms_ProtBoundConf>  (817) 
nan

>  <Num_Resolved_Atoms>  (817) 
nan

>  <Num_Not_Resolved_Atoms>  (817) 
nan

$$$$
CHEMBL3661290
     RDKit          3D

  0  0  0  0  0  0  0  0  0  0999 V3000
M  V30 BEGIN CTAB
M  V30 COUNTS 46 50 0 0 0
M  V30 BEGIN ATOM
M  V30 1 C 1.396368 -4.894231 5.287085 0
M  V30 2 O 2.265796 -4.827875 4.157256 0
M  V30 3 C 2.250873 -3.708189 3.330579 0
M  V30 4 C 1.395092 -2.647582 3.592820 0
M  V30 5 C 1.444301 -1.573580 2.720890 0
M  V30 6 C 2.316221 -1.581462 1.643821 0
M  V30 7 C 2.292625 -0.402859 0.783153 0
M  V30 8 C 3.480111 -0.037665 0.156847 0
M  V30 9 C 3.530944 1.070229 -0.674622 0
M  V30 10 C 2.416420 1.844632 -0.909717 0
M  V30 11 N 2.373953 2.931040 -1.696565 0
M  V30 12 C 1.263570 3.661559 -1.900144 0
M  V30 13 C 0.091388 3.264000 -1.254858 0
M  V30 14 C 0.089972 2.151425 -0.435526 0
M  V30 15 N -1.186399 1.913713 0.122456 0
M  V30 16 C -2.181129 0.911997 0.146465 0
M  V30 17 C -2.615294 0.305151 1.301824 0
M  V30 18 C -3.587462 -0.672013 1.302870 0
M  V30 19 C -4.090402 -0.990655 0.036899 0
M  V30 20 C -3.678068 -0.403893 -1.130217 0
M  V30 21 N -4.070182 -0.608538 -2.411984 0
M  V30 22 N -3.353870 0.224447 -3.177929 0
M  V30 23 C -2.526059 0.941358 -2.400299 0
M  V30 24 C -2.705856 0.566482 -1.085087 0
M  V30 25 C 1.261096 1.448231 -0.270211 0
M  V30 26 C 1.167405 0.365036 0.555943 0
M  V30 27 C 3.157955 -2.647212 1.402883 0
M  V30 28 C 3.138340 -3.742099 2.253877 0
M  V30 29 Cl 4.189358 -5.122177 1.990367 0
M  V30 30 H 1.545422 -4.007016 5.945555 0
M  V30 31 H 0.364507 -4.890751 4.916493 0
M  V30 32 H 1.648089 -5.803530 5.856121 0
M  V30 33 H 0.740755 -2.727321 4.465951 0
M  V30 34 H 0.758370 -0.751504 2.952195 0
M  V30 35 H 4.376675 -0.636590 0.328455 0
M  V30 36 H 4.445283 1.364446 -1.166222 0
M  V30 37 H 1.364610 4.520910 -2.563037 0
M  V30 38 H -0.742856 3.932830 -1.495716 0
M  V30 39 H -1.577420 2.682196 0.717409 0
M  V30 40 H -2.194376 0.586933 2.256908 0
M  V30 41 H -3.959222 -1.175847 2.184092 0
M  V30 42 H -4.866885 -1.764078 -0.010084 0
M  V30 43 H -4.778035 -1.262504 -2.799874 0
M  V30 44 H -1.835494 1.684861 -2.736341 0
M  V30 45 H 0.248352 0.075784 1.045705 0
M  V30 46 H 3.823455 -2.614558 0.551416 0
M  V30 END ATOM
M  V30 BEGIN BOND
M  V30 1 1 1 2
M  V30 2 1 2 3
M  V30 3 2 3 4
M  V30 4 1 4 5
M  V30 5 2 5 6
M  V30 6 1 6 7
M  V30 7 2 7 8
M  V30 8 1 8 9
M  V30 9 2 9 10
M  V30 10 1 10 11
M  V30 11 2 11 12
M  V30 12 1 12 13
M  V30 13 2 13 14
M  V30 14 1 14 15
M  V30 15 1 15 16
M  V30 16 2 16 17
M  V30 17 1 17 18
M  V30 18 2 18 19
M  V30 19 1 19 20
M  V30 20 1 20 21
M  V30 21 1 21 22
M  V30 22 2 22 23
M  V30 23 1 23 24
M  V30 24 1 14 25
M  V30 25 2 25 26
M  V30 26 1 6 27
M  V30 27 2 27 28
M  V30 28 1 28 29
M  V30 29 1 28 3
M  V30 30 1 26 7
M  V30 31 1 25 10
M  V30 32 1 24 16
M  V30 33 2 24 20
M  V30 34 1 1 30
M  V30 35 1 1 31
M  V30 36 1 1 32
M  V30 37 1 4 33
M  V30 38 1 5 34
M  V30 39 1 8 35
M  V30 40 1 9 36
M  V30 41 1 12 37
M  V30 42 1 13 38
M  V30 43 1 15 39
M  V30 44 1 17 40
M  V30 45 1 18 41
M  V30 46 1 19 42
M  V30 47 1 21 43
M  V30 48 1 23 44
M  V30 49 1 26 45
M  V30 50 1 27 46
M  V30 END BOND
M  V30 END CTAB
M  END
>  <Dataset>  (818) 
ChEMBL_Kinases

>  <Ligand_Instance>  (818) 
nan

>  <PDB_ID>  (818) 
nan

>  <Standardized_SMILES>  (818) 
COc1ccc(-c2ccc3nccc(Nc4cccc5[nH]ncc45)c3c2)cc1Cl

>  <Name>  (818) 
nan

>  <Pocket>  (818) 
nan

>  <ATP_Site>  (818) 
nan

>  <Peripheral>  (818) 
nan

>  <Num_H_Atoms_ProtBoundConf>  (818) 
nan

>  <Num_Resolved_Atoms>  (818) 
nan

>  <Num_Not_Resolved_Atoms>  (818) 
nan

$$$$
CHEMBL3661282
     RDKit          3D

  0  0  0  0  0  0  0  0  0  0999 V3000
M  V30 BEGIN CTAB
M  V30 COUNTS 47 50 0 0 0
M  V30 BEGIN ATOM
M  V30 1 C -1.152953 -4.393433 4.080232 0
M  V30 2 N -0.647408 -4.689086 2.746758 0
M  V30 3 C -0.872642 -6.038251 2.266846 0
M  V30 4 C 0.031518 -3.670345 2.021882 0
M  V30 5 C 0.205765 -2.454461 2.662239 0
M  V30 6 C 0.836793 -1.392083 2.042725 0
M  V30 7 C 1.287384 -1.605990 0.742120 0
M  V30 8 C 1.952911 -0.522954 -0.020025 0
M  V30 9 C 2.928523 -0.628436 -0.986493 0
M  V30 10 C 3.397110 0.501640 -1.615664 0
M  V30 11 C 2.902081 1.745806 -1.293024 0
M  V30 12 N 3.378772 2.814319 -1.947082 0
M  V30 13 C 2.876867 4.045801 -1.637242 0
M  V30 14 N 1.931294 4.257022 -0.715404 0
M  V30 15 C 1.439429 3.211931 -0.049721 0
M  V30 16 N 0.424174 3.124591 0.970531 0
M  V30 17 C -0.875023 2.601756 0.608071 0
M  V30 18 C -1.149080 2.386321 -0.726612 0
M  V30 19 C -2.393880 1.841783 -1.026414 0
M  V30 20 C -3.267065 1.553214 0.000391 0
M  V30 21 C -3.000106 1.766253 1.316712 0
M  V30 22 O -3.924004 1.454707 2.314604 0
M  V30 23 C -1.762077 2.308088 1.618748 0
M  V30 24 C 1.923809 1.925596 -0.333249 0
M  V30 25 C 1.497273 0.748807 0.261887 0
M  V30 26 C 1.118854 -2.813580 0.096132 0
M  V30 27 C 0.483058 -3.871544 0.732968 0
M  V30 28 H -1.819597 -5.169741 4.456973 0
M  V30 29 H -1.769809 -3.457541 3.929744 0
M  V30 30 H -0.363151 -4.152771 4.807306 0
M  V30 31 H -0.250552 -6.337995 1.421096 0
M  V30 32 H -1.948538 -6.067044 1.934319 0
M  V30 33 H -0.798409 -6.784936 3.097010 0
M  V30 34 H -0.128050 -2.230295 3.688151 0
M  V30 35 H 0.980899 -0.438322 2.544824 0
M  V30 36 H 3.249009 -1.649283 -1.169681 0
M  V30 37 H 4.171158 0.328943 -2.372356 0
M  V30 38 H 3.247589 4.922681 -2.154113 0
M  V30 39 H 0.595954 3.429701 1.975371 0
M  V30 40 H -0.452164 2.620930 -1.496828 0
M  V30 41 H -2.692800 1.636297 -2.049926 0
M  V30 42 H -4.235030 1.122142 -0.301147 0
M  V30 43 H -3.847731 0.513768 2.727345 0
M  V30 44 H -1.473944 2.506081 2.621094 0
M  V30 45 H 0.735493 0.856858 1.023205 0
M  V30 46 H 1.465668 -2.992536 -0.916229 0
M  V30 47 H 0.352714 -4.808683 0.223521 0
M  V30 END ATOM
M  V30 BEGIN BOND
M  V30 1 1 1 2
M  V30 2 1 2 3
M  V30 3 1 2 4
M  V30 4 2 4 5
M  V30 5 1 5 6
M  V30 6 2 6 7
M  V30 7 1 7 8
M  V30 8 2 8 9
M  V30 9 1 9 10
M  V30 10 2 10 11
M  V30 11 1 11 12
M  V30 12 2 12 13
M  V30 13 1 13 14
M  V30 14 2 14 15
M  V30 15 1 15 16
M  V30 16 1 16 17
M  V30 17 2 17 18
M  V30 18 1 18 19
M  V30 19 2 19 20
M  V30 20 1 20 21
M  V30 21 1 21 22
M  V30 22 2 21 23
M  V30 23 1 15 24
M  V30 24 2 24 25
M  V30 25 1 7 26
M  V30 26 2 26 27
M  V30 27 1 27 4
M  V30 28 1 25 8
M  V30 29 1 24 11
M  V30 30 1 23 17
M  V30 31 1 1 28
M  V30 32 1 1 29
M  V30 33 1 1 30
M  V30 34 1 3 31
M  V30 35 1 3 32
M  V30 36 1 3 33
M  V30 37 1 5 34
M  V30 38 1 6 35
M  V30 39 1 9 36
M  V30 40 1 10 37
M  V30 41 1 13 38
M  V30 42 1 16 39
M  V30 43 1 18 40
M  V30 44 1 19 41
M  V30 45 1 20 42
M  V30 46 1 22 43
M  V30 47 1 23 44
M  V30 48 1 25 45
M  V30 49 1 26 46
M  V30 50 1 27 47
M  V30 END BOND
M  V30 END CTAB
M  END
>  <Dataset>  (819) 
ChEMBL_Kinases

>  <Ligand_Instance>  (819) 
nan

>  <PDB_ID>  (819) 
nan

>  <Standardized_SMILES>  (819) 
CN(C)c1ccc(-c2ccc3ncnc(Nc4cccc(O)c4)c3c2)cc1

>  <Name>  (819) 
nan

>  <Pocket>  (819) 
nan

>  <ATP_Site>  (819) 
nan

>  <Peripheral>  (819) 
nan

>  <Num_H_Atoms_ProtBoundConf>  (819) 
nan

>  <Num_Resolved_Atoms>  (819) 
nan

>  <Num_Not_Resolved_Atoms>  (819) 
nan

$$$$
CHEMBL3662749
     RDKit          3D

  0  0  0  0  0  0  0  0  0  0999 V3000
M  V30 BEGIN CTAB
M  V30 COUNTS 64 68 0 0 0
M  V30 BEGIN ATOM
M  V30 1 C 1.607717 0.920106 4.035016 0
M  V30 2 C 2.525382 -0.007144 3.286590 0 CFG=1
M  V30 3 C 2.735596 -1.308456 3.955375 0
M  V30 4 N 1.762504 -2.333355 3.712538 0
M  V30 5 C 0.639974 -2.364128 4.577562 0
M  V30 6 C -0.579711 -1.962102 3.783323 0
M  V30 7 C -0.118015 -1.913102 2.353080 0
M  V30 8 C 1.307323 -2.339245 2.337757 0 CFG=1
M  V30 9 C 2.213289 -1.493321 1.468473 0
M  V30 10 N 2.183694 -0.098081 1.858678 0
M  V30 11 C 1.922425 1.208309 1.286679 0
M  V30 12 O 2.018816 2.274347 1.996438 0
M  V30 13 N 1.541003 1.425262 -0.094051 0
M  V30 14 C 1.264866 0.689461 -1.336289 0
M  V30 15 C -0.028554 1.303376 -1.765275 0
M  V30 16 C -1.253208 1.088249 -2.416181 0
M  V30 17 N -1.663597 -0.163630 -3.000089 0
M  V30 18 C -2.365591 -1.058253 -2.153540 0
M  V30 19 O -2.474769 -0.509032 -1.001529 0
M  V30 20 C -2.890956 -2.374941 -2.478476 0
M  V30 21 C -3.521067 -3.010024 -1.399458 0
M  V30 22 C -4.067221 -4.265239 -1.557882 0
M  V30 23 C -4.730475 -4.922028 -0.402740 0
M  V30 24 F -4.271258 -6.245323 -0.390534 0
M  V30 25 F -4.294663 -4.338984 0.783548 0
M  V30 26 F -6.096372 -4.897243 -0.514887 0
M  V30 27 C -4.035676 -4.963593 -2.744864 0
M  V30 28 C -3.415318 -4.333359 -3.799702 0
M  V30 29 C -2.871074 -3.090495 -3.654210 0
M  V30 30 F -2.257154 -2.446581 -4.667816 0
M  V30 31 N -1.935334 2.272311 -2.376767 0
M  V30 32 N -1.175586 3.162176 -1.739779 0
M  V30 33 C -0.016975 2.592857 -1.362239 0
M  V30 34 C 1.307827 2.698961 -0.699212 0
M  V30 35 C 2.398993 2.969491 -1.722017 0
M  V30 36 C 1.184882 3.848209 0.276152 0
M  V30 37 H 1.435696 0.451224 5.041596 0
M  V30 38 H 0.674411 1.121743 3.510457 0
M  V30 39 H 2.089681 1.897309 4.282923 0
M  V30 40 H 3.535307 0.506118 3.272948 0
M  V30 41 H 2.726073 -1.136612 5.066026 0
M  V30 42 H 3.733191 -1.769470 3.743589 0
M  V30 43 H 0.714292 -1.777380 5.489866 0
M  V30 44 H 0.456768 -3.428925 4.912966 0
M  V30 45 H -0.975708 -0.985389 4.127702 0
M  V30 46 H -1.427887 -2.684110 3.931639 0
M  V30 47 H -0.279679 -0.881926 1.977063 0
M  V30 48 H -0.808396 -2.550066 1.768123 0
M  V30 49 H 1.370555 -3.378934 1.969893 0
M  V30 50 H 3.258834 -1.857496 1.717115 0
M  V30 51 H 2.069915 -1.706650 0.421817 0
M  V30 52 H 2.076085 0.806557 -2.062183 0
M  V30 53 H 1.005423 -0.374242 -1.146478 0
M  V30 54 H -1.488953 -0.463141 -3.983239 0
M  V30 55 H -3.603866 -2.555058 -0.418678 0
M  V30 56 H -4.442138 -5.939582 -2.928210 0
M  V30 57 H -3.308870 -4.758069 -4.807504 0
M  V30 58 H -1.418958 4.160596 -1.547719 0
M  V30 59 H 2.634171 4.055777 -1.769330 0
M  V30 60 H 1.969992 2.723463 -2.713515 0
M  V30 61 H 3.297917 2.350365 -1.576676 0
M  V30 62 H 0.443654 3.679646 1.056847 0
M  V30 63 H 0.782961 4.717239 -0.323706 0
M  V30 64 H 2.138279 4.176176 0.686705 0
M  V30 END ATOM
M  V30 BEGIN BOND
M  V30 1 1 1 2
M  V30 2 1 2 3
M  V30 3 1 3 4
M  V30 4 1 4 5
M  V30 5 1 5 6
M  V30 6 1 6 7
M  V30 7 1 7 8
M  V30 8 1 8 9
M  V30 9 1 9 10
M  V30 10 1 10 11
M  V30 11 2 11 12
M  V30 12 1 11 13
M  V30 13 1 13 14
M  V30 14 1 14 15
M  V30 15 1 15 16
M  V30 16 1 16 17
M  V30 17 1 17 18
M  V30 18 2 18 19
M  V30 19 1 18 20
M  V30 20 2 20 21
M  V30 21 1 21 22
M  V30 22 1 22 23
M  V30 23 1 23 24
M  V30 24 1 23 25
M  V30 25 1 23 26
M  V30 26 2 22 27
M  V30 27 1 27 28
M  V30 28 2 28 29
M  V30 29 1 29 30
M  V30 30 2 16 31
M  V30 31 1 31 32
M  V30 32 1 32 33
M  V30 33 1 33 34
M  V30 34 1 34 35
M  V30 35 1 34 36
M  V30 36 1 10 2
M  V30 37 1 34 13
M  V30 38 1 8 4
M  V30 39 2 33 15
M  V30 40 1 29 20
M  V30 41 1 1 37
M  V30 42 1 1 38
M  V30 43 1 1 39
M  V30 44 1 2 40 CFG=3
M  V30 45 1 3 41
M  V30 46 1 3 42
M  V30 47 1 5 43
M  V30 48 1 5 44
M  V30 49 1 6 45
M  V30 50 1 6 46
M  V30 51 1 7 47
M  V30 52 1 7 48
M  V30 53 1 8 49 CFG=3
M  V30 54 1 9 50
M  V30 55 1 9 51
M  V30 56 1 14 52
M  V30 57 1 14 53
M  V30 58 1 17 54
M  V30 59 1 21 55
M  V30 60 1 27 56
M  V30 61 1 28 57
M  V30 62 1 32 58
M  V30 63 1 35 59
M  V30 64 1 35 60
M  V30 65 1 35 61
M  V30 66 1 36 62
M  V30 67 1 36 63
M  V30 68 1 36 64
M  V30 END BOND
M  V30 END CTAB
M  END
>  <Dataset>  (820) 
ChEMBL_Kinases

>  <Ligand_Instance>  (820) 
nan

>  <PDB_ID>  (820) 
nan

>  <Standardized_SMILES>  (820) 
C[C@H]1CN2CCC[C@H]2CN1C(=O)N1Cc2c(NC(=O)c3cc(C(F)(F)F)ccc3F)n[nH]c2C1(C)C

>  <Name>  (820) 
nan

>  <Pocket>  (820) 
nan

>  <ATP_Site>  (820) 
nan

>  <Peripheral>  (820) 
nan

>  <Num_H_Atoms_ProtBoundConf>  (820) 
nan

>  <Num_Resolved_Atoms>  (820) 
nan

>  <Num_Not_Resolved_Atoms>  (820) 
nan

$$$$
CHEMBL3662748
     RDKit          3D

  0  0  0  0  0  0  0  0  0  0999 V3000
M  V30 BEGIN CTAB
M  V30 COUNTS 61 65 0 0 0
M  V30 BEGIN ATOM
M  V30 1 C 1.038466 -0.500157 2.397691 0
M  V30 2 C 2.301159 -0.833481 1.647258 0 CFG=1
M  V30 3 C 2.533180 -2.339818 1.825093 0
M  V30 4 N 3.514044 -2.820699 0.878197 0
M  V30 5 C 4.583592 -3.555643 1.519965 0
M  V30 6 C 5.680357 -3.537460 0.476406 0
M  V30 7 C 5.315567 -2.429086 -0.488887 0
M  V30 8 C 4.232040 -1.705256 0.290657 0 CFG=1
M  V30 9 C 3.273462 -0.985456 -0.627947 0
M  V30 10 N 2.202367 -0.523571 0.232037 0
M  V30 11 C 1.109088 0.195984 -0.275929 0
M  V30 12 O 1.946647 -0.130886 -1.126501 0
M  V30 13 N 0.013654 0.912045 -0.757722 0
M  V30 14 C -1.114313 1.420409 -0.003420 0
M  V30 15 C -2.244786 0.955416 -0.879061 0
M  V30 16 C -3.567206 0.557731 -0.897720 0
M  V30 17 N -4.363095 0.492465 0.285263 0
M  V30 18 C -4.204612 -0.822976 0.835057 0
M  V30 19 O -3.412817 -1.521886 0.110134 0
M  V30 20 C -4.866872 -1.291470 2.064007 0
M  V30 21 C -5.737499 -0.588333 2.874016 0
M  V30 22 C -6.258103 -1.202901 3.992363 0
M  V30 23 C -5.913573 -2.506896 4.300437 0
M  V30 24 F -6.423992 -3.114761 5.398941 0
M  V30 25 C -5.039346 -3.231976 3.498791 0
M  V30 26 Cl -4.600623 -4.901428 3.895619 0
M  V30 27 C -4.540879 -2.601538 2.402079 0
M  V30 28 N -3.860409 0.281504 -2.188517 0
M  V30 29 N -2.815678 0.481567 -2.954240 0
M  V30 30 C -1.763974 0.906873 -2.193709 0
M  V30 31 C -0.326777 1.350098 -2.091643 0
M  V30 32 C -0.336343 2.835745 -2.238434 0
M  V30 33 C 0.484365 0.654770 -3.149426 0
M  V30 34 H 0.240900 -1.178367 2.029204 0
M  V30 35 H 1.209198 -0.758164 3.457018 0
M  V30 36 H 0.734880 0.558236 2.272896 0
M  V30 37 H 3.160983 -0.289098 2.088261 0
M  V30 38 H 2.771040 -2.536189 2.868845 0
M  V30 39 H 1.572899 -2.856578 1.576737 0
M  V30 40 H 4.937403 -3.079961 2.456492 0
M  V30 41 H 4.275451 -4.587571 1.777949 0
M  V30 42 H 6.679366 -3.260903 0.906858 0
M  V30 43 H 5.783809 -4.513756 -0.036433 0
M  V30 44 H 4.842428 -2.867077 -1.373417 0
M  V30 45 H 6.171020 -1.768604 -0.726095 0
M  V30 46 H 4.737682 -1.059080 1.014388 0
M  V30 47 H 3.848447 -0.194406 -1.115967 0
M  V30 48 H 2.954167 -1.716839 -1.394172 0
M  V30 49 H -1.067575 2.507196 0.057914 0
M  V30 50 H -1.248796 0.908788 0.967335 0
M  V30 51 H -4.987386 1.158344 0.789219 0
M  V30 52 H -5.928532 0.417599 2.529538 0
M  V30 53 H -6.930392 -0.623780 4.596390 0
M  V30 54 H -3.853308 -3.217041 1.798875 0
M  V30 55 H -2.720314 0.359503 -3.984610 0
M  V30 56 H 0.551598 3.315638 -1.741175 0
M  V30 57 H -0.282493 3.082138 -3.313940 0
M  V30 58 H -1.248463 3.306655 -1.821616 0
M  V30 59 H -0.089970 0.733332 -4.113114 0
M  V30 60 H 0.517818 -0.431088 -2.943512 0
M  V30 61 H 1.503234 1.031530 -3.239288 0
M  V30 END ATOM
M  V30 BEGIN BOND
M  V30 1 1 1 2
M  V30 2 1 2 3
M  V30 3 1 3 4
M  V30 4 1 4 5
M  V30 5 1 5 6
M  V30 6 1 6 7
M  V30 7 1 7 8
M  V30 8 1 8 9
M  V30 9 1 9 10
M  V30 10 1 10 11
M  V30 11 2 11 12
M  V30 12 1 11 13
M  V30 13 1 13 14
M  V30 14 1 14 15
M  V30 15 1 15 16
M  V30 16 1 16 17
M  V30 17 1 17 18
M  V30 18 2 18 19
M  V30 19 1 18 20
M  V30 20 2 20 21
M  V30 21 1 21 22
M  V30 22 2 22 23
M  V30 23 1 23 24
M  V30 24 1 23 25
M  V30 25 1 25 26
M  V30 26 2 25 27
M  V30 27 2 16 28
M  V30 28 1 28 29
M  V30 29 1 29 30
M  V30 30 1 30 31
M  V30 31 1 31 32
M  V30 32 1 31 33
M  V30 33 1 10 2
M  V30 34 1 31 13
M  V30 35 1 8 4
M  V30 36 2 30 15
M  V30 37 1 27 20
M  V30 38 1 1 34
M  V30 39 1 1 35
M  V30 40 1 1 36
M  V30 41 1 2 37 CFG=1
M  V30 42 1 3 38
M  V30 43 1 3 39
M  V30 44 1 5 40
M  V30 45 1 5 41
M  V30 46 1 6 42
M  V30 47 1 6 43
M  V30 48 1 7 44
M  V30 49 1 7 45
M  V30 50 1 8 46 CFG=1
M  V30 51 1 9 47
M  V30 52 1 9 48
M  V30 53 1 14 49
M  V30 54 1 14 50
M  V30 55 1 17 51
M  V30 56 1 21 52
M  V30 57 1 22 53
M  V30 58 1 27 54
M  V30 59 1 29 55
M  V30 60 1 32 56
M  V30 61 1 32 57
M  V30 62 1 32 58
M  V30 63 1 33 59
M  V30 64 1 33 60
M  V30 65 1 33 61
M  V30 END BOND
M  V30 END CTAB
M  END
>  <Dataset>  (821) 
ChEMBL_Kinases

>  <Ligand_Instance>  (821) 
nan

>  <PDB_ID>  (821) 
nan

>  <Standardized_SMILES>  (821) 
C[C@H]1CN2CCC[C@H]2CN1C(=O)N1Cc2c(NC(=O)c3ccc(F)c(Cl)c3)n[nH]c2C1(C)C

>  <Name>  (821) 
nan

>  <Pocket>  (821) 
nan

>  <ATP_Site>  (821) 
nan

>  <Peripheral>  (821) 
nan

>  <Num_H_Atoms_ProtBoundConf>  (821) 
nan

>  <Num_Resolved_Atoms>  (821) 
nan

>  <Num_Not_Resolved_Atoms>  (821) 
nan

$$$$
CHEMBL3662747
     RDKit          3D

  0  0  0  0  0  0  0  0  0  0999 V3000
M  V30 BEGIN CTAB
M  V30 COUNTS 61 65 0 0 0
M  V30 BEGIN ATOM
M  V30 1 C 1.115392 -0.867574 2.460706 0
M  V30 2 C 2.293901 -1.297385 1.627934 0 CFG=1
M  V30 3 C 2.229895 -2.827570 1.609912 0
M  V30 4 N 3.253051 -3.333530 0.735295 0
M  V30 5 C 4.186102 -4.231281 1.346442 0
M  V30 6 C 5.364376 -4.240722 0.374364 0
M  V30 7 C 5.065524 -3.120967 -0.618280 0
M  V30 8 C 4.133180 -2.273166 0.259507 0 CFG=1
M  V30 9 C 3.300322 -1.342882 -0.580389 0
M  V30 10 N 2.253017 -0.803792 0.265135 0
M  V30 11 C 1.504401 0.068760 -0.562676 0
M  V30 12 O 2.243859 -0.178720 -1.542223 0
M  V30 13 N 0.408017 0.956663 -0.634479 0
M  V30 14 C -0.643050 1.484313 0.242495 0
M  V30 15 C -1.868910 1.366541 -0.552084 0
M  V30 16 C -3.235884 1.194956 -0.605653 0
M  V30 17 N -4.103508 1.028214 0.508982 0
M  V30 18 C -4.259591 -0.341594 0.848897 0
M  V30 19 O -3.555583 -1.032807 0.032454 0
M  V30 20 C -5.041618 -0.925070 1.896696 0
M  V30 21 C -4.995466 -2.304563 1.992742 0
M  V30 22 C -5.688856 -3.016728 2.942709 0
M  V30 23 Cl -5.600224 -4.746927 3.025084 0
M  V30 24 C -6.489443 -2.377769 3.876068 0
M  V30 25 C -6.556564 -1.003098 3.806752 0
M  V30 26 C -5.846888 -0.325970 2.840481 0
M  V30 27 F -5.912215 1.022556 2.771722 0
M  V30 28 N -3.611162 1.211607 -1.902951 0
M  V30 29 N -2.550469 1.385055 -2.675351 0
M  V30 30 C -1.472945 1.482083 -1.865265 0
M  V30 31 C 0.020540 1.668947 -1.801026 0
M  V30 32 C 0.224705 3.162475 -1.676684 0
M  V30 33 C 0.683683 1.102416 -3.019976 0
M  V30 34 H 0.171543 -1.202947 1.977631 0
M  V30 35 H 1.194824 -1.419658 3.417801 0
M  V30 36 H 1.122240 0.235716 2.608965 0
M  V30 37 H 3.231456 -0.968675 2.126382 0
M  V30 38 H 2.284333 -3.210937 2.640973 0
M  V30 39 H 1.244968 -3.083205 1.169405 0
M  V30 40 H 4.572322 -3.830439 2.321681 0
M  V30 41 H 3.807137 -5.266519 1.494934 0
M  V30 42 H 6.315207 -3.975135 0.884910 0
M  V30 43 H 5.440944 -5.209352 -0.161475 0
M  V30 44 H 5.967629 -2.570043 -0.899223 0
M  V30 45 H 4.483665 -3.543829 -1.445603 0
M  V30 46 H 4.729166 -1.796688 1.034711 0
M  V30 47 H 2.924020 -1.947267 -1.430913 0
M  V30 48 H 4.007442 -0.569632 -0.957235 0
M  V30 49 H -0.339975 2.562652 0.396544 0
M  V30 50 H -0.687323 0.987206 1.209236 0
M  V30 51 H -4.618950 1.725601 1.088420 0
M  V30 52 H -4.395673 -2.903662 1.306886 0
M  V30 53 H -7.073864 -2.833531 4.660886 0
M  V30 54 H -7.150598 -0.403053 4.484671 0
M  V30 55 H -2.432900 1.452118 -3.720635 0
M  V30 56 H 0.988176 3.423206 -0.890680 0
M  V30 57 H 0.716679 3.492216 -2.632118 0
M  V30 58 H -0.694645 3.739176 -1.567535 0
M  V30 59 H 1.720499 1.406884 -3.145961 0
M  V30 60 H 0.078999 1.499239 -3.895749 0
M  V30 61 H 0.517271 0.007473 -3.068819 0
M  V30 END ATOM
M  V30 BEGIN BOND
M  V30 1 1 1 2
M  V30 2 1 2 3
M  V30 3 1 3 4
M  V30 4 1 4 5
M  V30 5 1 5 6
M  V30 6 1 6 7
M  V30 7 1 7 8
M  V30 8 1 8 9
M  V30 9 1 9 10
M  V30 10 1 10 11
M  V30 11 2 11 12
M  V30 12 1 11 13
M  V30 13 1 13 14
M  V30 14 1 14 15
M  V30 15 1 15 16
M  V30 16 1 16 17
M  V30 17 1 17 18
M  V30 18 2 18 19
M  V30 19 1 18 20
M  V30 20 2 20 21
M  V30 21 1 21 22
M  V30 22 1 22 23
M  V30 23 2 22 24
M  V30 24 1 24 25
M  V30 25 2 25 26
M  V30 26 1 26 27
M  V30 27 2 16 28
M  V30 28 1 28 29
M  V30 29 1 29 30
M  V30 30 1 30 31
M  V30 31 1 31 32
M  V30 32 1 31 33
M  V30 33 1 10 2
M  V30 34 1 31 13
M  V30 35 1 8 4
M  V30 36 2 30 15
M  V30 37 1 26 20
M  V30 38 1 1 34
M  V30 39 1 1 35
M  V30 40 1 1 36
M  V30 41 1 2 37 CFG=1
M  V30 42 1 3 38
M  V30 43 1 3 39
M  V30 44 1 5 40
M  V30 45 1 5 41
M  V30 46 1 6 42
M  V30 47 1 6 43
M  V30 48 1 7 44
M  V30 49 1 7 45
M  V30 50 1 8 46 CFG=1
M  V30 51 1 9 47
M  V30 52 1 9 48
M  V30 53 1 14 49
M  V30 54 1 14 50
M  V30 55 1 17 51
M  V30 56 1 21 52
M  V30 57 1 24 53
M  V30 58 1 25 54
M  V30 59 1 29 55
M  V30 60 1 32 56
M  V30 61 1 32 57
M  V30 62 1 32 58
M  V30 63 1 33 59
M  V30 64 1 33 60
M  V30 65 1 33 61
M  V30 END BOND
M  V30 END CTAB
M  END
>  <Dataset>  (822) 
ChEMBL_Kinases

>  <Ligand_Instance>  (822) 
nan

>  <PDB_ID>  (822) 
nan

>  <Standardized_SMILES>  (822) 
C[C@H]1CN2CCC[C@H]2CN1C(=O)N1Cc2c(NC(=O)c3cc(Cl)ccc3F)n[nH]c2C1(C)C

>  <Name>  (822) 
nan

>  <Pocket>  (822) 
nan

>  <ATP_Site>  (822) 
nan

>  <Peripheral>  (822) 
nan

>  <Num_H_Atoms_ProtBoundConf>  (822) 
nan

>  <Num_Resolved_Atoms>  (822) 
nan

>  <Num_Not_Resolved_Atoms>  (822) 
nan

$$$$
CHEMBL3662746
     RDKit          3D

  0  0  0  0  0  0  0  0  0  0999 V3000
M  V30 BEGIN CTAB
M  V30 COUNTS 61 65 0 0 0
M  V30 BEGIN ATOM
M  V30 1 C 2.471108 1.842715 1.992480 0
M  V30 2 C 2.903245 0.411345 1.744791 0 CFG=1
M  V30 3 C 3.800777 0.001430 2.868852 0
M  V30 4 N 3.541998 -1.339355 3.345709 0
M  V30 5 C 4.310105 -1.513405 4.565484 0
M  V30 6 C 3.486883 -0.865423 5.664094 0
M  V30 7 C 2.074042 -1.068168 5.204417 0
M  V30 8 C 2.186266 -1.534857 3.769571 0 CFG=1
M  V30 9 C 1.187310 -0.831798 2.876544 0
M  V30 10 N 1.740170 -0.465121 1.588636 0
M  V30 11 C 1.084094 -0.997004 0.480412 0
M  V30 12 O 0.140775 -1.687780 0.944205 0
M  V30 13 N 0.816625 -1.247026 -0.894739 0
M  V30 14 C -0.305222 -2.101708 -1.256740 0
M  V30 15 C -0.882880 -1.230600 -2.346678 0
M  V30 16 C -2.017099 -0.850776 -3.035377 0
M  V30 17 N -3.310926 -1.368828 -2.784179 0
M  V30 18 C -4.121244 -0.716627 -1.842389 0
M  V30 19 O -3.514998 0.276865 -1.357045 0
M  V30 20 C -5.461717 -1.072721 -1.436987 0
M  V30 21 C -6.058594 -0.257722 -0.473916 0
M  V30 22 C -7.317428 -0.470600 0.004478 0
M  V30 23 C -8.083876 -1.508982 -0.434667 0
M  V30 24 C -7.531701 -2.331418 -1.380686 0
M  V30 25 C -6.260750 -2.107839 -1.856761 0
M  V30 26 F -5.738483 -2.918970 -2.778254 0
M  V30 27 N -1.703073 0.071416 -3.964634 0
M  V30 28 N -0.399483 0.281631 -3.878111 0
M  V30 29 C 0.135597 -0.486527 -2.911165 0
M  V30 30 C 1.379675 -0.871225 -2.190679 0
M  V30 31 C 1.963149 -2.053111 -2.906991 0
M  V30 32 C 2.346269 0.274000 -2.073266 0
M  V30 33 H 1.752224 2.198678 1.230668 0
M  V30 34 H 2.109059 2.004415 3.028437 0
M  V30 35 H 3.374296 2.475848 1.854733 0
M  V30 36 H 3.521636 0.449278 0.821540 0
M  V30 37 H 4.877596 0.035801 2.594457 0
M  V30 38 H 3.700631 0.658457 3.769011 0
M  V30 39 H 4.351837 -2.598477 4.781485 0
M  V30 40 H 5.320939 -1.048321 4.467448 0
M  V30 41 H 3.705119 -1.335584 6.641176 0
M  V30 42 H 3.732232 0.224728 5.786740 0
M  V30 43 H 1.599469 -1.838977 5.840788 0
M  V30 44 H 1.450468 -0.156401 5.303260 0
M  V30 45 H 1.972037 -2.623968 3.751837 0
M  V30 46 H 0.968009 0.141390 3.408242 0
M  V30 47 H 0.219248 -1.344484 2.831181 0
M  V30 48 H 0.029154 -3.017810 -1.785437 0
M  V30 49 H -1.021133 -2.283280 -0.462439 0
M  V30 50 H -3.672662 -2.206150 -3.270090 0
M  V30 51 H -5.507226 0.599650 -0.069189 0
M  V30 52 H -7.725124 0.191881 0.747319 0
M  V30 53 H -9.082088 -1.750894 -0.114136 0
M  V30 54 H -8.069865 -3.183906 -1.788183 0
M  V30 55 H 0.210285 0.928780 -4.435781 0
M  V30 56 H 1.279348 -2.457069 -3.703117 0
M  V30 57 H 2.874138 -1.722012 -3.471040 0
M  V30 58 H 2.302116 -2.853789 -2.225072 0
M  V30 59 H 1.891080 1.202266 -1.740559 0
M  V30 60 H 2.725853 0.462063 -3.104933 0
M  V30 61 H 3.222895 -0.074539 -1.499325 0
M  V30 END ATOM
M  V30 BEGIN BOND
M  V30 1 1 1 2
M  V30 2 1 2 3
M  V30 3 1 3 4
M  V30 4 1 4 5
M  V30 5 1 5 6
M  V30 6 1 6 7
M  V30 7 1 7 8
M  V30 8 1 8 9
M  V30 9 1 9 10
M  V30 10 1 10 11
M  V30 11 2 11 12
M  V30 12 1 11 13
M  V30 13 1 13 14
M  V30 14 1 14 15
M  V30 15 1 15 16
M  V30 16 1 16 17
M  V30 17 1 17 18
M  V30 18 2 18 19
M  V30 19 1 18 20
M  V30 20 2 20 21
M  V30 21 1 21 22
M  V30 22 2 22 23
M  V30 23 1 23 24
M  V30 24 2 24 25
M  V30 25 1 25 26
M  V30 26 2 16 27
M  V30 27 1 27 28
M  V30 28 1 28 29
M  V30 29 1 29 30
M  V30 30 1 30 31
M  V30 31 1 30 32
M  V30 32 1 10 2
M  V30 33 1 30 13
M  V30 34 1 8 4
M  V30 35 2 29 15
M  V30 36 1 25 20
M  V30 37 1 1 33
M  V30 38 1 1 34
M  V30 39 1 1 35
M  V30 40 1 2 36 CFG=3
M  V30 41 1 3 37
M  V30 42 1 3 38
M  V30 43 1 5 39
M  V30 44 1 5 40
M  V30 45 1 6 41
M  V30 46 1 6 42
M  V30 47 1 7 43
M  V30 48 1 7 44
M  V30 49 1 8 45 CFG=1
M  V30 50 1 9 46
M  V30 51 1 9 47
M  V30 52 1 14 48
M  V30 53 1 14 49
M  V30 54 1 17 50
M  V30 55 1 21 51
M  V30 56 1 22 52
M  V30 57 1 23 53
M  V30 58 1 24 54
M  V30 59 1 28 55
M  V30 60 1 31 56
M  V30 61 1 31 57
M  V30 62 1 31 58
M  V30 63 1 32 59
M  V30 64 1 32 60
M  V30 65 1 32 61
M  V30 END BOND
M  V30 END CTAB
M  END
>  <Dataset>  (823) 
ChEMBL_Kinases

>  <Ligand_Instance>  (823) 
nan

>  <PDB_ID>  (823) 
nan

>  <Standardized_SMILES>  (823) 
C[C@H]1CN2CCC[C@H]2CN1C(=O)N1Cc2c(NC(=O)c3ccccc3F)n[nH]c2C1(C)C

>  <Name>  (823) 
nan

>  <Pocket>  (823) 
nan

>  <ATP_Site>  (823) 
nan

>  <Peripheral>  (823) 
nan

>  <Num_H_Atoms_ProtBoundConf>  (823) 
nan

>  <Num_Resolved_Atoms>  (823) 
nan

>  <Num_Not_Resolved_Atoms>  (823) 
nan

$$$$
CHEMBL3662745
     RDKit          3D

  0  0  0  0  0  0  0  0  0  0999 V3000
M  V30 BEGIN CTAB
M  V30 COUNTS 61 65 0 0 0
M  V30 BEGIN ATOM
M  V30 1 C 1.932317 1.866545 2.820779 0
M  V30 2 C 2.663237 0.708943 2.174524 0 CFG=1
M  V30 3 C 3.299220 -0.070913 3.274121 0
M  V30 4 N 2.708509 -1.345091 3.518711 0
M  V30 5 C 2.987457 -1.715977 4.892697 0
M  V30 6 C 1.876837 -1.046790 5.701852 0
M  V30 7 C 0.686148 -1.059271 4.750881 0
M  V30 8 C 1.286575 -1.374031 3.404970 0 CFG=1
M  V30 9 C 0.742441 -0.479801 2.311995 0
M  V30 10 N 1.784442 -0.111145 1.342538 0
M  V30 11 C 2.146382 -0.301857 -0.019621 0
M  V30 12 O 3.228940 0.279398 -0.392062 0
M  V30 13 N 1.464952 -1.060735 -1.047540 0
M  V30 14 C 0.255276 -1.886219 -1.193323 0
M  V30 15 C -0.376675 -1.233738 -2.371049 0
M  V30 16 C -1.523664 -0.862824 -3.040515 0
M  V30 17 N -2.817168 -1.146950 -2.523429 0
M  V30 18 C -3.585509 -0.337295 -1.675391 0
M  V30 19 O -3.151261 0.777732 -1.285312 0
M  V30 20 C -4.908786 -0.721732 -1.198240 0
M  V30 21 C -5.593976 0.143666 -0.362768 0
M  V30 22 C -6.858499 -0.236077 0.086357 0
M  V30 23 C -7.459896 -1.430273 -0.260329 0
M  V30 24 C -6.777673 -2.281523 -1.086434 0
M  V30 25 Cl -7.462800 -3.819409 -1.579465 0
M  V30 26 C -5.527064 -1.908250 -1.531886 0
M  V30 27 N -1.192832 -0.232820 -4.182086 0
M  V30 28 N 0.128416 -0.201131 -4.241994 0
M  V30 29 C 0.662137 -0.798754 -3.160631 0
M  V30 30 C 1.907381 -1.206662 -2.420903 0
M  V30 31 C 2.191236 -2.639026 -2.798218 0
M  V30 32 C 3.058624 -0.297995 -2.788813 0
M  V30 33 H 1.213249 2.354373 2.150344 0
M  V30 34 H 1.525793 1.601068 3.818051 0
M  V30 35 H 2.717655 2.645164 3.050753 0
M  V30 36 H 3.437865 1.195841 1.509919 0
M  V30 37 H 4.371711 -0.244688 2.997817 0
M  V30 38 H 3.338989 0.488395 4.241016 0
M  V30 39 H 2.925611 -2.820328 5.003527 0
M  V30 40 H 3.987618 -1.332850 5.201658 0
M  V30 41 H 1.655115 -1.664288 6.603889 0
M  V30 42 H 2.146659 -0.010060 5.920405 0
M  V30 43 H -0.038450 -1.855555 5.094986 0
M  V30 44 H 0.138022 -0.100788 4.770186 0
M  V30 45 H 1.015792 -2.452246 3.199804 0
M  V30 46 H 0.259293 0.442544 2.721666 0
M  V30 47 H -0.082316 -1.045459 1.832727 0
M  V30 48 H 0.550348 -2.899799 -1.533454 0
M  V30 49 H -0.385824 -1.888146 -0.316849 0
M  V30 50 H -3.164970 -2.071223 -2.853107 0
M  V30 51 H -5.194788 1.097128 -0.043764 0
M  V30 52 H -7.406307 0.433560 0.742035 0
M  V30 53 H -8.436503 -1.699780 0.099681 0
M  V30 54 H -5.016423 -2.604863 -2.183086 0
M  V30 55 H 0.681158 0.230753 -5.025258 0
M  V30 56 H 3.067725 -2.641969 -3.504702 0
M  V30 57 H 1.367318 -3.109452 -3.369146 0
M  V30 58 H 2.490936 -3.276034 -1.949518 0
M  V30 59 H 2.874681 0.759811 -2.620461 0
M  V30 60 H 3.181212 -0.444007 -3.907431 0
M  V30 61 H 3.976291 -0.717711 -2.335674 0
M  V30 END ATOM
M  V30 BEGIN BOND
M  V30 1 1 1 2
M  V30 2 1 2 3
M  V30 3 1 3 4
M  V30 4 1 4 5
M  V30 5 1 5 6
M  V30 6 1 6 7
M  V30 7 1 7 8
M  V30 8 1 8 9
M  V30 9 1 9 10
M  V30 10 1 10 11
M  V30 11 2 11 12
M  V30 12 1 11 13
M  V30 13 1 13 14
M  V30 14 1 14 15
M  V30 15 1 15 16
M  V30 16 1 16 17
M  V30 17 1 17 18
M  V30 18 2 18 19
M  V30 19 1 18 20
M  V30 20 2 20 21
M  V30 21 1 21 22
M  V30 22 2 22 23
M  V30 23 1 23 24
M  V30 24 1 24 25
M  V30 25 2 24 26
M  V30 26 2 16 27
M  V30 27 1 27 28
M  V30 28 1 28 29
M  V30 29 1 29 30
M  V30 30 1 30 31
M  V30 31 1 30 32
M  V30 32 1 10 2
M  V30 33 1 30 13
M  V30 34 1 8 4
M  V30 35 2 29 15
M  V30 36 1 26 20
M  V30 37 1 1 33
M  V30 38 1 1 34
M  V30 39 1 1 35
M  V30 40 1 2 36 CFG=3
M  V30 41 1 3 37
M  V30 42 1 3 38
M  V30 43 1 5 39
M  V30 44 1 5 40
M  V30 45 1 6 41
M  V30 46 1 6 42
M  V30 47 1 7 43
M  V30 48 1 7 44
M  V30 49 1 8 45 CFG=3
M  V30 50 1 9 46
M  V30 51 1 9 47
M  V30 52 1 14 48
M  V30 53 1 14 49
M  V30 54 1 17 50
M  V30 55 1 21 51
M  V30 56 1 22 52
M  V30 57 1 23 53
M  V30 58 1 26 54
M  V30 59 1 28 55
M  V30 60 1 31 56
M  V30 61 1 31 57
M  V30 62 1 31 58
M  V30 63 1 32 59
M  V30 64 1 32 60
M  V30 65 1 32 61
M  V30 END BOND
M  V30 END CTAB
M  END
>  <Dataset>  (824) 
ChEMBL_Kinases

>  <Ligand_Instance>  (824) 
nan

>  <PDB_ID>  (824) 
nan

>  <Standardized_SMILES>  (824) 
C[C@H]1CN2CCC[C@H]2CN1C(=O)N1Cc2c(NC(=O)c3cccc(Cl)c3)n[nH]c2C1(C)C

>  <Name>  (824) 
nan

>  <Pocket>  (824) 
nan

>  <ATP_Site>  (824) 
nan

>  <Peripheral>  (824) 
nan

>  <Num_H_Atoms_ProtBoundConf>  (824) 
nan

>  <Num_Resolved_Atoms>  (824) 
nan

>  <Num_Not_Resolved_Atoms>  (824) 
nan

$$$$
CHEMBL3662744
     RDKit          3D

  0  0  0  0  0  0  0  0  0  0999 V3000
M  V30 BEGIN CTAB
M  V30 COUNTS 62 66 0 0 0
M  V30 BEGIN ATOM
M  V30 1 C 2.405667 -1.475030 0.526900 0
M  V30 2 C 1.213715 -0.924923 1.239876 0 CFG=1
M  V30 3 C 1.176480 -1.232761 2.716176 0
M  V30 4 N 2.153043 -0.618156 3.498215 0
M  V30 5 C 3.283718 -1.423709 3.863108 0
M  V30 6 C 4.519579 -0.738366 3.358300 0
M  V30 7 C 4.076592 0.601957 2.875218 0
M  V30 8 C 2.577601 0.685955 3.189384 0 CFG=1
M  V30 9 C 1.913406 1.419744 2.094208 0
M  V30 10 N 1.272288 0.542230 1.131099 0
M  V30 11 C 0.614099 0.978746 -0.037343 0
M  V30 12 O 1.100467 1.884494 0.679476 0
M  V30 13 C -0.056663 1.438743 -1.229911 0
M  V30 14 C -1.533765 1.036747 -1.273721 0
M  V30 15 C -1.542742 -0.325180 -1.855288 0
M  V30 16 C -2.203629 -1.525392 -1.994319 0
M  V30 17 N -3.467311 -1.820475 -1.395817 0
M  V30 18 C -3.333633 -2.387593 -0.118469 0
M  V30 19 O -2.142835 -2.528958 0.257687 0
M  V30 20 C -4.489987 -2.782721 0.709030 0
M  V30 21 C -5.821557 -2.657819 0.351691 0
M  V30 22 C -6.793423 -3.074751 1.240227 0
M  V30 23 Cl -8.438813 -2.846413 0.631252 0
M  V30 24 C -6.485917 -3.612020 2.472844 0
M  V30 25 C -5.157937 -3.737615 2.831621 0
M  V30 26 Cl -4.777379 -4.420331 4.398230 0
M  V30 27 C -4.194382 -3.326743 1.956372 0
M  V30 28 N -1.429542 -2.325128 -2.783418 0
M  V30 29 N -0.340788 -1.655982 -3.118825 0
M  V30 30 C -0.368472 -0.429232 -2.573395 0
M  V30 31 C 0.450457 0.807122 -2.507247 0
M  V30 32 C 1.918618 0.516738 -2.471466 0
M  V30 33 C 0.082981 1.730446 -3.649551 0
M  V30 34 H 2.922413 -2.237980 1.170825 0
M  V30 35 H 3.116007 -0.683557 0.199743 0
M  V30 36 H 2.068100 -2.044972 -0.359436 0
M  V30 37 H 0.291427 -1.344382 0.796835 0
M  V30 38 H 0.153974 -0.933299 3.060421 0
M  V30 39 H 1.230651 -2.335602 2.836989 0
M  V30 40 H 3.359123 -1.414005 4.976053 0
M  V30 41 H 3.210557 -2.475684 3.554241 0
M  V30 42 H 4.967281 -1.372928 2.577258 0
M  V30 43 H 5.310519 -0.629666 4.149970 0
M  V30 44 H 4.619080 1.452495 3.334971 0
M  V30 45 H 4.283463 0.673476 1.789763 0
M  V30 46 H 2.480704 1.293831 4.138972 0
M  V30 47 H 2.699577 2.020424 1.567401 0
M  V30 48 H 1.210218 2.155204 2.539812 0
M  V30 49 H -0.008854 2.519894 -1.353476 0
M  V30 50 H -1.984315 1.070513 -0.262265 0
M  V30 51 H -2.105290 1.697203 -1.936542 0
M  V30 52 H -4.429040 -1.660987 -1.800545 0
M  V30 53 H -6.004457 -2.230369 -0.625299 0
M  V30 54 H -7.331099 -3.907151 3.092622 0
M  V30 55 H -3.181653 -3.458909 2.311277 0
M  V30 56 H 0.385977 -2.113341 -3.733188 0
M  V30 57 H 2.401037 1.243624 -1.777363 0
M  V30 58 H 2.334257 0.734808 -3.493665 0
M  V30 59 H 2.169790 -0.527728 -2.269959 0
M  V30 60 H 0.281592 1.264890 -4.636899 0
M  V30 61 H -1.004922 1.928969 -3.630121 0
M  V30 62 H 0.572764 2.719368 -3.546831 0
M  V30 END ATOM
M  V30 BEGIN BOND
M  V30 1 1 1 2
M  V30 2 1 2 3
M  V30 3 1 3 4
M  V30 4 1 4 5
M  V30 5 1 5 6
M  V30 6 1 6 7
M  V30 7 1 7 8
M  V30 8 1 8 9
M  V30 9 1 9 10
M  V30 10 1 10 11
M  V30 11 2 11 12
M  V30 12 1 11 13
M  V30 13 1 13 14
M  V30 14 1 14 15
M  V30 15 1 15 16
M  V30 16 1 16 17
M  V30 17 1 17 18
M  V30 18 2 18 19
M  V30 19 1 18 20
M  V30 20 2 20 21
M  V30 21 1 21 22
M  V30 22 1 22 23
M  V30 23 2 22 24
M  V30 24 1 24 25
M  V30 25 1 25 26
M  V30 26 2 25 27
M  V30 27 2 16 28
M  V30 28 1 28 29
M  V30 29 1 29 30
M  V30 30 1 30 31
M  V30 31 1 31 32
M  V30 32 1 31 33
M  V30 33 1 10 2
M  V30 34 1 31 13
M  V30 35 1 8 4
M  V30 36 2 30 15
M  V30 37 1 27 20
M  V30 38 1 1 34
M  V30 39 1 1 35
M  V30 40 1 1 36
M  V30 41 1 2 37 CFG=3
M  V30 42 1 3 38
M  V30 43 1 3 39
M  V30 44 1 5 40
M  V30 45 1 5 41
M  V30 46 1 6 42
M  V30 47 1 6 43
M  V30 48 1 7 44
M  V30 49 1 7 45
M  V30 50 1 8 46 CFG=1
M  V30 51 1 9 47
M  V30 52 1 9 48
M  V30 53 1 13 49
M  V30 54 1 14 50
M  V30 55 1 14 51
M  V30 56 1 17 52
M  V30 57 1 21 53
M  V30 58 1 24 54
M  V30 59 1 27 55
M  V30 60 1 29 56
M  V30 61 1 32 57
M  V30 62 1 32 58
M  V30 63 1 32 59
M  V30 64 1 33 60
M  V30 65 1 33 61
M  V30 66 1 33 62
M  V30 END BOND
M  V30 END CTAB
M  END
>  <Dataset>  (825) 
ChEMBL_Kinases

>  <Ligand_Instance>  (825) 
nan

>  <PDB_ID>  (825) 
nan

>  <Standardized_SMILES>  (825) 
C[C@H]1CN2CCC[C@H]2CN1C(=O)C1Cc2c(NC(=O)c3cc(Cl)cc(Cl)c3)n[nH]c2C1(C)C

>  <Name>  (825) 
nan

>  <Pocket>  (825) 
nan

>  <ATP_Site>  (825) 
nan

>  <Peripheral>  (825) 
nan

>  <Num_H_Atoms_ProtBoundConf>  (825) 
nan

>  <Num_Resolved_Atoms>  (825) 
nan

>  <Num_Not_Resolved_Atoms>  (825) 
nan

$$$$
CHEMBL3662743
     RDKit          3D

  0  0  0  0  0  0  0  0  0  0999 V3000
M  V30 BEGIN CTAB
M  V30 COUNTS 56 59 0 0 0
M  V30 BEGIN ATOM
M  V30 1 C 3.034508 -6.105677 1.587442 0
M  V30 2 C 2.620948 -4.689199 1.356867 0 CFG=2
M  V30 3 C 1.569657 -4.555509 0.245831 0
M  V30 4 N 1.064380 -3.200737 0.332911 0
M  V30 5 C -0.271120 -2.999807 0.701348 0
M  V30 6 O -0.683353 -4.176010 0.866543 0
M  V30 7 N -1.078478 -1.859923 0.881852 0
M  V30 8 C -0.989102 -0.395960 0.795903 0
M  V30 9 C -2.189553 -0.079207 -0.019504 0
M  V30 10 C -2.778434 0.774232 -0.956651 0
M  V30 11 N -2.024677 1.893269 -1.459675 0
M  V30 12 C -2.128205 3.137412 -0.744222 0
M  V30 13 O -2.901192 3.048555 0.261191 0
M  V30 14 C -1.420241 4.349199 -1.142378 0
M  V30 15 C -1.629070 5.449913 -0.351074 0
M  V30 16 C -1.024203 6.670296 -0.605812 0
M  V30 17 C -0.166745 6.824006 -1.695363 0
M  V30 18 C 0.000386 5.669243 -2.455212 0
M  V30 19 N -0.593461 4.499538 -2.191966 0
M  V30 20 N -4.020644 0.301154 -1.183371 0
M  V30 21 N -4.204392 -0.777741 -0.440224 0
M  V30 22 C -3.123529 -1.046402 0.280737 0
M  V30 23 C -2.468192 -1.939844 1.279648 0
M  V30 24 C -3.039616 -3.334445 1.227968 0
M  V30 25 C -2.592674 -1.327481 2.654359 0
M  V30 26 C 2.184229 -2.314614 -0.018360 0
M  V30 27 C 3.225370 -2.470510 1.072647 0 CFG=2
M  V30 28 C 4.337448 -1.454097 0.920899 0
M  V30 29 N 3.768327 -3.820690 1.067862 0
M  V30 30 H 4.004546 -6.323739 1.093342 0
M  V30 31 H 3.200064 -6.251433 2.676080 0
M  V30 32 H 2.242537 -6.825078 1.282365 0
M  V30 33 H 2.130738 -4.236163 2.255477 0
M  V30 34 H 2.059769 -4.744509 -0.742781 0
M  V30 35 H 0.796940 -5.283847 0.481131 0
M  V30 36 H -0.090753 -0.038222 0.300651 0
M  V30 37 H -1.102845 0.077572 1.801557 0
M  V30 38 H -1.402585 1.855961 -2.319113 0
M  V30 39 H -2.275892 5.429144 0.514823 0
M  V30 40 H -1.193221 7.536706 0.023378 0
M  V30 41 H 0.333160 7.746690 -1.945533 0
M  V30 42 H 0.638822 5.669200 -3.319391 0
M  V30 43 H -5.102833 -1.334729 -0.438806 0
M  V30 44 H -2.878487 -3.754415 0.228814 0
M  V30 45 H -2.666110 -3.934116 2.055511 0
M  V30 46 H -4.141979 -3.209820 1.353412 0
M  V30 47 H -2.943142 -0.277574 2.594231 0
M  V30 48 H -3.375324 -1.864255 3.234977 0
M  V30 49 H -1.624508 -1.322361 3.184245 0
M  V30 50 H 2.638317 -2.619424 -0.997988 0
M  V30 51 H 1.909358 -1.264954 -0.075985 0
M  V30 52 H 2.701684 -2.326940 2.030063 0
M  V30 53 H 4.036830 -0.463459 1.305494 0
M  V30 54 H 4.653539 -1.451340 -0.143659 0
M  V30 55 H 5.232664 -1.783787 1.486425 0
M  V30 56 H 4.363846 -3.879936 1.933929 0
M  V30 END ATOM
M  V30 BEGIN BOND
M  V30 1 1 1 2
M  V30 2 1 2 3
M  V30 3 1 3 4
M  V30 4 1 4 5
M  V30 5 2 5 6
M  V30 6 1 5 7
M  V30 7 1 7 8
M  V30 8 1 8 9
M  V30 9 1 9 10
M  V30 10 1 10 11
M  V30 11 1 11 12
M  V30 12 2 12 13
M  V30 13 1 12 14
M  V30 14 2 14 15
M  V30 15 1 15 16
M  V30 16 2 16 17
M  V30 17 1 17 18
M  V30 18 2 18 19
M  V30 19 2 10 20
M  V30 20 1 20 21
M  V30 21 1 21 22
M  V30 22 1 22 23
M  V30 23 1 23 24
M  V30 24 1 23 25
M  V30 25 1 4 26
M  V30 26 1 26 27
M  V30 27 1 27 28
M  V30 28 1 27 29
M  V30 29 1 29 2
M  V30 30 1 23 7
M  V30 31 2 22 9
M  V30 32 1 19 14
M  V30 33 1 1 30
M  V30 34 1 1 31
M  V30 35 1 1 32
M  V30 36 1 2 33 CFG=1
M  V30 37 1 3 34
M  V30 38 1 3 35
M  V30 39 1 8 36
M  V30 40 1 8 37
M  V30 41 1 11 38
M  V30 42 1 15 39
M  V30 43 1 16 40
M  V30 44 1 17 41
M  V30 45 1 18 42
M  V30 46 1 21 43
M  V30 47 1 24 44
M  V30 48 1 24 45
M  V30 49 1 24 46
M  V30 50 1 25 47
M  V30 51 1 25 48
M  V30 52 1 25 49
M  V30 53 1 26 50
M  V30 54 1 26 51
M  V30 55 1 27 52 CFG=1
M  V30 56 1 28 53
M  V30 57 1 28 54
M  V30 58 1 28 55
M  V30 59 1 29 56
M  V30 END BOND
M  V30 END CTAB
M  END
>  <Dataset>  (826) 
ChEMBL_Kinases

>  <Ligand_Instance>  (826) 
nan

>  <PDB_ID>  (826) 
nan

>  <Standardized_SMILES>  (826) 
C[C@@H]1CN(C(=O)N2Cc3c(NC(=O)c4ccccn4)n[nH]c3C2(C)C)C[C@H](C)N1

>  <Name>  (826) 
nan

>  <Pocket>  (826) 
nan

>  <ATP_Site>  (826) 
nan

>  <Peripheral>  (826) 
nan

>  <Num_H_Atoms_ProtBoundConf>  (826) 
nan

>  <Num_Resolved_Atoms>  (826) 
nan

>  <Num_Not_Resolved_Atoms>  (826) 
nan

$$$$
CHEMBL3662742
     RDKit          3D

  0  0  0  0  0  0  0  0  0  0999 V3000
M  V30 BEGIN CTAB
M  V30 COUNTS 67 71 0 0 0
M  V30 BEGIN ATOM
M  V30 1 C 4.334342 1.648039 4.035472 0
M  V30 2 C 4.159439 0.174056 3.794764 0
M  V30 3 C 2.974283 -0.169942 2.964546 0
M  V30 4 C 2.968728 0.420670 1.602917 0 CFG=1
M  V30 5 C 4.140360 -0.004231 0.770990 0
M  V30 6 N 3.969521 -1.240072 0.099395 0
M  V30 7 C 4.685320 -2.339790 0.643907 0
M  V30 8 C 3.803021 -3.528809 0.462422 0
M  V30 9 C 2.419728 -2.975192 0.392334 0
M  V30 10 C 2.692825 -1.632491 -0.317203 0 CFG=1
M  V30 11 C 1.527489 -0.759270 -0.101986 0
M  V30 12 N 1.708468 0.265088 0.902802 0
M  V30 13 C 0.646071 1.179047 1.239429 0
M  V30 14 O 0.920986 2.029661 2.160458 0
M  V30 15 N -0.673289 1.251612 0.671362 0
M  V30 16 C -1.531549 0.627422 -0.341486 0
M  V30 17 C -2.686162 0.183447 0.475629 0
M  V30 18 C -3.682527 -0.764999 0.729704 0
M  V30 19 N -3.740165 -1.908155 -0.115469 0
M  V30 20 C -4.519116 -1.919158 -1.305196 0
M  V30 21 O -5.169898 -0.885953 -1.606395 0
M  V30 22 C -4.608721 -3.064181 -2.202691 0
M  V30 23 C -5.401565 -2.938109 -3.322671 0
M  V30 24 C -5.484725 -4.031143 -4.179920 0
M  V30 25 C -4.835443 -5.235651 -3.998866 0
M  V30 26 C -4.045140 -5.321400 -2.855578 0
M  V30 27 C -3.937602 -4.247450 -1.974105 0
M  V30 28 N -4.363486 -0.294045 1.788477 0
M  V30 29 N -3.858650 0.858645 2.191464 0
M  V30 30 C -2.808365 1.195387 1.399222 0
M  V30 31 C -1.706600 2.173522 1.067686 0
M  V30 32 C -2.199889 3.081714 -0.003888 0
M  V30 33 C -1.370922 2.992943 2.292447 0
M  V30 34 H 3.414953 2.176711 4.307170 0
M  V30 35 H 5.028285 1.744907 4.912646 0
M  V30 36 H 4.915434 2.134104 3.202578 0
M  V30 37 H 5.126871 -0.232339 3.442642 0
M  V30 38 H 4.024762 -0.272682 4.824945 0
M  V30 39 H 2.042605 0.001668 3.516814 0
M  V30 40 H 3.012578 -1.290598 2.819262 0
M  V30 41 H 3.093920 1.538265 1.732708 0
M  V30 42 H 4.410547 0.758808 -0.003369 0
M  V30 43 H 5.029901 -0.063860 1.426219 0
M  V30 44 H 4.972915 -2.181812 1.701963 0
M  V30 45 H 5.605776 -2.514919 0.044774 0
M  V30 46 H 4.014419 -4.096989 -0.467236 0
M  V30 47 H 3.961502 -4.177432 1.356673 0
M  V30 48 H 1.929876 -2.840970 1.356576 0
M  V30 49 H 1.777675 -3.617439 -0.244668 0
M  V30 50 H 2.679403 -1.910744 -1.425069 0
M  V30 51 H 1.305546 -0.180436 -1.051614 0
M  V30 52 H 0.636081 -1.375109 0.178324 0
M  V30 53 H -1.898582 1.366024 -1.086088 0
M  V30 54 H -1.060150 -0.176681 -0.897094 0
M  V30 55 H -3.195525 -2.761153 0.146275 0
M  V30 56 H -5.969224 -2.057644 -3.596611 0
M  V30 57 H -6.106242 -3.971309 -5.084816 0
M  V30 58 H -4.946310 -6.041935 -4.706455 0
M  V30 59 H -3.520569 -6.240201 -2.673509 0
M  V30 60 H -3.318642 -4.360782 -1.109042 0
M  V30 61 H -4.194312 1.440478 2.989808 0
M  V30 62 H -2.422003 4.083698 0.472622 0
M  V30 63 H -3.168382 2.795441 -0.465932 0
M  V30 64 H -1.466293 3.315281 -0.795615 0
M  V30 65 H -1.120178 2.371942 3.169923 0
M  V30 66 H -2.301979 3.565455 2.593790 0
M  V30 67 H -0.610663 3.750823 2.156210 0
M  V30 END ATOM
M  V30 BEGIN BOND
M  V30 1 1 1 2
M  V30 2 1 2 3
M  V30 3 1 3 4
M  V30 4 1 4 5
M  V30 5 1 5 6
M  V30 6 1 6 7
M  V30 7 1 7 8
M  V30 8 1 8 9
M  V30 9 1 9 10
M  V30 10 1 10 11
M  V30 11 1 11 12
M  V30 12 1 12 13
M  V30 13 2 13 14
M  V30 14 1 13 15
M  V30 15 1 15 16
M  V30 16 1 16 17
M  V30 17 1 17 18
M  V30 18 1 18 19
M  V30 19 1 19 20
M  V30 20 2 20 21
M  V30 21 1 20 22
M  V30 22 2 22 23
M  V30 23 1 23 24
M  V30 24 2 24 25
M  V30 25 1 25 26
M  V30 26 2 26 27
M  V30 27 2 18 28
M  V30 28 1 28 29
M  V30 29 1 29 30
M  V30 30 1 30 31
M  V30 31 1 31 32
M  V30 32 1 31 33
M  V30 33 1 12 4
M  V30 34 1 31 15
M  V30 35 1 10 6
M  V30 36 2 30 17
M  V30 37 1 27 22
M  V30 38 1 1 34
M  V30 39 1 1 35
M  V30 40 1 1 36
M  V30 41 1 2 37
M  V30 42 1 2 38
M  V30 43 1 3 39
M  V30 44 1 3 40
M  V30 45 1 4 41 CFG=1
M  V30 46 1 5 42
M  V30 47 1 5 43
M  V30 48 1 7 44
M  V30 49 1 7 45
M  V30 50 1 8 46
M  V30 51 1 8 47
M  V30 52 1 9 48
M  V30 53 1 9 49
M  V30 54 1 10 50 CFG=3
M  V30 55 1 11 51
M  V30 56 1 11 52
M  V30 57 1 16 53
M  V30 58 1 16 54
M  V30 59 1 19 55
M  V30 60 1 23 56
M  V30 61 1 24 57
M  V30 62 1 25 58
M  V30 63 1 26 59
M  V30 64 1 27 60
M  V30 65 1 29 61
M  V30 66 1 32 62
M  V30 67 1 32 63
M  V30 68 1 32 64
M  V30 69 1 33 65
M  V30 70 1 33 66
M  V30 71 1 33 67
M  V30 END BOND
M  V30 END CTAB
M  END
>  <Dataset>  (827) 
ChEMBL_Kinases

>  <Ligand_Instance>  (827) 
nan

>  <PDB_ID>  (827) 
nan

>  <Standardized_SMILES>  (827) 
CCC[C@H]1CN2CCC[C@H]2CN1C(=O)N1Cc2c(NC(=O)c3ccccc3)n[nH]c2C1(C)C

>  <Name>  (827) 
nan

>  <Pocket>  (827) 
nan

>  <ATP_Site>  (827) 
nan

>  <Peripheral>  (827) 
nan

>  <Num_H_Atoms_ProtBoundConf>  (827) 
nan

>  <Num_Resolved_Atoms>  (827) 
nan

>  <Num_Not_Resolved_Atoms>  (827) 
nan

$$$$
CHEMBL3662741
     RDKit          3D

  0  0  0  0  0  0  0  0  0  0999 V3000
M  V30 BEGIN CTAB
M  V30 COUNTS 61 65 0 0 0
M  V30 BEGIN ATOM
M  V30 1 C -0.837561 -0.106532 2.731472 0
M  V30 2 C 0.600122 0.122426 3.124576 0 CFG=1
M  V30 3 C 1.129595 -0.980325 4.007884 0
M  V30 4 N 2.484481 -0.666955 4.322345 0
M  V30 5 C 2.859046 -0.807117 5.697167 0
M  V30 6 C 4.043861 0.145854 5.905475 0
M  V30 7 C 4.297488 0.697243 4.495512 0
M  V30 8 C 2.844406 0.701450 3.983552 0 CFG=1
M  V30 9 C 2.813081 0.893640 2.489530 0
M  V30 10 N 1.478211 0.458611 2.042117 0
M  V30 11 C 1.569863 0.549765 0.603701 0
M  V30 12 O 2.774370 0.983163 0.588087 0
M  V30 13 N 0.673905 0.272171 -0.488217 0
M  V30 14 C -0.704154 -0.227481 -0.619243 0
M  V30 15 C -0.783703 -0.561674 -2.049707 0
M  V30 16 C -1.498193 -1.143654 -3.084016 0
M  V30 17 N -2.775125 -1.773458 -2.944653 0
M  V30 18 C -3.062651 -3.134784 -2.658287 0
M  V30 19 O -2.047178 -3.862923 -2.512058 0
M  V30 20 C -4.434687 -3.586080 -2.555809 0
M  V30 21 C -5.555003 -2.813077 -2.710148 0
M  V30 22 C -6.814932 -3.388813 -2.582683 0
M  V30 23 C -6.998412 -4.730417 -2.302101 0
M  V30 24 C -5.851970 -5.515304 -2.145430 0
M  V30 25 C -4.611146 -4.921218 -2.276601 0
M  V30 26 N -0.794272 -1.017136 -4.229074 0
M  V30 27 N 0.341468 -0.382436 -3.991598 0
M  V30 28 C 0.346696 -0.111067 -2.690886 0
M  V30 29 C 1.297575 0.567702 -1.789094 0
M  V30 30 C 1.309739 2.055234 -2.049558 0
M  V30 31 C 2.679155 0.022480 -1.913966 0
M  V30 32 H -1.047567 -1.125978 2.413682 0
M  V30 33 H -1.439178 0.030865 3.680547 0
M  V30 34 H -1.155732 0.704657 2.080217 0
M  V30 35 H 0.560469 1.050780 3.771801 0
M  V30 36 H 1.094152 -1.919260 3.396464 0
M  V30 37 H 0.496001 -1.050408 4.905843 0
M  V30 38 H 3.273386 -1.831960 5.840958 0
M  V30 39 H 2.041383 -0.584962 6.405632 0
M  V30 40 H 3.712320 0.963211 6.571259 0
M  V30 41 H 4.919565 -0.343160 6.328935 0
M  V30 42 H 4.823010 -0.060889 3.908377 0
M  V30 43 H 4.743014 1.690199 4.511957 0
M  V30 44 H 2.347245 1.468257 4.570765 0
M  V30 45 H 2.964942 1.937625 2.225174 0
M  V30 46 H 3.596433 0.209044 2.078829 0
M  V30 47 H -0.877618 -1.108076 0.033973 0
M  V30 48 H -1.398865 0.567591 -0.301062 0
M  V30 49 H -3.515787 -1.045451 -3.092425 0
M  V30 50 H -5.413662 -1.776328 -2.926970 0
M  V30 51 H -7.645013 -2.705941 -2.719959 0
M  V30 52 H -8.037209 -5.032567 -2.232967 0
M  V30 53 H -6.052117 -6.541938 -1.930384 0
M  V30 54 H -3.821569 -5.662752 -2.126824 0
M  V30 55 H 0.976821 -0.218382 -4.783470 0
M  V30 56 H 0.379488 2.569261 -1.746707 0
M  V30 57 H 1.355826 2.167643 -3.162734 0
M  V30 58 H 2.189450 2.529400 -1.605675 0
M  V30 59 H 2.840083 -0.261027 -2.991948 0
M  V30 60 H 2.896874 -0.873851 -1.334652 0
M  V30 61 H 3.391967 0.854494 -1.731493 0
M  V30 END ATOM
M  V30 BEGIN BOND
M  V30 1 1 1 2
M  V30 2 1 2 3
M  V30 3 1 3 4
M  V30 4 1 4 5
M  V30 5 1 5 6
M  V30 6 1 6 7
M  V30 7 1 7 8
M  V30 8 1 8 9
M  V30 9 1 9 10
M  V30 10 1 10 11
M  V30 11 2 11 12
M  V30 12 1 11 13
M  V30 13 1 13 14
M  V30 14 1 14 15
M  V30 15 1 15 16
M  V30 16 1 16 17
M  V30 17 1 17 18
M  V30 18 2 18 19
M  V30 19 1 18 20
M  V30 20 2 20 21
M  V30 21 1 21 22
M  V30 22 2 22 23
M  V30 23 1 23 24
M  V30 24 2 24 25
M  V30 25 2 16 26
M  V30 26 1 26 27
M  V30 27 1 27 28
M  V30 28 1 28 29
M  V30 29 1 29 30
M  V30 30 1 29 31
M  V30 31 1 10 2
M  V30 32 1 29 13
M  V30 33 1 8 4
M  V30 34 2 28 15
M  V30 35 1 25 20
M  V30 36 1 1 32
M  V30 37 1 1 33
M  V30 38 1 1 34
M  V30 39 1 2 35 CFG=1
M  V30 40 1 3 36
M  V30 41 1 3 37
M  V30 42 1 5 38
M  V30 43 1 5 39
M  V30 44 1 6 40
M  V30 45 1 6 41
M  V30 46 1 7 42
M  V30 47 1 7 43
M  V30 48 1 8 44 CFG=1
M  V30 49 1 9 45
M  V30 50 1 9 46
M  V30 51 1 14 47
M  V30 52 1 14 48
M  V30 53 1 17 49
M  V30 54 1 21 50
M  V30 55 1 22 51
M  V30 56 1 23 52
M  V30 57 1 24 53
M  V30 58 1 25 54
M  V30 59 1 27 55
M  V30 60 1 30 56
M  V30 61 1 30 57
M  V30 62 1 30 58
M  V30 63 1 31 59
M  V30 64 1 31 60
M  V30 65 1 31 61
M  V30 END BOND
M  V30 END CTAB
M  END
>  <Dataset>  (828) 
ChEMBL_Kinases

>  <Ligand_Instance>  (828) 
nan

>  <PDB_ID>  (828) 
nan

>  <Standardized_SMILES>  (828) 
C[C@H]1CN2CCC[C@H]2CN1C(=O)N1Cc2c(NC(=O)c3ccccc3)n[nH]c2C1(C)C

>  <Name>  (828) 
nan

>  <Pocket>  (828) 
nan

>  <ATP_Site>  (828) 
nan

>  <Peripheral>  (828) 
nan

>  <Num_H_Atoms_ProtBoundConf>  (828) 
nan

>  <Num_Resolved_Atoms>  (828) 
nan

>  <Num_Not_Resolved_Atoms>  (828) 
nan

$$$$
CHEMBL3662740
     RDKit          3D

  0  0  0  0  0  0  0  0  0  0999 V3000
M  V30 BEGIN CTAB
M  V30 COUNTS 71 76 0 0 0
M  V30 BEGIN ATOM
M  V30 1 C 3.816646 1.336685 5.181702 0
M  V30 2 N 4.679383 0.242930 4.834546 0
M  V30 3 C 5.430004 -0.504675 5.647600 0
M  V30 4 C 6.054399 -1.400650 4.813164 0
M  V30 5 N 5.657326 -1.155146 3.557283 0
M  V30 6 C 4.779951 -0.110356 3.549417 0
M  V30 7 C 4.263550 0.266939 2.248120 0
M  V30 8 O 4.557078 -0.273329 1.126192 0
M  V30 9 N 3.345281 1.291931 1.957855 0
M  V30 10 C 2.884648 1.602234 0.646503 0
M  V30 11 N 3.460839 2.490448 -0.215003 0
M  V30 12 N 2.764450 2.527271 -1.347919 0
M  V30 13 C 1.752787 1.659802 -1.190601 0
M  V30 14 C 1.775204 1.047734 0.041918 0
M  V30 15 C 0.634865 0.105698 0.146740 0
M  V30 16 N -0.017934 0.198621 -1.149649 0
M  V30 17 C -1.126981 -0.478635 -1.721946 0
M  V30 18 O -1.637439 -0.333435 -2.879185 0
M  V30 19 N -1.951532 -1.493680 -1.146382 0
M  V30 20 C -3.032433 -2.024115 -1.956203 0
M  V30 21 C -2.697126 -3.486087 -2.170427 0 CFG=2
M  V30 22 C -3.821176 -4.227676 -2.861729 0
M  V30 23 C -3.454921 -5.665719 -2.479157 0
M  V30 24 C -2.430074 -5.526777 -1.345076 0
M  V30 25 N -2.708976 -4.201156 -0.889424 0
M  V30 26 C -1.793111 -3.650765 0.046400 0
M  V30 27 C -1.955544 -2.157231 0.144611 0 CFG=2
M  V30 28 C -3.190832 -1.801585 0.966654 0
M  V30 29 C -3.253427 -0.349864 1.211406 0
M  V30 30 C -3.891527 0.564510 0.377672 0
M  V30 31 C -3.929239 1.918883 0.639872 0
M  V30 32 C -3.310591 2.421540 1.780821 0
M  V30 33 C -2.659666 1.571082 2.650941 0
M  V30 34 C -2.654175 0.227073 2.338150 0
M  V30 35 C 0.610650 1.188641 -2.006129 0
M  V30 36 C 1.072443 0.564220 -3.313679 0
M  V30 37 C -0.274224 2.339877 -2.343865 0
M  V30 38 H 2.766500 1.065790 4.925027 0
M  V30 39 H 3.893105 1.498298 6.301458 0
M  V30 40 H 4.114351 2.288355 4.728442 0
M  V30 41 H 5.475929 -0.365303 6.715094 0
M  V30 42 H 6.745840 -2.166651 5.134669 0
M  V30 43 H 2.957355 1.879706 2.723940 0
M  V30 44 H 3.023506 3.137544 -2.147509 0
M  V30 45 H 1.082829 -0.888430 0.343069 0
M  V30 46 H -0.083598 0.404394 0.934448 0
M  V30 47 H -3.057517 -1.564090 -2.945916 0
M  V30 48 H -4.022358 -1.984949 -1.449103 0
M  V30 49 H -1.768974 -3.627806 -2.730502 0
M  V30 50 H -3.869252 -4.068932 -3.938704 0
M  V30 51 H -4.753390 -3.904339 -2.325847 0
M  V30 52 H -3.007542 -6.140942 -3.376209 0
M  V30 53 H -4.347560 -6.205244 -2.093968 0
M  V30 54 H -2.558053 -6.320909 -0.610951 0
M  V30 55 H -1.432644 -5.634030 -1.847089 0
M  V30 56 H -0.740145 -3.930238 -0.119824 0
M  V30 57 H -2.055603 -4.059049 1.052078 0
M  V30 58 H -1.097977 -1.744566 0.751962 0
M  V30 59 H -3.038566 -2.268130 1.983524 0
M  V30 60 H -4.121227 -2.234156 0.553313 0
M  V30 61 H -4.374071 0.193762 -0.507390 0
M  V30 62 H -4.413936 2.631453 0.010548 0
M  V30 63 H -3.284726 3.463954 2.073102 0
M  V30 64 H -2.147569 1.870175 3.567031 0
M  V30 65 H -2.152777 -0.468435 2.998099 0
M  V30 66 H 0.218071 0.621872 -4.025201 0
M  V30 67 H 1.441266 -0.471295 -3.151654 0
M  V30 68 H 1.900234 1.180116 -3.731905 0
M  V30 69 H -0.808811 2.084698 -3.301801 0
M  V30 70 H 0.367033 3.230376 -2.578721 0
M  V30 71 H -0.961025 2.642332 -1.535105 0
M  V30 END ATOM
M  V30 BEGIN BOND
M  V30 1 1 1 2
M  V30 2 1 2 3
M  V30 3 2 3 4
M  V30 4 1 4 5
M  V30 5 2 5 6
M  V30 6 1 6 7
M  V30 7 2 7 8
M  V30 8 1 7 9
M  V30 9 1 9 10
M  V30 10 2 10 11
M  V30 11 1 11 12
M  V30 12 1 12 13
M  V30 13 2 13 14
M  V30 14 1 14 15
M  V30 15 1 15 16
M  V30 16 1 16 17
M  V30 17 2 17 18
M  V30 18 1 17 19
M  V30 19 1 19 20
M  V30 20 1 20 21
M  V30 21 1 21 22
M  V30 22 1 22 23
M  V30 23 1 23 24
M  V30 24 1 24 25
M  V30 25 1 25 26
M  V30 26 1 26 27
M  V30 27 1 27 28
M  V30 28 1 28 29
M  V30 29 2 29 30
M  V30 30 1 30 31
M  V30 31 2 31 32
M  V30 32 1 32 33
M  V30 33 2 33 34
M  V30 34 1 16 35
M  V30 35 1 35 36
M  V30 36 1 35 37
M  V30 37 1 6 2
M  V30 38 1 14 10
M  V30 39 1 27 19
M  V30 40 1 34 29
M  V30 41 1 35 13
M  V30 42 1 25 21
M  V30 43 1 1 38
M  V30 44 1 1 39
M  V30 45 1 1 40
M  V30 46 1 3 41
M  V30 47 1 4 42
M  V30 48 1 9 43
M  V30 49 1 12 44
M  V30 50 1 15 45
M  V30 51 1 15 46
M  V30 52 1 20 47
M  V30 53 1 20 48
M  V30 54 1 21 49 CFG=3
M  V30 55 1 22 50
M  V30 56 1 22 51
M  V30 57 1 23 52
M  V30 58 1 23 53
M  V30 59 1 24 54
M  V30 60 1 24 55
M  V30 61 1 26 56
M  V30 62 1 26 57
M  V30 63 1 27 58 CFG=1
M  V30 64 1 28 59
M  V30 65 1 28 60
M  V30 66 1 30 61
M  V30 67 1 31 62
M  V30 68 1 32 63
M  V30 69 1 33 64
M  V30 70 1 34 65
M  V30 71 1 36 66
M  V30 72 1 36 67
M  V30 73 1 36 68
M  V30 74 1 37 69
M  V30 75 1 37 70
M  V30 76 1 37 71
M  V30 END BOND
M  V30 END CTAB
M  END
>  <Dataset>  (829) 
ChEMBL_Kinases

>  <Ligand_Instance>  (829) 
nan

>  <PDB_ID>  (829) 
nan

>  <Standardized_SMILES>  (829) 
Cn1ccnc1C(=O)Nc1n[nH]c2c1CN(C(=O)N1C[C@@H]3CCCN3C[C@@H]1Cc1ccccc1)C2(C)C

>  <Name>  (829) 
nan

>  <Pocket>  (829) 
nan

>  <ATP_Site>  (829) 
nan

>  <Peripheral>  (829) 
nan

>  <Num_H_Atoms_ProtBoundConf>  (829) 
nan

>  <Num_Resolved_Atoms>  (829) 
nan

>  <Num_Not_Resolved_Atoms>  (829) 
nan

$$$$
CHEMBL3662739
     RDKit          3D

  0  0  0  0  0  0  0  0  0  0999 V3000
M  V30 BEGIN CTAB
M  V30 COUNTS 75 81 0 0 0
M  V30 BEGIN ATOM
M  V30 1 C 3.281931 -1.615443 2.048324 0
M  V30 2 C 1.923161 -2.317308 2.085320 0
M  V30 3 C 1.760653 -2.939715 3.460407 0
M  V30 4 C 1.968925 -3.389596 1.060291 0
M  V30 5 N 2.178897 -4.673319 0.728110 0
M  V30 6 N 1.981088 -4.823165 -0.593390 0
M  V30 7 C 1.646994 -3.656490 -1.116306 0
M  V30 8 N 1.346762 -3.347060 -2.493599 0
M  V30 9 C 2.463002 -2.946497 -3.267233 0
M  V30 10 O 3.591405 -2.889791 -2.725608 0
M  V30 11 C 2.293081 -2.605927 -4.674415 0
M  V30 12 C 3.356429 -2.208345 -5.452838 0
M  V30 13 C 3.272771 -1.868556 -6.791639 0
M  V30 14 C 2.028973 -1.934814 -7.386483 0
M  V30 15 C 1.865061 -1.608385 -8.730122 0
M  V30 16 C 0.598664 -1.681043 -9.318193 0
M  V30 17 N -0.416596 -2.073982 -8.527447 0
M  V30 18 C -0.274927 -2.391517 -7.232581 0
M  V30 19 C 0.950111 -2.336361 -6.604498 0
M  V30 20 N 1.111574 -2.646205 -5.325324 0
M  V30 21 C 1.632551 -2.726664 -0.081976 0
M  V30 22 C 1.411928 -1.318874 0.335755 0
M  V30 23 N 0.860956 -1.443670 1.688471 0
M  V30 24 C -0.200091 -0.994150 2.497160 0
M  V30 25 O -0.157917 -1.488448 3.653076 0
M  V30 26 N -1.322030 -0.160875 2.463621 0
M  V30 27 C -1.659917 0.530248 1.196609 0
M  V30 28 C -3.108257 0.179844 1.008360 0 CFG=2
M  V30 29 C -3.753333 0.625900 -0.268378 0
M  V30 30 C -5.224539 0.515965 0.195666 0
M  V30 31 C -5.140784 0.680887 1.734058 0
M  V30 32 N -3.815451 1.075888 1.935008 0
M  V30 33 C -3.206238 1.224057 3.163485 0
M  V30 34 C -2.219905 0.124550 3.525546 0 CFG=2
M  V30 35 C -1.582345 0.448455 4.863105 0
M  V30 36 C -0.700316 1.611077 4.860758 0
M  V30 37 C 0.651084 1.683200 4.617369 0
M  V30 38 C 1.393158 2.843857 4.643546 0
M  V30 39 C 0.769557 4.029778 4.929399 0
M  V30 40 C -0.582757 4.069876 5.189649 0
M  V30 41 C -1.257227 2.868230 5.145277 0
M  V30 42 H 3.907526 -2.042151 2.868099 0
M  V30 43 H 3.106246 -0.553522 2.210173 0
M  V30 44 H 3.840843 -1.851068 1.122235 0
M  V30 45 H 0.838274 -3.526568 3.580812 0
M  V30 46 H 1.898040 -2.227736 4.265253 0
M  V30 47 H 2.601274 -3.679267 3.555595 0
M  V30 48 H 2.452764 -5.386784 1.456677 0
M  V30 49 H 0.396239 -3.400274 -2.924302 0
M  V30 50 H 4.329468 -2.163210 -4.956540 0
M  V30 51 H 4.137798 -1.556826 -7.376741 0
M  V30 52 H 2.699555 -1.293224 -9.353498 0
M  V30 53 H 0.506485 -1.420339 -10.362754 0
M  V30 54 H -1.118707 -2.700288 -6.640811 0
M  V30 55 H 2.360959 -0.739027 0.364818 0
M  V30 56 H 0.714306 -0.865226 -0.369840 0
M  V30 57 H -1.030033 0.262271 0.365828 0
M  V30 58 H -1.597478 1.610578 1.436633 0
M  V30 59 H -3.362742 -0.872610 1.174177 0
M  V30 60 H -3.504755 1.647758 -0.563514 0
M  V30 61 H -3.539821 -0.116321 -1.068208 0
M  V30 62 H -5.508050 -0.541158 -0.010076 0
M  V30 63 H -5.860187 1.269049 -0.262672 0
M  V30 64 H -5.863838 1.480519 2.014876 0
M  V30 65 H -5.412418 -0.279921 2.238153 0
M  V30 66 H -3.916274 1.368481 4.008108 0
M  V30 67 H -2.555090 2.159381 3.134617 0
M  V30 68 H -2.883397 -0.763487 3.761668 0
M  V30 69 H -2.493030 0.687753 5.524633 0
M  V30 70 H -1.195637 -0.473434 5.298740 0
M  V30 71 H 1.150894 0.760494 4.393780 0
M  V30 72 H 2.449704 2.790154 4.435870 0
M  V30 73 H 1.305999 4.969899 4.962659 0
M  V30 74 H -1.081823 4.988197 5.413898 0
M  V30 75 H -2.333065 2.951179 5.364161 0
M  V30 END ATOM
M  V30 BEGIN BOND
M  V30 1 1 1 2
M  V30 2 1 2 3
M  V30 3 1 2 4
M  V30 4 1 4 5
M  V30 5 1 5 6
M  V30 6 2 6 7
M  V30 7 1 7 8
M  V30 8 1 8 9
M  V30 9 2 9 10
M  V30 10 1 9 11
M  V30 11 2 11 12
M  V30 12 1 12 13
M  V30 13 2 13 14
M  V30 14 1 14 15
M  V30 15 2 15 16
M  V30 16 1 16 17
M  V30 17 2 17 18
M  V30 18 1 18 19
M  V30 19 2 19 20
M  V30 20 1 7 21
M  V30 21 1 21 22
M  V30 22 1 22 23
M  V30 23 1 23 24
M  V30 24 2 24 25
M  V30 25 1 24 26
M  V30 26 1 26 27
M  V30 27 1 27 28
M  V30 28 1 28 29
M  V30 29 1 29 30
M  V30 30 1 30 31
M  V30 31 1 31 32
M  V30 32 1 32 33
M  V30 33 1 33 34
M  V30 34 1 34 35
M  V30 35 1 35 36
M  V30 36 2 36 37
M  V30 37 1 37 38
M  V30 38 2 38 39
M  V30 39 1 39 40
M  V30 40 2 40 41
M  V30 41 1 23 2
M  V30 42 1 34 26
M  V30 43 1 41 36
M  V30 44 2 21 4
M  V30 45 1 32 28
M  V30 46 1 20 11
M  V30 47 1 19 14
M  V30 48 1 1 42
M  V30 49 1 1 43
M  V30 50 1 1 44
M  V30 51 1 3 45
M  V30 52 1 3 46
M  V30 53 1 3 47
M  V30 54 1 5 48
M  V30 55 1 8 49
M  V30 56 1 12 50
M  V30 57 1 13 51
M  V30 58 1 15 52
M  V30 59 1 16 53
M  V30 60 1 18 54
M  V30 61 1 22 55
M  V30 62 1 22 56
M  V30 63 1 27 57
M  V30 64 1 27 58
M  V30 65 1 28 59 CFG=1
M  V30 66 1 29 60
M  V30 67 1 29 61
M  V30 68 1 30 62
M  V30 69 1 30 63
M  V30 70 1 31 64
M  V30 71 1 31 65
M  V30 72 1 33 66
M  V30 73 1 33 67
M  V30 74 1 34 68 CFG=1
M  V30 75 1 35 69
M  V30 76 1 35 70
M  V30 77 1 37 71
M  V30 78 1 38 72
M  V30 79 1 39 73
M  V30 80 1 40 74
M  V30 81 1 41 75
M  V30 END BOND
M  V30 END CTAB
M  END
>  <Dataset>  (830) 
ChEMBL_Kinases

>  <Ligand_Instance>  (830) 
nan

>  <PDB_ID>  (830) 
nan

>  <Standardized_SMILES>  (830) 
CC1(C)c2[nH]nc(NC(=O)c3ccc4ccncc4n3)c2CN1C(=O)N1C[C@@H]2CCCN2C[C@@H]1Cc1ccccc1

>  <Name>  (830) 
nan

>  <Pocket>  (830) 
nan

>  <ATP_Site>  (830) 
nan

>  <Peripheral>  (830) 
nan

>  <Num_H_Atoms_ProtBoundConf>  (830) 
nan

>  <Num_Resolved_Atoms>  (830) 
nan

>  <Num_Not_Resolved_Atoms>  (830) 
nan

$$$$
CHEMBL3662738
     RDKit          3D

  0  0  0  0  0  0  0  0  0  0999 V3000
M  V30 BEGIN CTAB
M  V30 COUNTS 57 61 0 0 0
M  V30 BEGIN ATOM
M  V30 1 C 1.474705 -0.851042 -1.569616 0
M  V30 2 C 1.255914 -1.258460 -0.130961 0
M  V30 3 C 1.599222 -2.674524 0.171769 0
M  V30 4 C 2.084482 -0.398920 0.785792 0
M  V30 5 N 3.371713 -0.255885 1.186492 0
M  V30 6 N 3.411778 0.755739 2.066821 0
M  V30 7 C 2.167530 1.256320 2.229935 0
M  V30 8 N 1.818100 2.357339 3.103138 0
M  V30 9 C 1.924974 3.566486 2.370612 0
M  V30 10 O 2.288514 3.375328 1.174935 0
M  V30 11 C 1.648423 4.889419 2.925467 0
M  V30 12 C 1.803471 5.960791 2.067297 0
M  V30 13 C 1.570474 7.261016 2.478502 0
M  V30 14 C 1.175977 7.435860 3.786394 0
M  V30 15 C 1.018217 6.370244 4.652165 0
M  V30 16 Cl 0.520548 6.512175 6.325907 0
M  V30 17 N 1.259516 5.121696 4.196782 0
M  V30 18 C 1.315616 0.542869 1.431480 0
M  V30 19 C -0.074305 0.398016 1.007541 0
M  V30 20 N -0.085768 -0.857163 0.240294 0
M  V30 21 C -1.352103 -1.421570 0.013606 0
M  V30 22 O -2.280428 -0.730642 0.525995 0
M  V30 23 N -1.886160 -2.555412 -0.631703 0
M  V30 24 C -3.307037 -2.674044 -0.559643 0
M  V30 25 C -3.802112 -4.090328 -0.627529 0
M  V30 26 N -3.228423 -4.875506 -1.657403 0
M  V30 27 C -3.232475 -6.283998 -1.488114 0
M  V30 28 C -1.770452 -6.661195 -1.575681 0
M  V30 29 C -1.271715 -5.676076 -2.639442 0
M  V30 30 C -2.033127 -4.417821 -2.235413 0
M  V30 31 C -1.152795 -3.583138 -1.344655 0
M  V30 32 H 2.386076 -0.218701 -1.597359 0
M  V30 33 H 1.690374 -1.719995 -2.222571 0
M  V30 34 H 0.643656 -0.246467 -1.952409 0
M  V30 35 H 1.770175 -3.202125 -0.811870 0
M  V30 36 H 2.581531 -2.743731 0.682567 0
M  V30 37 H 0.877284 -3.192113 0.822876 0
M  V30 38 H 4.193487 -0.828492 0.870196 0
M  V30 39 H 1.518751 2.408107 4.120226 0
M  V30 40 H 2.117515 5.826190 1.024457 0
M  V30 41 H 1.684557 8.114419 1.827513 0
M  V30 42 H 0.971960 8.431174 4.189582 0
M  V30 43 H -0.322533 1.230223 0.320292 0
M  V30 44 H -0.794159 0.338859 1.831128 0
M  V30 45 H -3.793329 -2.127417 -1.417984 0
M  V30 46 H -3.703083 -2.180283 0.337347 0
M  V30 47 H -4.903936 -4.112425 -0.746914 0
M  V30 48 H -3.578928 -4.566379 0.350395 0
M  V30 49 H -3.632741 -6.551082 -0.497871 0
M  V30 50 H -3.800151 -6.795149 -2.315734 0
M  V30 51 H -1.635600 -7.712127 -1.897816 0
M  V30 52 H -1.341731 -6.434910 -0.579194 0
M  V30 53 H -0.190166 -5.547699 -2.592889 0
M  V30 54 H -1.663857 -6.033558 -3.598646 0
M  V30 55 H -2.252379 -3.821506 -3.144190 0
M  V30 56 H -0.349914 -3.068032 -1.923406 0
M  V30 57 H -0.643118 -4.298105 -0.667401 0
M  V30 END ATOM
M  V30 BEGIN BOND
M  V30 1 1 1 2
M  V30 2 1 2 3
M  V30 3 1 2 4
M  V30 4 1 4 5
M  V30 5 1 5 6
M  V30 6 2 6 7
M  V30 7 1 7 8
M  V30 8 1 8 9
M  V30 9 2 9 10
M  V30 10 1 9 11
M  V30 11 2 11 12
M  V30 12 1 12 13
M  V30 13 2 13 14
M  V30 14 1 14 15
M  V30 15 1 15 16
M  V30 16 2 15 17
M  V30 17 1 7 18
M  V30 18 1 18 19
M  V30 19 1 19 20
M  V30 20 1 20 21
M  V30 21 2 21 22
M  V30 22 1 21 23
M  V30 23 1 23 24
M  V30 24 1 24 25
M  V30 25 1 25 26
M  V30 26 1 26 27
M  V30 27 1 27 28
M  V30 28 1 28 29
M  V30 29 1 29 30
M  V30 30 1 30 31
M  V30 31 1 20 2
M  V30 32 1 31 23
M  V30 33 2 18 4
M  V30 34 1 30 26
M  V30 35 1 17 11
M  V30 36 1 1 32
M  V30 37 1 1 33
M  V30 38 1 1 34
M  V30 39 1 3 35
M  V30 40 1 3 36
M  V30 41 1 3 37
M  V30 42 1 5 38
M  V30 43 1 8 39
M  V30 44 1 12 40
M  V30 45 1 13 41
M  V30 46 1 14 42
M  V30 47 1 19 43
M  V30 48 1 19 44
M  V30 49 1 24 45
M  V30 50 1 24 46
M  V30 51 1 25 47
M  V30 52 1 25 48
M  V30 53 1 27 49
M  V30 54 1 27 50
M  V30 55 1 28 51
M  V30 56 1 28 52
M  V30 57 1 29 53
M  V30 58 1 29 54
M  V30 59 1 30 55
M  V30 60 1 31 56
M  V30 61 1 31 57
M  V30 END BOND
M  V30 END CTAB
M  END
>  <Dataset>  (831) 
ChEMBL_Kinases

>  <Ligand_Instance>  (831) 
nan

>  <PDB_ID>  (831) 
nan

>  <Standardized_SMILES>  (831) 
CC1(C)c2[nH]nc(NC(=O)c3cccc(Cl)n3)c2CN1C(=O)N1CCN2CCCC2C1

>  <Name>  (831) 
nan

>  <Pocket>  (831) 
nan

>  <ATP_Site>  (831) 
nan

>  <Peripheral>  (831) 
nan

>  <Num_H_Atoms_ProtBoundConf>  (831) 
nan

>  <Num_Resolved_Atoms>  (831) 
nan

>  <Num_Not_Resolved_Atoms>  (831) 
nan

$$$$
CHEMBL3662737
     RDKit          3D

  0  0  0  0  0  0  0  0  0  0999 V3000
M  V30 BEGIN CTAB
M  V30 COUNTS 58 62 0 0 0
M  V30 BEGIN ATOM
M  V30 1 C -1.140459 -2.178594 4.448869 0
M  V30 2 C -0.029103 -2.096885 3.403935 0
M  V30 3 C 0.821475 -3.323058 3.391429 0
M  V30 4 C 0.849514 -0.925021 3.654791 0
M  V30 5 N 1.726512 -0.527411 4.591974 0
M  V30 6 N 2.200247 0.667052 4.227005 0
M  V30 7 C 1.602697 1.003158 3.048617 0
M  V30 8 N 1.801703 2.204184 2.273432 0
M  V30 9 C 2.810748 2.244580 1.272896 0
M  V30 10 O 3.537247 1.241484 1.052492 0
M  V30 11 C 3.065104 3.423907 0.454402 0
M  V30 12 C 4.060865 3.367576 -0.486359 0
M  V30 13 C 4.360502 4.461653 -1.307604 0
M  V30 14 C 3.629245 5.624691 -1.160056 0
M  V30 15 C 2.621782 5.709747 -0.221840 0
M  V30 16 Cl 1.673273 7.181717 -0.012703 0
M  V30 17 C 2.362901 4.606279 0.564339 0
M  V30 18 C 0.731484 0.011052 2.648619 0
M  V30 19 C -0.239504 -0.448324 1.627766 0
M  V30 20 N -0.603106 -1.771348 2.105987 0
M  V30 21 C -1.412361 -2.792453 1.534942 0
M  V30 22 O -1.731490 -3.929388 1.933283 0
M  V30 23 N -2.095010 -2.776227 0.308022 0
M  V30 24 C -2.844236 -3.996062 0.010663 0
M  V30 25 C -2.964947 -4.067123 -1.513033 0
M  V30 26 N -1.725073 -3.694834 -2.124057 0
M  V30 27 C -1.684209 -4.047364 -3.511477 0
M  V30 28 C -2.190800 -2.830651 -4.259125 0
M  V30 29 C -2.382440 -1.768678 -3.216913 0
M  V30 30 C -1.582090 -2.247323 -2.040108 0
M  V30 31 C -2.199698 -1.778651 -0.722742 0
M  V30 32 H -1.876261 -1.387207 4.156319 0
M  V30 33 H -1.547179 -3.197455 4.405094 0
M  V30 34 H -0.730951 -1.899839 5.439720 0
M  V30 35 H 0.371289 -4.072869 4.096493 0
M  V30 36 H 0.871973 -3.813768 2.408485 0
M  V30 37 H 1.851509 -3.145338 3.816148 0
M  V30 38 H 2.050098 -0.983256 5.473625 0
M  V30 39 H 1.202429 3.040424 2.450966 0
M  V30 40 H 4.689120 2.498424 -0.676059 0
M  V30 41 H 5.150093 4.413553 -2.051905 0
M  V30 42 H 3.859298 6.482722 -1.799323 0
M  V30 43 H 1.575552 4.678553 1.294733 0
M  V30 44 H 0.267114 -0.616137 0.632948 0
M  V30 45 H -1.064843 0.256327 1.557602 0
M  V30 46 H -2.246766 -4.866210 0.334631 0
M  V30 47 H -3.826164 -3.892566 0.492056 0
M  V30 48 H -3.835899 -3.457788 -1.788964 0
M  V30 49 H -3.260035 -5.121680 -1.788031 0
M  V30 50 H -2.353047 -4.930977 -3.682127 0
M  V30 51 H -0.643690 -4.280900 -3.862568 0
M  V30 52 H -1.449273 -2.493631 -5.024343 0
M  V30 53 H -3.139238 -3.048356 -4.814722 0
M  V30 54 H -2.027815 -0.792573 -3.636788 0
M  V30 55 H -3.459695 -1.604818 -2.968131 0
M  V30 56 H -0.548181 -1.895775 -2.148219 0
M  V30 57 H -3.300803 -1.676200 -0.953496 0
M  V30 58 H -1.864799 -0.778198 -0.454324 0
M  V30 END ATOM
M  V30 BEGIN BOND
M  V30 1 1 1 2
M  V30 2 1 2 3
M  V30 3 1 2 4
M  V30 4 1 4 5
M  V30 5 1 5 6
M  V30 6 2 6 7
M  V30 7 1 7 8
M  V30 8 1 8 9
M  V30 9 2 9 10
M  V30 10 1 9 11
M  V30 11 2 11 12
M  V30 12 1 12 13
M  V30 13 2 13 14
M  V30 14 1 14 15
M  V30 15 1 15 16
M  V30 16 2 15 17
M  V30 17 1 7 18
M  V30 18 1 18 19
M  V30 19 1 19 20
M  V30 20 1 20 21
M  V30 21 2 21 22
M  V30 22 1 21 23
M  V30 23 1 23 24
M  V30 24 1 24 25
M  V30 25 1 25 26
M  V30 26 1 26 27
M  V30 27 1 27 28
M  V30 28 1 28 29
M  V30 29 1 29 30
M  V30 30 1 30 31
M  V30 31 1 20 2
M  V30 32 1 31 23
M  V30 33 2 18 4
M  V30 34 1 30 26
M  V30 35 1 17 11
M  V30 36 1 1 32
M  V30 37 1 1 33
M  V30 38 1 1 34
M  V30 39 1 3 35
M  V30 40 1 3 36
M  V30 41 1 3 37
M  V30 42 1 5 38
M  V30 43 1 8 39
M  V30 44 1 12 40
M  V30 45 1 13 41
M  V30 46 1 14 42
M  V30 47 1 17 43
M  V30 48 1 19 44
M  V30 49 1 19 45
M  V30 50 1 24 46
M  V30 51 1 24 47
M  V30 52 1 25 48
M  V30 53 1 25 49
M  V30 54 1 27 50
M  V30 55 1 27 51
M  V30 56 1 28 52
M  V30 57 1 28 53
M  V30 58 1 29 54
M  V30 59 1 29 55
M  V30 60 1 30 56
M  V30 61 1 31 57
M  V30 62 1 31 58
M  V30 END BOND
M  V30 END CTAB
M  END
>  <Dataset>  (832) 
ChEMBL_Kinases

>  <Ligand_Instance>  (832) 
nan

>  <PDB_ID>  (832) 
nan

>  <Standardized_SMILES>  (832) 
CC1(C)c2[nH]nc(NC(=O)c3cccc(Cl)c3)c2CN1C(=O)N1CCN2CCCC2C1

>  <Name>  (832) 
nan

>  <Pocket>  (832) 
nan

>  <ATP_Site>  (832) 
nan

>  <Peripheral>  (832) 
nan

>  <Num_H_Atoms_ProtBoundConf>  (832) 
nan

>  <Num_Resolved_Atoms>  (832) 
nan

>  <Num_Not_Resolved_Atoms>  (832) 
nan

$$$$
CHEMBL3662735
     RDKit          3D

  0  0  0  0  0  0  0  0  0  0999 V3000
M  V30 BEGIN CTAB
M  V30 COUNTS 71 76 0 0 0
M  V30 BEGIN ATOM
M  V30 1 C -0.100400 -2.753843 4.506290 0
M  V30 2 C -0.436843 -1.438281 3.858977 0
M  V30 3 C -1.573650 -0.743401 4.557721 0
M  V30 4 C 0.749710 -0.509047 3.887306 0
M  V30 5 N 1.889106 -0.159543 4.498035 0
M  V30 6 N 2.451517 0.865411 3.878794 0
M  V30 7 C 1.665884 1.212458 2.822620 0
M  V30 8 N 1.855180 2.249278 1.867325 0
M  V30 9 C 1.337767 3.537710 2.081910 0
M  V30 10 O 0.731228 3.561488 3.197293 0
M  V30 11 C 1.433568 4.704016 1.225752 0
M  V30 12 C 0.818826 5.851114 1.686987 0
M  V30 13 C 0.834719 7.027318 0.970459 0
M  V30 14 C 1.463442 7.137467 -0.251082 0
M  V30 15 C 2.081029 6.000030 -0.723219 0
M  V30 16 F 2.730637 5.990451 -1.913296 0
M  V30 17 C 2.050378 4.839241 0.011435 0
M  V30 18 F 2.663430 3.736457 -0.472000 0
M  V30 19 C 0.572449 0.340099 2.816675 0
M  V30 20 C -0.698914 -0.073761 2.164638 0
M  V30 21 N -0.693293 -1.516033 2.439307 0
M  V30 22 C -0.853931 -2.733877 1.755364 0
M  V30 23 O -0.790760 -3.852687 2.324868 0
M  V30 24 N -1.102550 -3.193617 0.432993 0
M  V30 25 C -1.201607 -4.633484 0.300194 0
M  V30 26 C -2.093453 -5.062946 -0.826311 0 CFG=2
M  V30 27 C -1.727285 -6.462689 -1.269524 0
M  V30 28 C -1.089414 -6.308332 -2.656417 0
M  V30 29 C -0.762715 -4.801304 -2.612800 0
M  V30 30 N -1.951705 -4.304186 -2.015970 0
M  V30 31 C -2.060217 -2.904428 -1.808206 0
M  V30 32 C -1.241721 -2.317168 -0.717014 0 CFG=2
M  V30 33 C 0.025595 -1.762735 -1.216301 0
M  V30 34 C -0.190926 -0.879283 -2.379262 0
M  V30 35 C -0.125741 -1.179219 -3.727175 0
M  V30 36 C -0.347919 -0.295625 -4.752746 0
M  V30 37 C -0.665345 1.011394 -4.449560 0
M  V30 38 C -0.744202 1.367767 -3.120028 0
M  V30 39 C -0.513693 0.449080 -2.119077 0
M  V30 40 H 0.143641 -2.507433 5.575387 0
M  V30 41 H 0.693081 -3.303874 4.010802 0
M  V30 42 H -1.031337 -3.349242 4.571606 0
M  V30 43 H -2.509708 -0.852919 3.965855 0
M  V30 44 H -1.407560 0.344024 4.695169 0
M  V30 45 H -1.686621 -1.176858 5.574907 0
M  V30 46 H 2.219712 -0.687443 5.355009 0
M  V30 47 H 2.383456 2.067006 0.989320 0
M  V30 48 H 0.295057 5.860948 2.645296 0
M  V30 49 H 0.339871 7.896022 1.373479 0
M  V30 50 H 1.480885 8.043945 -0.812921 0
M  V30 51 H -1.577291 0.404231 2.672843 0
M  V30 52 H -0.697301 0.097768 1.089840 0
M  V30 53 H -1.727767 -5.017066 1.225950 0
M  V30 54 H -0.213131 -5.135756 0.298360 0
M  V30 55 H -3.178508 -5.051948 -0.517875 0
M  V30 56 H -1.054609 -6.974083 -0.561019 0
M  V30 57 H -2.663451 -7.036119 -1.459501 0
M  V30 58 H -1.803135 -6.455697 -3.468293 0
M  V30 59 H -0.150382 -6.883368 -2.732860 0
M  V30 60 H 0.144887 -4.781688 -1.959076 0
M  V30 61 H -0.568813 -4.454406 -3.648247 0
M  V30 62 H -3.171903 -2.735655 -1.579959 0
M  V30 63 H -1.948350 -2.403043 -2.789691 0
M  V30 64 H -1.842802 -1.445188 -0.315614 0
M  V30 65 H 0.588893 -1.148210 -0.479357 0
M  V30 66 H 0.767450 -2.521107 -1.553243 0
M  V30 67 H 0.127467 -2.200063 -3.949779 0
M  V30 68 H -0.261506 -0.674763 -5.765018 0
M  V30 69 H -0.823694 1.638032 -5.313075 0
M  V30 70 H -0.998004 2.410843 -2.974107 0
M  V30 71 H -0.619435 0.908394 -1.149542 0
M  V30 END ATOM
M  V30 BEGIN BOND
M  V30 1 1 1 2
M  V30 2 1 2 3
M  V30 3 1 2 4
M  V30 4 1 4 5
M  V30 5 1 5 6
M  V30 6 2 6 7
M  V30 7 1 7 8
M  V30 8 1 8 9
M  V30 9 2 9 10
M  V30 10 1 9 11
M  V30 11 2 11 12
M  V30 12 1 12 13
M  V30 13 2 13 14
M  V30 14 1 14 15
M  V30 15 1 15 16
M  V30 16 2 15 17
M  V30 17 1 17 18
M  V30 18 1 7 19
M  V30 19 1 19 20
M  V30 20 1 20 21
M  V30 21 1 21 22
M  V30 22 2 22 23
M  V30 23 1 22 24
M  V30 24 1 24 25
M  V30 25 1 25 26
M  V30 26 1 26 27
M  V30 27 1 27 28
M  V30 28 1 28 29
M  V30 29 1 29 30
M  V30 30 1 30 31
M  V30 31 1 31 32
M  V30 32 1 32 33
M  V30 33 1 33 34
M  V30 34 2 34 35
M  V30 35 1 35 36
M  V30 36 2 36 37
M  V30 37 1 37 38
M  V30 38 2 38 39
M  V30 39 1 21 2
M  V30 40 1 32 24
M  V30 41 1 39 34
M  V30 42 2 19 4
M  V30 43 1 30 26
M  V30 44 1 17 11
M  V30 45 1 1 40
M  V30 46 1 1 41
M  V30 47 1 1 42
M  V30 48 1 3 43
M  V30 49 1 3 44
M  V30 50 1 3 45
M  V30 51 1 5 46
M  V30 52 1 8 47
M  V30 53 1 12 48
M  V30 54 1 13 49
M  V30 55 1 14 50
M  V30 56 1 20 51
M  V30 57 1 20 52
M  V30 58 1 25 53
M  V30 59 1 25 54
M  V30 60 1 26 55 CFG=1
M  V30 61 1 27 56
M  V30 62 1 27 57
M  V30 63 1 28 58
M  V30 64 1 28 59
M  V30 65 1 29 60
M  V30 66 1 29 61
M  V30 67 1 31 62
M  V30 68 1 31 63
M  V30 69 1 32 64 CFG=1
M  V30 70 1 33 65
M  V30 71 1 33 66
M  V30 72 1 35 67
M  V30 73 1 36 68
M  V30 74 1 37 69
M  V30 75 1 38 70
M  V30 76 1 39 71
M  V30 END BOND
M  V30 END CTAB
M  END
>  <Dataset>  (833) 
ChEMBL_Kinases

>  <Ligand_Instance>  (833) 
nan

>  <PDB_ID>  (833) 
nan

>  <Standardized_SMILES>  (833) 
CC1(C)c2[nH]nc(NC(=O)c3cccc(F)c3F)c2CN1C(=O)N1C[C@@H]2CCCN2C[C@@H]1Cc1ccccc1

>  <Name>  (833) 
nan

>  <Pocket>  (833) 
nan

>  <ATP_Site>  (833) 
nan

>  <Peripheral>  (833) 
nan

>  <Num_H_Atoms_ProtBoundConf>  (833) 
nan

>  <Num_Resolved_Atoms>  (833) 
nan

>  <Num_Not_Resolved_Atoms>  (833) 
nan

$$$$
CHEMBL3662734
     RDKit          3D

  0  0  0  0  0  0  0  0  0  0999 V3000
M  V30 BEGIN CTAB
M  V30 COUNTS 71 76 0 0 0
M  V30 BEGIN ATOM
M  V30 1 C 2.015155 -3.319767 2.639978 0
M  V30 2 C 1.110571 -2.166166 2.915134 0
M  V30 3 C 0.139718 -2.456560 4.056997 0
M  V30 4 C 1.885574 -0.960212 3.279676 0
M  V30 5 N 2.497611 -0.305838 4.262204 0
M  V30 6 N 3.024945 0.820544 3.801112 0
M  V30 7 C 2.770541 0.940929 2.486457 0
M  V30 8 N 3.172355 2.010397 1.642986 0
M  V30 9 C 2.465127 3.230724 1.348525 0
M  V30 10 O 1.331380 3.379850 1.909916 0
M  V30 11 C 3.209266 4.084240 0.436563 0
M  V30 12 C 2.694432 4.419404 -0.801050 0
M  V30 13 C 3.366728 5.227478 -1.702796 0
M  V30 14 C 4.600580 5.712562 -1.339646 0
M  V30 15 C 5.148789 5.395732 -0.102271 0
M  V30 16 C 4.462118 4.593190 0.771973 0
M  V30 17 Cl 5.111091 4.156073 2.358908 0
M  V30 18 C 2.046753 -0.189078 2.150973 0
M  V30 19 C 1.354307 -0.947728 1.077323 0
M  V30 20 N 0.357651 -1.731007 1.738475 0
M  V30 21 C -0.957288 -1.995414 1.367706 0
M  V30 22 O -1.540107 -2.723969 2.200507 0
M  V30 23 N -2.266776 -2.214628 0.926671 0
M  V30 24 C -3.372484 -2.964937 1.466977 0
M  V30 25 C -3.756468 -4.037041 0.522833 0 CFG=2
M  V30 26 C -2.831356 -5.241260 0.757320 0
M  V30 27 C -3.270232 -6.059462 -0.472768 0
M  V30 28 C -3.193362 -4.985744 -1.534032 0
M  V30 29 N -3.669574 -3.818827 -0.854527 0
M  V30 30 C -3.129040 -2.596132 -1.320842 0
M  V30 31 C -2.705343 -1.589554 -0.323485 0 CFG=2
M  V30 32 C -1.633425 -0.654336 -0.836112 0
M  V30 33 C -2.008349 0.025473 -2.097243 0
M  V30 34 C -1.774362 -0.390048 -3.373884 0
M  V30 35 C -2.205131 0.385716 -4.428632 0
M  V30 36 C -2.874792 1.585330 -4.286281 0
M  V30 37 C -3.128625 2.036181 -2.999924 0
M  V30 38 C -2.686037 1.239768 -1.939532 0
M  V30 39 H 1.613930 -4.251159 3.104127 0
M  V30 40 H 3.005709 -3.098782 3.126594 0
M  V30 41 H 2.168268 -3.436664 1.552736 0
M  V30 42 H 0.784139 -2.397400 4.980997 0
M  V30 43 H -0.622586 -1.671031 4.073612 0
M  V30 44 H -0.246728 -3.477963 3.995487 0
M  V30 45 H 2.603373 -0.554612 5.273541 0
M  V30 46 H 4.106788 1.743841 1.259630 0
M  V30 47 H 1.734501 4.028828 -1.058594 0
M  V30 48 H 2.982099 5.504428 -2.678292 0
M  V30 49 H 5.136531 6.343149 -2.034377 0
M  V30 50 H 6.108772 5.784502 0.158716 0
M  V30 51 H 2.074772 -1.669383 0.599849 0
M  V30 52 H 1.006651 -0.286519 0.284264 0
M  V30 53 H -4.240229 -2.232631 1.611037 0
M  V30 54 H -3.185003 -3.366572 2.461988 0
M  V30 55 H -4.777896 -4.422860 0.816996 0
M  V30 56 H -1.810708 -4.899292 0.582737 0
M  V30 57 H -3.034111 -5.753263 1.698042 0
M  V30 58 H -2.582527 -6.894335 -0.661474 0
M  V30 59 H -4.320125 -6.346543 -0.383586 0
M  V30 60 H -2.133326 -4.858586 -1.783200 0
M  V30 61 H -3.807503 -5.242846 -2.424101 0
M  V30 62 H -3.789507 -2.144539 -2.091633 0
M  V30 63 H -2.196782 -2.878487 -1.896428 0
M  V30 64 H -3.588604 -0.953129 -0.046989 0
M  V30 65 H -1.353090 0.110635 -0.091452 0
M  V30 66 H -0.703574 -1.263062 -1.044891 0
M  V30 67 H -1.255850 -1.320894 -3.476182 0
M  V30 68 H -2.021205 0.062644 -5.442155 0
M  V30 69 H -3.218840 2.203875 -5.089457 0
M  V30 70 H -3.642521 2.957346 -2.853710 0
M  V30 71 H -2.919482 1.655991 -0.960422 0
M  V30 END ATOM
M  V30 BEGIN BOND
M  V30 1 1 1 2
M  V30 2 1 2 3
M  V30 3 1 2 4
M  V30 4 1 4 5
M  V30 5 1 5 6
M  V30 6 2 6 7
M  V30 7 1 7 8
M  V30 8 1 8 9
M  V30 9 2 9 10
M  V30 10 1 9 11
M  V30 11 2 11 12
M  V30 12 1 12 13
M  V30 13 2 13 14
M  V30 14 1 14 15
M  V30 15 2 15 16
M  V30 16 1 16 17
M  V30 17 1 7 18
M  V30 18 1 18 19
M  V30 19 1 19 20
M  V30 20 1 20 21
M  V30 21 2 21 22
M  V30 22 1 21 23
M  V30 23 1 23 24
M  V30 24 1 24 25
M  V30 25 1 25 26
M  V30 26 1 26 27
M  V30 27 1 27 28
M  V30 28 1 28 29
M  V30 29 1 29 30
M  V30 30 1 30 31
M  V30 31 1 31 32
M  V30 32 1 32 33
M  V30 33 2 33 34
M  V30 34 1 34 35
M  V30 35 2 35 36
M  V30 36 1 36 37
M  V30 37 2 37 38
M  V30 38 1 20 2
M  V30 39 1 31 23
M  V30 40 1 38 33
M  V30 41 2 18 4
M  V30 42 1 29 25
M  V30 43 1 16 11
M  V30 44 1 1 39
M  V30 45 1 1 40
M  V30 46 1 1 41
M  V30 47 1 3 42
M  V30 48 1 3 43
M  V30 49 1 3 44
M  V30 50 1 5 45
M  V30 51 1 8 46
M  V30 52 1 12 47
M  V30 53 1 13 48
M  V30 54 1 14 49
M  V30 55 1 15 50
M  V30 56 1 19 51
M  V30 57 1 19 52
M  V30 58 1 24 53
M  V30 59 1 24 54
M  V30 60 1 25 55 CFG=3
M  V30 61 1 26 56
M  V30 62 1 26 57
M  V30 63 1 27 58
M  V30 64 1 27 59
M  V30 65 1 28 60
M  V30 66 1 28 61
M  V30 67 1 30 62
M  V30 68 1 30 63
M  V30 69 1 31 64 CFG=1
M  V30 70 1 32 65
M  V30 71 1 32 66
M  V30 72 1 34 67
M  V30 73 1 35 68
M  V30 74 1 36 69
M  V30 75 1 37 70
M  V30 76 1 38 71
M  V30 END BOND
M  V30 END CTAB
M  END
>  <Dataset>  (834) 
ChEMBL_Kinases

>  <Ligand_Instance>  (834) 
nan

>  <PDB_ID>  (834) 
nan

>  <Standardized_SMILES>  (834) 
CC1(C)c2[nH]nc(NC(=O)c3ccccc3Cl)c2CN1C(=O)N1C[C@@H]2CCCN2C[C@@H]1Cc1ccccc1

>  <Name>  (834) 
nan

>  <Pocket>  (834) 
nan

>  <ATP_Site>  (834) 
nan

>  <Peripheral>  (834) 
nan

>  <Num_H_Atoms_ProtBoundConf>  (834) 
nan

>  <Num_Resolved_Atoms>  (834) 
nan

>  <Num_Not_Resolved_Atoms>  (834) 
nan

$$$$
CHEMBL3661308
     RDKit          3D

  0  0  0  0  0  0  0  0  0  0999 V3000
M  V30 BEGIN CTAB
M  V30 COUNTS 44 48 0 0 0
M  V30 BEGIN ATOM
M  V30 1 N -1.176270 -4.018194 -1.192541 0
M  V30 2 C 0.039650 -3.395435 -1.628347 0
M  V30 3 C 0.961469 -4.103117 -2.357487 0
M  V30 4 C 2.119314 -3.468777 -2.758507 0
M  V30 5 C 2.356245 -2.147401 -2.437846 0
M  V30 6 F 3.487060 -1.472666 -2.810843 0
M  V30 7 C 1.448320 -1.406779 -1.704957 0
M  V30 8 C 1.569138 -0.020781 -1.300731 0
M  V30 9 C 2.003309 0.945951 -2.213589 0
M  V30 10 C 2.111872 2.266919 -1.805457 0
M  V30 11 C 1.801954 2.656578 -0.517705 0
M  V30 12 N 1.910317 3.925705 -0.118255 0
M  V30 13 C 1.623685 4.343880 1.127594 0
M  V30 14 C 1.198949 3.357282 1.992648 0
M  V30 15 C 1.044833 1.996017 1.693796 0
M  V30 16 N 0.601787 1.072193 2.672717 0
M  V30 17 C -0.504511 0.233681 2.801345 0
M  V30 18 C -1.548360 0.088746 1.937032 0
M  V30 19 C -2.624260 -0.757709 2.109076 0
M  V30 20 C -2.634931 -1.517520 3.256540 0
M  V30 21 C -1.609314 -1.397989 4.140637 0
M  V30 22 N -1.440738 -2.049577 5.309450 0
M  V30 23 N -0.316181 -1.644257 5.860641 0
M  V30 24 C 0.249963 -0.724958 5.047524 0
M  V30 25 C -0.569426 -0.552238 3.932227 0
M  V30 26 C 1.373305 1.707495 0.385307 0
M  V30 27 C 1.267432 0.399702 -0.022759 0
M  V30 28 C 0.290832 -2.075285 -1.315675 0
M  V30 29 H -1.589755 -3.658881 -0.288973 0
M  V30 30 H -1.654007 -4.786586 -1.714013 0
M  V30 31 H 0.803712 -5.147632 -2.626659 0
M  V30 32 H 2.866685 -4.010134 -3.338712 0
M  V30 33 H 2.257448 0.666355 -3.246458 0
M  V30 34 H 2.446347 3.023498 -2.501311 0
M  V30 35 H 1.696053 5.357949 1.496895 0
M  V30 36 H 0.954210 3.660273 3.023356 0
M  V30 37 H 1.354418 1.130288 3.389476 0
M  V30 38 H -1.518246 0.706415 1.026526 0
M  V30 39 H -3.388929 -0.777860 1.344759 0
M  V30 40 H -3.489135 -2.189762 3.393439 0
M  V30 41 H -2.055622 -2.759469 5.752594 0
M  V30 42 H 1.183733 -0.187641 5.199083 0
M  V30 43 H 0.949891 -0.366068 0.635593 0
M  V30 44 H -0.454363 -1.573029 -0.749839 0
M  V30 END ATOM
M  V30 BEGIN BOND
M  V30 1 1 1 2
M  V30 2 2 2 3
M  V30 3 1 3 4
M  V30 4 2 4 5
M  V30 5 1 5 6
M  V30 6 1 5 7
M  V30 7 1 7 8
M  V30 8 2 8 9
M  V30 9 1 9 10
M  V30 10 2 10 11
M  V30 11 1 11 12
M  V30 12 2 12 13
M  V30 13 1 13 14
M  V30 14 2 14 15
M  V30 15 1 15 16
M  V30 16 1 16 17
M  V30 17 2 17 18
M  V30 18 1 18 19
M  V30 19 2 19 20
M  V30 20 1 20 21
M  V30 21 1 21 22
M  V30 22 1 22 23
M  V30 23 2 23 24
M  V30 24 1 24 25
M  V30 25 1 15 26
M  V30 26 2 26 27
M  V30 27 2 7 28
M  V30 28 1 28 2
M  V30 29 1 27 8
M  V30 30 1 26 11
M  V30 31 1 25 17
M  V30 32 2 25 21
M  V30 33 1 1 29
M  V30 34 1 1 30
M  V30 35 1 3 31
M  V30 36 1 4 32
M  V30 37 1 9 33
M  V30 38 1 10 34
M  V30 39 1 13 35
M  V30 40 1 14 36
M  V30 41 1 16 37
M  V30 42 1 18 38
M  V30 43 1 19 39
M  V30 44 1 20 40
M  V30 45 1 22 41
M  V30 46 1 24 42
M  V30 47 1 27 43
M  V30 48 1 28 44
M  V30 END BOND
M  V30 END CTAB
M  END
>  <Dataset>  (835) 
ChEMBL_Kinases

>  <Ligand_Instance>  (835) 
nan

>  <PDB_ID>  (835) 
nan

>  <Standardized_SMILES>  (835) 
Nc1ccc(F)c(-c2ccc3nccc(Nc4cccc5[nH]ncc45)c3c2)c1

>  <Name>  (835) 
nan

>  <Pocket>  (835) 
nan

>  <ATP_Site>  (835) 
nan

>  <Peripheral>  (835) 
nan

>  <Num_H_Atoms_ProtBoundConf>  (835) 
nan

>  <Num_Resolved_Atoms>  (835) 
nan

>  <Num_Not_Resolved_Atoms>  (835) 
nan

$$$$
CHEMBL3661309
     RDKit          3D

  0  0  0  0  0  0  0  0  0  0999 V3000
M  V30 BEGIN CTAB
M  V30 COUNTS 43 47 0 0 0
M  V30 BEGIN ATOM
M  V30 1 N 0.482504 -5.053851 0.792914 0
M  V30 2 C 1.624773 -4.304567 0.414169 0
M  V30 3 C 2.854698 -4.964566 0.413110 0
M  V30 4 C 3.943016 -4.209972 0.047719 0
M  V30 5 C 3.751772 -2.890041 -0.283772 0
M  V30 6 F 4.840649 -2.178077 -0.636371 0
M  V30 7 C 2.515643 -2.238256 -0.280238 0
M  V30 8 C 2.467834 -0.832225 -0.641854 0
M  V30 9 C 3.133536 -0.193463 -1.655714 0
M  V30 10 C 2.985284 1.160265 -1.885398 0
M  V30 11 C 2.122016 1.838036 -1.029935 0
M  V30 12 N 1.984328 3.169247 -1.248728 0
M  V30 13 C 1.165341 3.888396 -0.444557 0
M  V30 14 N 0.465138 3.347938 0.580985 0
M  V30 15 C 0.588069 2.010695 0.820957 0
M  V30 16 N -0.074725 1.316733 1.868725 0
M  V30 17 C -1.474339 1.092234 1.921904 0
M  V30 18 C -2.356770 1.540928 0.966514 0
M  V30 19 C -3.724600 1.393959 0.922535 0
M  V30 20 C -4.238121 0.685032 2.023502 0
M  V30 21 C -3.397435 0.207224 3.019095 0
M  V30 22 N -3.719186 -0.487075 4.126795 0
M  V30 23 N -2.587663 -0.739760 4.795970 0
M  V30 24 C -1.537348 -0.206542 4.116125 0
M  V30 25 C -2.031507 0.395785 2.989685 0
M  V30 26 C 1.418608 1.261435 0.011740 0
M  V30 27 C 1.630247 -0.074196 0.159135 0
M  V30 28 C 1.437805 -2.981123 0.080654 0
M  V30 29 H 0.528545 -5.084203 1.851810 0
M  V30 30 H -0.354508 -5.598936 0.999531 0
M  V30 31 H 2.888966 -6.016614 0.691497 0
M  V30 32 H 4.917936 -4.667653 0.028502 0
M  V30 33 H 3.785955 -0.844739 -2.256647 0
M  V30 34 H 3.524021 1.634373 -2.691573 0
M  V30 35 H 1.033180 4.946423 -0.592712 0
M  V30 36 H 0.519801 0.952108 2.642048 0
M  V30 37 H -1.923804 2.087519 0.124232 0
M  V30 38 H -4.333128 1.782512 0.121766 0
M  V30 39 H -5.310245 0.536348 2.046530 0
M  V30 40 H -4.622899 -0.830613 4.520065 0
M  V30 41 H -0.483847 -0.216315 4.354394 0
M  V30 42 H 1.058335 -0.517430 0.994171 0
M  V30 43 H 0.477092 -2.496352 0.089510 0
M  V30 END ATOM
M  V30 BEGIN BOND
M  V30 1 1 1 2
M  V30 2 2 2 3
M  V30 3 1 3 4
M  V30 4 2 4 5
M  V30 5 1 5 6
M  V30 6 1 5 7
M  V30 7 1 7 8
M  V30 8 2 8 9
M  V30 9 1 9 10
M  V30 10 2 10 11
M  V30 11 1 11 12
M  V30 12 2 12 13
M  V30 13 1 13 14
M  V30 14 2 14 15
M  V30 15 1 15 16
M  V30 16 1 16 17
M  V30 17 2 17 18
M  V30 18 1 18 19
M  V30 19 2 19 20
M  V30 20 1 20 21
M  V30 21 1 21 22
M  V30 22 1 22 23
M  V30 23 2 23 24
M  V30 24 1 24 25
M  V30 25 1 15 26
M  V30 26 2 26 27
M  V30 27 2 7 28
M  V30 28 1 28 2
M  V30 29 1 27 8
M  V30 30 1 26 11
M  V30 31 1 25 17
M  V30 32 2 25 21
M  V30 33 1 1 29
M  V30 34 1 1 30
M  V30 35 1 3 31
M  V30 36 1 4 32
M  V30 37 1 9 33
M  V30 38 1 10 34
M  V30 39 1 13 35
M  V30 40 1 16 36
M  V30 41 1 18 37
M  V30 42 1 19 38
M  V30 43 1 20 39
M  V30 44 1 22 40
M  V30 45 1 24 41
M  V30 46 1 27 42
M  V30 47 1 28 43
M  V30 END BOND
M  V30 END CTAB
M  END
>  <Dataset>  (836) 
ChEMBL_Kinases

>  <Ligand_Instance>  (836) 
nan

>  <PDB_ID>  (836) 
nan

>  <Standardized_SMILES>  (836) 
Nc1ccc(F)c(-c2ccc3ncnc(Nc4cccc5[nH]ncc45)c3c2)c1

>  <Name>  (836) 
nan

>  <Pocket>  (836) 
nan

>  <ATP_Site>  (836) 
nan

>  <Peripheral>  (836) 
nan

>  <Num_H_Atoms_ProtBoundConf>  (836) 
nan

>  <Num_Resolved_Atoms>  (836) 
nan

>  <Num_Not_Resolved_Atoms>  (836) 
nan

$$$$
CHEMBL3661310
     RDKit          3D

  0  0  0  0  0  0  0  0  0  0999 V3000
M  V30 BEGIN CTAB
M  V30 COUNTS 42 46 0 0 0
M  V30 BEGIN ATOM
M  V30 1 O 3.012267 -4.465962 1.857034 0
M  V30 2 C 2.158417 -4.289202 0.754943 0
M  V30 3 C 1.504289 -5.348167 0.160847 0
M  V30 4 C 0.674766 -5.165585 -0.913177 0
M  V30 5 C 0.504028 -3.871182 -1.398350 0
M  V30 6 C 1.172724 -2.837096 -0.780879 0
M  V30 7 C 1.032331 -1.441273 -1.261044 0
M  V30 8 C 0.836452 -1.235933 -2.619855 0
M  V30 9 C 0.693134 0.087798 -3.045314 0
M  V30 10 C 0.743691 1.139344 -2.157035 0
M  V30 11 N 0.600999 2.442375 -2.515109 0
M  V30 12 C 0.655199 3.404552 -1.577721 0
M  V30 13 N 0.848847 3.180531 -0.242156 0
M  V30 14 C 0.995449 1.899696 0.157967 0
M  V30 15 N 1.171841 1.734634 1.537406 0
M  V30 16 C 0.398409 1.095184 2.566300 0
M  V30 17 C 0.858325 0.066873 3.394264 0
M  V30 18 C 0.083702 -0.523137 4.342743 0
M  V30 19 C -1.224666 -0.116351 4.528576 0
M  V30 20 C -1.677748 0.897191 3.712511 0
M  V30 21 N -2.916300 1.434931 3.729138 0
M  V30 22 N -2.947274 2.383020 2.782957 0
M  V30 23 C -1.737015 2.443258 2.174651 0
M  V30 24 C -0.905288 1.506619 2.746267 0
M  V30 25 C 0.938492 0.920324 -0.811137 0
M  V30 26 C 1.079271 -0.370921 -0.393682 0
M  V30 27 C 2.019727 -2.980801 0.307429 0
M  V30 28 H 2.666960 -4.111275 2.750332 0
M  V30 29 H 1.673668 -6.345694 0.585400 0
M  V30 30 H 0.154295 -5.981844 -1.387697 0
M  V30 31 H -0.142972 -3.684728 -2.243321 0
M  V30 32 H 0.789445 -2.022026 -3.349785 0
M  V30 33 H 0.538066 0.325872 -4.087186 0
M  V30 34 H 0.541680 4.457461 -1.876309 0
M  V30 35 H 1.992476 2.099268 2.076091 0
M  V30 36 H 1.885764 -0.214321 3.209709 0
M  V30 37 H 0.518089 -1.328710 4.955973 0
M  V30 38 H -1.857803 -0.585205 5.287327 0
M  V30 39 H -3.786565 1.271410 4.287781 0
M  V30 40 H -1.457491 3.118131 1.364268 0
M  V30 41 H 1.234724 -0.606156 0.635301 0
M  V30 42 H 2.540487 -2.175450 0.786255 0
M  V30 END ATOM
M  V30 BEGIN BOND
M  V30 1 1 1 2
M  V30 2 2 2 3
M  V30 3 1 3 4
M  V30 4 2 4 5
M  V30 5 1 5 6
M  V30 6 1 6 7
M  V30 7 2 7 8
M  V30 8 1 8 9
M  V30 9 2 9 10
M  V30 10 1 10 11
M  V30 11 2 11 12
M  V30 12 1 12 13
M  V30 13 2 13 14
M  V30 14 1 14 15
M  V30 15 1 15 16
M  V30 16 2 16 17
M  V30 17 1 17 18
M  V30 18 2 18 19
M  V30 19 1 19 20
M  V30 20 1 20 21
M  V30 21 1 21 22
M  V30 22 2 22 23
M  V30 23 1 23 24
M  V30 24 1 14 25
M  V30 25 2 25 26
M  V30 26 2 6 27
M  V30 27 1 27 2
M  V30 28 1 26 7
M  V30 29 1 25 10
M  V30 30 1 24 16
M  V30 31 2 24 20
M  V30 32 1 1 28
M  V30 33 1 3 29
M  V30 34 1 4 30
M  V30 35 1 5 31
M  V30 36 1 8 32
M  V30 37 1 9 33
M  V30 38 1 12 34
M  V30 39 1 15 35
M  V30 40 1 17 36
M  V30 41 1 18 37
M  V30 42 1 19 38
M  V30 43 1 21 39
M  V30 44 1 23 40
M  V30 45 1 26 41
M  V30 46 1 27 42
M  V30 END BOND
M  V30 END CTAB
M  END
>  <Dataset>  (837) 
ChEMBL_Kinases

>  <Ligand_Instance>  (837) 
nan

>  <PDB_ID>  (837) 
nan

>  <Standardized_SMILES>  (837) 
Oc1cccc(-c2ccc3ncnc(Nc4cccc5[nH]ncc45)c3c2)c1

>  <Name>  (837) 
nan

>  <Pocket>  (837) 
nan

>  <ATP_Site>  (837) 
nan

>  <Peripheral>  (837) 
nan

>  <Num_H_Atoms_ProtBoundConf>  (837) 
nan

>  <Num_Resolved_Atoms>  (837) 
nan

>  <Num_Not_Resolved_Atoms>  (837) 
nan

$$$$
CHEMBL3661311
     RDKit          3D

  0  0  0  0  0  0  0  0  0  0999 V3000
M  V30 BEGIN CTAB
M  V30 COUNTS 45 49 0 0 0
M  V30 BEGIN ATOM
M  V30 1 C 0.043563 -5.049336 2.954809 0
M  V30 2 O 0.255429 -3.888310 2.224709 0
M  V30 3 C 1.442446 -3.207092 2.093546 0
M  V30 4 C 2.656593 -3.550387 2.663719 0
M  V30 5 C 3.831682 -2.852062 2.517526 0
M  V30 6 C 3.798161 -1.699576 1.727130 0
M  V30 7 C 2.596886 -1.300184 1.122342 0
M  V30 8 C 2.564525 -0.079853 0.282448 0
M  V30 9 C 3.596829 0.379721 -0.472440 0
M  V30 10 C 3.449312 1.539855 -1.225444 0
M  V30 11 C 2.264783 2.263738 -1.238116 0
M  V30 12 N 2.162732 3.391465 -1.993431 0
M  V30 13 C 0.992430 4.042796 -1.966773 0
M  V30 14 N -0.040468 3.633739 -1.247237 0
M  V30 15 C -0.024476 2.528325 -0.471623 0
M  V30 16 N -0.990595 1.910831 0.363175 0
M  V30 17 C -1.904582 0.871756 0.159810 0
M  V30 18 C -1.991613 0.241223 -1.041050 0
M  V30 19 C -2.920532 -0.778349 -1.114934 0
M  V30 20 C -3.746258 -1.184137 -0.064272 0
M  V30 21 C -3.590665 -0.484104 1.128869 0
M  V30 22 N -4.239049 -0.644907 2.308072 0
M  V30 23 N -3.753711 0.246826 3.147875 0
M  V30 24 C -2.794657 0.998346 2.550526 0
M  V30 25 C -2.678308 0.535378 1.241229 0
M  V30 26 C 1.178672 1.821544 -0.472851 0
M  V30 27 C 1.394981 0.649069 0.259988 0
M  V30 28 C 1.440221 -2.051097 1.309702 0
M  V30 29 H 0.886135 -5.261146 3.609026 0
M  V30 30 H -0.902397 -4.997583 3.575006 0
M  V30 31 H -0.082751 -5.950780 2.298518 0
M  V30 32 H 2.693334 -4.438402 3.276127 0
M  V30 33 H 4.743288 -3.194995 3.003467 0
M  V30 34 H 4.710620 -1.125250 1.592517 0
M  V30 35 H 4.510666 -0.198091 -0.449414 0
M  V30 36 H 4.312241 1.844018 -1.800772 0
M  V30 37 H 0.808494 4.961214 -2.540174 0
M  V30 38 H -0.849312 2.458174 1.239431 0
M  V30 39 H -1.394606 0.498441 -1.882235 0
M  V30 40 H -3.046830 -1.325050 -2.034569 0
M  V30 41 H -4.451748 -1.981227 -0.168144 0
M  V30 42 H -4.986680 -1.306766 2.601441 0
M  V30 43 H -2.194025 1.816520 2.949873 0
M  V30 44 H 0.570312 0.287366 0.861209 0
M  V30 45 H 0.507759 -1.744665 0.841537 0
M  V30 END ATOM
M  V30 BEGIN BOND
M  V30 1 1 1 2
M  V30 2 1 2 3
M  V30 3 2 3 4
M  V30 4 1 4 5
M  V30 5 2 5 6
M  V30 6 1 6 7
M  V30 7 1 7 8
M  V30 8 2 8 9
M  V30 9 1 9 10
M  V30 10 2 10 11
M  V30 11 1 11 12
M  V30 12 2 12 13
M  V30 13 1 13 14
M  V30 14 2 14 15
M  V30 15 1 15 16
M  V30 16 1 16 17
M  V30 17 2 17 18
M  V30 18 1 18 19
M  V30 19 2 19 20
M  V30 20 1 20 21
M  V30 21 1 21 22
M  V30 22 1 22 23
M  V30 23 2 23 24
M  V30 24 1 24 25
M  V30 25 1 15 26
M  V30 26 2 26 27
M  V30 27 2 7 28
M  V30 28 1 28 3
M  V30 29 1 27 8
M  V30 30 1 26 11
M  V30 31 1 25 17
M  V30 32 2 25 21
M  V30 33 1 1 29
M  V30 34 1 1 30
M  V30 35 1 1 31
M  V30 36 1 4 32
M  V30 37 1 5 33
M  V30 38 1 6 34
M  V30 39 1 9 35
M  V30 40 1 10 36
M  V30 41 1 13 37
M  V30 42 1 16 38
M  V30 43 1 18 39
M  V30 44 1 19 40
M  V30 45 1 20 41
M  V30 46 1 22 42
M  V30 47 1 24 43
M  V30 48 1 27 44
M  V30 49 1 28 45
M  V30 END BOND
M  V30 END CTAB
M  END
>  <Dataset>  (838) 
ChEMBL_Kinases

>  <Ligand_Instance>  (838) 
nan

>  <PDB_ID>  (838) 
nan

>  <Standardized_SMILES>  (838) 
COc1cccc(-c2ccc3ncnc(Nc4cccc5[nH]ncc45)c3c2)c1

>  <Name>  (838) 
nan

>  <Pocket>  (838) 
nan

>  <ATP_Site>  (838) 
nan

>  <Peripheral>  (838) 
nan

>  <Num_H_Atoms_ProtBoundConf>  (838) 
nan

>  <Num_Resolved_Atoms>  (838) 
nan

>  <Num_Not_Resolved_Atoms>  (838) 
nan

$$$$
CHEMBL3661312
     RDKit          3D

  0  0  0  0  0  0  0  0  0  0999 V3000
M  V30 BEGIN CTAB
M  V30 COUNTS 45 49 0 0 0
M  V30 BEGIN ATOM
M  V30 1 C -4.988450 -4.773633 1.691814 0
M  V30 2 O -3.666964 -4.456689 1.417728 0
M  V30 3 C -3.194221 -3.328643 0.807882 0
M  V30 4 C -1.807541 -3.349592 0.717097 0
M  V30 5 C -0.976866 -2.423623 0.185447 0
M  V30 6 C -1.626856 -1.326224 -0.323532 0
M  V30 7 C -0.971281 -0.163298 -0.893867 0
M  V30 8 C -1.415558 0.567769 -1.939126 0
M  V30 9 C -0.939347 1.710836 -2.516391 0
M  V30 10 C 0.223303 2.170357 -1.867164 0
M  V30 11 N 0.696967 3.306144 -2.393076 0
M  V30 12 C 1.778346 3.897717 -1.882416 0
M  V30 13 N 2.349521 3.313276 -0.841858 0
M  V30 14 C 1.918450 2.154246 -0.254688 0
M  V30 15 N 2.354064 1.479477 0.890577 0
M  V30 16 C 2.773703 0.798304 2.011732 0
M  V30 17 C 2.209069 1.140619 3.253985 0
M  V30 18 C 2.520251 0.537331 4.503667 0
M  V30 19 C 3.483280 -0.457883 4.268442 0
M  V30 20 C 4.088983 -0.860551 3.119371 0
M  V30 21 N 5.021385 -1.795294 2.866449 0
M  V30 22 N 5.243394 -1.728716 1.553152 0
M  V30 23 C 4.461527 -0.768169 0.992659 0
M  V30 24 C 3.694924 -0.189101 2.006343 0
M  V30 25 C 0.785105 1.524156 -0.790123 0
M  V30 26 C 0.199902 0.370057 -0.309182 0
M  V30 27 C -2.997630 -1.197232 -0.288939 0
M  V30 28 C -3.820295 -2.206374 0.282063 0
M  V30 29 H -5.268172 -5.720372 1.200491 0
M  V30 30 H -5.174779 -4.862559 2.810746 0
M  V30 31 H -5.732790 -4.011949 1.317779 0
M  V30 32 H -1.203818 -4.186937 1.091449 0
M  V30 33 H 0.093627 -2.418441 0.101996 0
M  V30 34 H -2.321254 0.157614 -2.402625 0
M  V30 35 H -1.436254 2.170594 -3.387643 0
M  V30 36 H 2.307452 4.814657 -2.166132 0
M  V30 37 H 2.875254 2.346569 1.271851 0
M  V30 38 H 1.457226 1.959447 3.279940 0
M  V30 39 H 2.031194 0.886031 5.369734 0
M  V30 40 H 3.745512 -0.943662 5.201864 0
M  V30 41 H 5.448854 -2.420815 3.581541 0
M  V30 42 H 4.412051 -0.453633 -0.066933 0
M  V30 43 H 0.670488 -0.107821 0.536061 0
M  V30 44 H -3.594844 -0.341215 -0.684461 0
M  V30 45 H -4.878080 -2.185779 0.396443 0
M  V30 END ATOM
M  V30 BEGIN BOND
M  V30 1 1 1 2
M  V30 2 1 2 3
M  V30 3 2 3 4
M  V30 4 1 4 5
M  V30 5 2 5 6
M  V30 6 1 6 7
M  V30 7 2 7 8
M  V30 8 1 8 9
M  V30 9 2 9 10
M  V30 10 1 10 11
M  V30 11 2 11 12
M  V30 12 1 12 13
M  V30 13 2 13 14
M  V30 14 1 14 15
M  V30 15 1 15 16
M  V30 16 2 16 17
M  V30 17 1 17 18
M  V30 18 2 18 19
M  V30 19 1 19 20
M  V30 20 1 20 21
M  V30 21 1 21 22
M  V30 22 2 22 23
M  V30 23 1 23 24
M  V30 24 1 14 25
M  V30 25 2 25 26
M  V30 26 1 6 27
M  V30 27 2 27 28
M  V30 28 1 28 3
M  V30 29 1 26 7
M  V30 30 1 25 10
M  V30 31 1 24 16
M  V30 32 2 24 20
M  V30 33 1 1 29
M  V30 34 1 1 30
M  V30 35 1 1 31
M  V30 36 1 4 32
M  V30 37 1 5 33
M  V30 38 1 8 34
M  V30 39 1 9 35
M  V30 40 1 12 36
M  V30 41 1 15 37
M  V30 42 1 17 38
M  V30 43 1 18 39
M  V30 44 1 19 40
M  V30 45 1 21 41
M  V30 46 1 23 42
M  V30 47 1 26 43
M  V30 48 1 27 44
M  V30 49 1 28 45
M  V30 END BOND
M  V30 END CTAB
M  END
>  <Dataset>  (839) 
ChEMBL_Kinases

>  <Ligand_Instance>  (839) 
nan

>  <PDB_ID>  (839) 
nan

>  <Standardized_SMILES>  (839) 
COc1ccc(-c2ccc3ncnc(Nc4cccc5[nH]ncc45)c3c2)cc1

>  <Name>  (839) 
nan

>  <Pocket>  (839) 
nan

>  <ATP_Site>  (839) 
nan

>  <Peripheral>  (839) 
nan

>  <Num_H_Atoms_ProtBoundConf>  (839) 
nan

>  <Num_Resolved_Atoms>  (839) 
nan

>  <Num_Not_Resolved_Atoms>  (839) 
nan

$$$$
CHEMBL3661313
     RDKit          3D

  0  0  0  0  0  0  0  0  0  0999 V3000
M  V30 BEGIN CTAB
M  V30 COUNTS 43 47 0 0 0
M  V30 BEGIN ATOM
M  V30 1 O 2.177788 -4.216732 3.217233 0
M  V30 2 C 1.736857 -4.327522 1.889742 0
M  V30 3 C 1.327604 -5.541854 1.333764 0
M  V30 4 C 0.905546 -5.581903 0.022965 0
M  V30 5 C 0.873277 -4.454848 -0.764843 0
M  V30 6 C 1.280564 -3.272141 -0.195897 0
M  V30 7 C 1.292379 -2.001020 -0.934702 0
M  V30 8 C 1.542169 -2.007324 -2.306498 0
M  V30 9 C 1.554384 -0.805952 -3.005473 0
M  V30 10 C 1.324950 0.402916 -2.384937 0
M  V30 11 N 1.365659 1.589696 -2.997864 0
M  V30 12 C 1.189336 2.779399 -2.433677 0
M  V30 13 C 0.938007 2.692129 -1.057265 0
M  V30 14 C 0.861948 1.523018 -0.273487 0
M  V30 15 N 0.603365 1.733161 1.089834 0
M  V30 16 C -0.311043 1.692972 2.135249 0
M  V30 17 C -0.321881 3.003506 2.683478 0
M  V30 18 C -1.132835 3.408763 3.752269 0
M  V30 19 C -1.949288 2.425149 4.258850 0
M  V30 20 C -2.007506 1.138325 3.796254 0
M  V30 21 N -2.673975 0.003565 4.047270 0
M  V30 22 N -2.293281 -0.949865 3.213890 0
M  V30 23 C -1.365342 -0.443881 2.402164 0
M  V30 24 C -1.177103 0.846983 2.751921 0
M  V30 25 C 1.076967 0.411114 -1.040550 0
M  V30 26 C 1.070077 -0.772653 -0.363616 0
M  V30 27 C 1.720598 -3.157407 1.126315 0
M  V30 28 H 1.658450 -3.570416 3.820126 0
M  V30 29 H 1.363336 -6.411529 1.975938 0
M  V30 30 H 0.587744 -6.528462 -0.405258 0
M  V30 31 H 0.544615 -4.469073 -1.794598 0
M  V30 32 H 1.732152 -2.939253 -2.860983 0
M  V30 33 H 1.747232 -0.773260 -4.077867 0
M  V30 34 H 1.223163 3.727506 -2.919648 0
M  V30 35 H 0.789443 3.674367 -0.572840 0
M  V30 36 H 1.602245 2.020318 1.342794 0
M  V30 37 H 0.272311 3.870153 2.376781 0
M  V30 38 H -1.178029 4.384258 4.202003 0
M  V30 39 H -2.613490 2.642779 5.085586 0
M  V30 40 H -3.386668 -0.062417 4.809346 0
M  V30 41 H -0.950233 -1.046277 1.662178 0
M  V30 42 H 0.929970 -0.780066 0.697293 0
M  V30 43 H 2.043505 -2.235602 1.585551 0
M  V30 END ATOM
M  V30 BEGIN BOND
M  V30 1 1 1 2
M  V30 2 2 2 3
M  V30 3 1 3 4
M  V30 4 2 4 5
M  V30 5 1 5 6
M  V30 6 1 6 7
M  V30 7 2 7 8
M  V30 8 1 8 9
M  V30 9 2 9 10
M  V30 10 1 10 11
M  V30 11 2 11 12
M  V30 12 1 12 13
M  V30 13 2 13 14
M  V30 14 1 14 15
M  V30 15 1 15 16
M  V30 16 2 16 17
M  V30 17 1 17 18
M  V30 18 2 18 19
M  V30 19 1 19 20
M  V30 20 1 20 21
M  V30 21 1 21 22
M  V30 22 2 22 23
M  V30 23 1 23 24
M  V30 24 1 14 25
M  V30 25 2 25 26
M  V30 26 2 6 27
M  V30 27 1 27 2
M  V30 28 1 26 7
M  V30 29 1 25 10
M  V30 30 1 24 16
M  V30 31 2 24 20
M  V30 32 1 1 28
M  V30 33 1 3 29
M  V30 34 1 4 30
M  V30 35 1 5 31
M  V30 36 1 8 32
M  V30 37 1 9 33
M  V30 38 1 12 34
M  V30 39 1 13 35
M  V30 40 1 15 36
M  V30 41 1 17 37
M  V30 42 1 18 38
M  V30 43 1 19 39
M  V30 44 1 21 40
M  V30 45 1 23 41
M  V30 46 1 26 42
M  V30 47 1 27 43
M  V30 END BOND
M  V30 END CTAB
M  END
>  <Dataset>  (840) 
ChEMBL_Kinases

>  <Ligand_Instance>  (840) 
nan

>  <PDB_ID>  (840) 
nan

>  <Standardized_SMILES>  (840) 
Oc1cccc(-c2ccc3nccc(Nc4cccc5[nH]ncc45)c3c2)c1

>  <Name>  (840) 
nan

>  <Pocket>  (840) 
nan

>  <ATP_Site>  (840) 
nan

>  <Peripheral>  (840) 
nan

>  <Num_H_Atoms_ProtBoundConf>  (840) 
nan

>  <Num_Resolved_Atoms>  (840) 
nan

>  <Num_Not_Resolved_Atoms>  (840) 
nan

$$$$
CHEMBL3661314
     RDKit          3D

  0  0  0  0  0  0  0  0  0  0999 V3000
M  V30 BEGIN CTAB
M  V30 COUNTS 42 45 0 0 0
M  V30 BEGIN ATOM
M  V30 1 C 0.686669 -5.895848 3.014572 0
M  V30 2 O -0.239879 -5.672267 1.941767 0
M  V30 3 C -0.208093 -4.503958 1.201662 0
M  V30 4 C -1.088668 -4.258731 0.160456 0
M  V30 5 C -0.998496 -3.068852 -0.535632 0
M  V30 6 C -0.070035 -2.084132 -0.259148 0
M  V30 7 C -0.038188 -0.866259 -1.030481 0
M  V30 8 C -0.417128 -0.961271 -2.372118 0
M  V30 9 C -0.405532 0.168623 -3.154479 0
M  V30 10 C -0.033456 1.404264 -2.671803 0
M  V30 11 N 0.011170 2.561548 -3.352399 0
M  V30 12 C 0.401449 3.703635 -2.735506 0
M  V30 13 N 0.759032 3.729396 -1.423014 0
M  V30 14 C 0.736547 2.585424 -0.669970 0
M  V30 15 O 1.134394 2.933239 0.555459 0
M  V30 16 C 1.311771 2.269634 1.701633 0
M  V30 17 C 2.517233 1.655129 2.074211 0
M  V30 18 C 2.573094 0.992790 3.303065 0
M  V30 19 C 1.470980 0.937536 4.141985 0
M  V30 20 C 0.284094 1.539385 3.781238 0
M  V30 21 O -0.766507 1.439369 4.671449 0
M  V30 22 C 0.200549 2.209568 2.555864 0
M  V30 23 C 0.332927 1.461037 -1.349670 0
M  V30 24 C 0.332158 0.365622 -0.551768 0
M  V30 25 C 0.824537 -2.304800 0.779811 0
M  V30 26 C 0.720150 -3.508912 1.471086 0
M  V30 27 H 1.743614 -5.883286 2.624111 0
M  V30 28 H 0.462279 -6.886971 3.450324 0
M  V30 29 H 0.521074 -5.141460 3.800208 0
M  V30 30 H -1.828009 -5.017039 -0.077025 0
M  V30 31 H -1.702988 -2.885732 -1.359930 0
M  V30 32 H -0.729312 -1.874071 -2.867082 0
M  V30 33 H -0.694127 0.138134 -4.206001 0
M  V30 34 H 0.375616 4.531407 -3.436624 0
M  V30 35 H 3.364903 1.705896 1.412964 0
M  V30 36 H 3.504193 0.522562 3.581790 0
M  V30 37 H 1.554261 0.408688 5.097408 0
M  V30 38 H -1.579539 2.045154 4.642707 0
M  V30 39 H -0.744421 2.671253 2.302339 0
M  V30 40 H 0.600591 0.337007 0.470844 0
M  V30 41 H 1.574962 -1.586105 1.054259 0
M  V30 42 H 1.411023 -3.709154 2.293150 0
M  V30 END ATOM
M  V30 BEGIN BOND
M  V30 1 1 1 2
M  V30 2 1 2 3
M  V30 3 2 3 4
M  V30 4 1 4 5
M  V30 5 2 5 6
M  V30 6 1 6 7
M  V30 7 2 7 8
M  V30 8 1 8 9
M  V30 9 2 9 10
M  V30 10 1 10 11
M  V30 11 2 11 12
M  V30 12 1 12 13
M  V30 13 2 13 14
M  V30 14 1 14 15
M  V30 15 1 15 16
M  V30 16 2 16 17
M  V30 17 1 17 18
M  V30 18 2 18 19
M  V30 19 1 19 20
M  V30 20 1 20 21
M  V30 21 2 20 22
M  V30 22 1 14 23
M  V30 23 2 23 24
M  V30 24 1 6 25
M  V30 25 2 25 26
M  V30 26 1 26 3
M  V30 27 1 24 7
M  V30 28 1 23 10
M  V30 29 1 22 16
M  V30 30 1 1 27
M  V30 31 1 1 28
M  V30 32 1 1 29
M  V30 33 1 4 30
M  V30 34 1 5 31
M  V30 35 1 8 32
M  V30 36 1 9 33
M  V30 37 1 12 34
M  V30 38 1 17 35
M  V30 39 1 18 36
M  V30 40 1 19 37
M  V30 41 1 21 38
M  V30 42 1 22 39
M  V30 43 1 24 40
M  V30 44 1 25 41
M  V30 45 1 26 42
M  V30 END BOND
M  V30 END CTAB
M  END
>  <Dataset>  (841) 
ChEMBL_Kinases

>  <Ligand_Instance>  (841) 
nan

>  <PDB_ID>  (841) 
nan

>  <Standardized_SMILES>  (841) 
COc1ccc(-c2ccc3ncnc(Oc4cccc(O)c4)c3c2)cc1

>  <Name>  (841) 
nan

>  <Pocket>  (841) 
nan

>  <ATP_Site>  (841) 
nan

>  <Peripheral>  (841) 
nan

>  <Num_H_Atoms_ProtBoundConf>  (841) 
nan

>  <Num_Resolved_Atoms>  (841) 
nan

>  <Num_Not_Resolved_Atoms>  (841) 
nan

$$$$
CHEMBL3661315
     RDKit          3D

  0  0  0  0  0  0  0  0  0  0999 V3000
M  V30 BEGIN CTAB
M  V30 COUNTS 44 49 0 0 0
M  V30 BEGIN ATOM
M  V30 1 C -0.640041 -2.627298 3.090843 0
M  V30 2 C 0.623929 -2.503734 2.565604 0
M  V30 3 C 0.976455 -2.878305 1.266989 0
M  V30 4 N 2.234622 -2.764363 0.616862 0
M  V30 5 C 2.642543 -2.098466 -0.589398 0
M  V30 6 N 3.367601 -2.748061 -1.514474 0
M  V30 7 C 3.742559 -2.156271 -2.678492 0
M  V30 8 N 3.408504 -0.865698 -2.988059 0
M  V30 9 C 2.671605 -0.144439 -2.090958 0
M  V30 10 C 2.304244 1.160495 -2.337382 0
M  V30 11 C 1.554837 1.889654 -1.416132 0
M  V30 12 C 1.168913 1.298018 -0.225221 0
M  V30 13 C 0.345714 1.832637 0.885429 0
M  V30 14 C 0.704600 1.404711 2.163806 0
M  V30 15 C -0.037410 1.819503 3.258449 0
M  V30 16 C -1.101169 2.637270 3.036288 0
M  V30 17 N -1.921076 3.121485 3.982348 0
M  V30 18 N -2.838723 3.873467 3.394658 0
M  V30 19 C -2.603128 3.868941 2.069563 0
M  V30 20 C -1.506295 3.095239 1.799781 0
M  V30 21 C -0.752870 2.673947 0.701604 0
M  V30 22 C 1.582503 -0.023575 -0.057239 0
M  V30 23 C 2.318654 -0.795379 -0.922908 0
M  V30 24 C -0.048869 -3.413940 0.472903 0
M  V30 25 C -0.104742 -3.894857 -0.824203 0
M  V30 26 N -1.382589 -4.300359 -1.069114 0
M  V30 27 N -2.120149 -4.093178 0.011871 0
M  V30 28 C -1.341542 -3.550474 0.983536 0
M  V30 29 C -1.626381 -3.160342 2.272476 0
M  V30 30 H -0.830207 -2.305196 4.104479 0
M  V30 31 H 1.456858 -2.091348 3.136524 0
M  V30 32 H 2.984477 -3.277246 1.174022 0
M  V30 33 H 4.334900 -2.775158 -3.359259 0
M  V30 34 H 2.583423 1.660938 -3.243948 0
M  V30 35 H 1.218335 2.905598 -1.520270 0
M  V30 36 H 1.571577 0.755899 2.324779 0
M  V30 37 H 0.328000 1.431886 4.189453 0
M  V30 38 H -1.905120 2.976919 5.034315 0
M  V30 39 H -3.155602 4.377192 1.277667 0
M  V30 40 H -1.047893 3.015410 -0.270161 0
M  V30 41 H 1.299988 -0.502784 0.841936 0
M  V30 42 H 0.697226 -3.957486 -1.534164 0
M  V30 43 H -3.133779 -4.296022 0.144595 0
M  V30 44 H -2.626595 -3.246050 2.718189 0
M  V30 END ATOM
M  V30 BEGIN BOND
M  V30 1 2 1 2
M  V30 2 1 2 3
M  V30 3 1 3 4
M  V30 4 1 4 5
M  V30 5 2 5 6
M  V30 6 1 6 7
M  V30 7 2 7 8
M  V30 8 1 8 9
M  V30 9 2 9 10
M  V30 10 1 10 11
M  V30 11 2 11 12
M  V30 12 1 12 13
M  V30 13 2 13 14
M  V30 14 1 14 15
M  V30 15 2 15 16
M  V30 16 1 16 17
M  V30 17 1 17 18
M  V30 18 2 18 19
M  V30 19 1 19 20
M  V30 20 2 20 21
M  V30 21 1 12 22
M  V30 22 2 22 23
M  V30 23 2 3 24
M  V30 24 1 24 25
M  V30 25 2 25 26
M  V30 26 1 26 27
M  V30 27 1 27 28
M  V30 28 2 28 29
M  V30 29 1 29 1
M  V30 30 1 23 5
M  V30 31 1 28 24
M  V30 32 1 23 9
M  V30 33 1 21 13
M  V30 34 1 20 16
M  V30 35 1 1 30
M  V30 36 1 2 31
M  V30 37 1 4 32
M  V30 38 1 7 33
M  V30 39 1 10 34
M  V30 40 1 11 35
M  V30 41 1 14 36
M  V30 42 1 15 37
M  V30 43 1 17 38
M  V30 44 1 19 39
M  V30 45 1 21 40
M  V30 46 1 22 41
M  V30 47 1 25 42
M  V30 48 1 27 43
M  V30 49 1 29 44
M  V30 END BOND
M  V30 END CTAB
M  END
>  <Dataset>  (842) 
ChEMBL_Kinases

>  <Ligand_Instance>  (842) 
nan

>  <PDB_ID>  (842) 
nan

>  <Standardized_SMILES>  (842) 
c1cc(Nc2ncnc3ccc(-c4ccc5[nH]ncc5c4)cc23)c2cn[nH]c2c1

>  <Name>  (842) 
nan

>  <Pocket>  (842) 
nan

>  <ATP_Site>  (842) 
nan

>  <Peripheral>  (842) 
nan

>  <Num_H_Atoms_ProtBoundConf>  (842) 
nan

>  <Num_Resolved_Atoms>  (842) 
nan

>  <Num_Not_Resolved_Atoms>  (842) 
nan

$$$$
CHEMBL3662733
     RDKit          3D

  0  0  0  0  0  0  0  0  0  0999 V3000
M  V30 BEGIN CTAB
M  V30 COUNTS 75 80 0 0 0
M  V30 BEGIN ATOM
M  V30 1 C 0.017721 3.959315 7.855880 0
M  V30 2 O -0.075667 4.739441 6.657484 0
M  V30 3 C 0.325593 4.156216 5.458750 0
M  V30 4 C 0.804732 2.859267 5.376626 0
M  V30 5 C 1.184700 2.348018 4.166868 0
M  V30 6 C 1.111203 3.079016 3.005125 0
M  V30 7 C 1.542064 2.457088 1.783266 0
M  V30 8 O 1.956156 1.270351 1.811341 0
M  V30 9 N 1.548130 3.071416 0.497460 0
M  V30 10 C 2.036563 2.198099 -0.508360 0
M  V30 11 N 3.346633 2.129830 -0.819556 0
M  V30 12 N 3.532056 1.236918 -1.791198 0
M  V30 13 C 2.302263 0.730984 -2.098730 0
M  V30 14 C 1.344462 1.317829 -1.306608 0
M  V30 15 C 0.071652 0.731218 -1.692413 0
M  V30 16 N 0.447193 -0.630641 -2.098186 0
M  V30 17 C 0.029255 -1.994775 -1.867351 0
M  V30 18 O 0.713871 -2.855662 -2.489251 0
M  V30 19 N -1.021862 -2.517715 -1.060537 0
M  V30 20 C -2.069172 -1.997630 -0.154026 0
M  V30 21 C -3.294626 -1.890781 -1.004525 0 CFG=2
M  V30 22 C -4.588383 -2.180225 -0.314865 0
M  V30 23 C -5.496481 -2.406681 -1.529862 0
M  V30 24 C -4.589386 -3.206367 -2.426734 0
M  V30 25 N -3.245137 -2.999520 -1.968284 0
M  V30 26 C -2.689840 -4.186114 -1.341278 0
M  V30 27 C -1.215490 -3.978509 -1.076190 0 CFG=2
M  V30 28 C -0.761579 -4.635211 0.184327 0
M  V30 29 C 0.681696 -4.376711 0.394833 0
M  V30 30 C 0.989799 -3.229880 1.127201 0
M  V30 31 C 2.333527 -2.980077 1.331129 0
M  V30 32 C 3.358126 -3.771026 0.869352 0
M  V30 33 C 2.986834 -4.903510 0.144382 0
M  V30 34 C 1.654144 -5.221917 -0.102725 0
M  V30 35 C 1.525069 -0.211427 -2.948071 0
M  V30 36 C 1.060907 0.559631 -4.157981 0
M  V30 37 C 2.485845 -1.316620 -3.327349 0
M  V30 38 C 0.631287 4.370268 3.107250 0
M  V30 39 C 0.234941 4.931083 4.301351 0
M  V30 40 H 1.084717 3.689215 8.053490 0
M  V30 41 H -0.411639 4.493995 8.709059 0
M  V30 42 H -0.533975 3.006117 7.755632 0
M  V30 43 H 0.851508 2.308571 6.298283 0
M  V30 44 H 1.550751 1.322919 4.176994 0
M  V30 45 H 1.213447 4.049552 0.421678 0
M  V30 46 H 4.431179 0.958981 -2.242802 0
M  V30 47 H -0.349290 1.227507 -2.617123 0
M  V30 48 H -0.710129 0.777885 -0.944471 0
M  V30 49 H -2.195299 -2.614386 0.737502 0
M  V30 50 H -1.749009 -0.977398 0.186355 0
M  V30 51 H -3.397472 -0.931415 -1.540067 0
M  V30 52 H -4.565613 -3.061844 0.347070 0
M  V30 53 H -4.929383 -1.251523 0.203408 0
M  V30 54 H -6.430402 -2.911431 -1.281702 0
M  V30 55 H -5.646604 -1.382097 -1.964553 0
M  V30 56 H -4.880339 -4.277020 -2.486779 0
M  V30 57 H -4.656895 -2.761467 -3.448512 0
M  V30 58 H -3.227533 -4.440166 -0.402481 0
M  V30 59 H -2.819229 -5.032172 -2.046074 0
M  V30 60 H -0.648388 -4.434336 -1.915319 0
M  V30 61 H -1.371400 -4.450943 1.071756 0
M  V30 62 H -0.837031 -5.745613 -0.000606 0
M  V30 63 H 0.272255 -2.538347 1.532885 0
M  V30 64 H 2.667129 -2.103245 1.895306 0
M  V30 65 H 4.408400 -3.542063 1.046981 0
M  V30 66 H 3.770617 -5.550980 -0.233261 0
M  V30 67 H 1.395049 -6.104827 -0.664197 0
M  V30 68 H 0.054754 0.273393 -4.516655 0
M  V30 69 H 1.772518 0.338637 -5.006194 0
M  V30 70 H 1.064319 1.655756 -4.008538 0
M  V30 71 H 2.790769 -1.835342 -2.398287 0
M  V30 72 H 3.415063 -0.784967 -3.664819 0
M  V30 73 H 2.135820 -1.992410 -4.100779 0
M  V30 74 H 0.570479 4.949116 2.186096 0
M  V30 75 H -0.141825 5.936244 4.373024 0
M  V30 END ATOM
M  V30 BEGIN BOND
M  V30 1 1 1 2
M  V30 2 1 2 3
M  V30 3 2 3 4
M  V30 4 1 4 5
M  V30 5 2 5 6
M  V30 6 1 6 7
M  V30 7 2 7 8
M  V30 8 1 7 9
M  V30 9 1 9 10
M  V30 10 2 10 11
M  V30 11 1 11 12
M  V30 12 1 12 13
M  V30 13 2 13 14
M  V30 14 1 14 15
M  V30 15 1 15 16
M  V30 16 1 16 17
M  V30 17 2 17 18
M  V30 18 1 17 19
M  V30 19 1 19 20
M  V30 20 1 20 21
M  V30 21 1 21 22
M  V30 22 1 22 23
M  V30 23 1 23 24
M  V30 24 1 24 25
M  V30 25 1 25 26
M  V30 26 1 26 27
M  V30 27 1 27 28
M  V30 28 1 28 29
M  V30 29 2 29 30
M  V30 30 1 30 31
M  V30 31 2 31 32
M  V30 32 1 32 33
M  V30 33 2 33 34
M  V30 34 1 16 35
M  V30 35 1 35 36
M  V30 36 1 35 37
M  V30 37 1 6 38
M  V30 38 2 38 39
M  V30 39 1 39 3
M  V30 40 1 14 10
M  V30 41 1 27 19
M  V30 42 1 34 29
M  V30 43 1 35 13
M  V30 44 1 25 21
M  V30 45 1 1 40
M  V30 46 1 1 41
M  V30 47 1 1 42
M  V30 48 1 4 43
M  V30 49 1 5 44
M  V30 50 1 9 45
M  V30 51 1 12 46
M  V30 52 1 15 47
M  V30 53 1 15 48
M  V30 54 1 20 49
M  V30 55 1 20 50
M  V30 56 1 21 51 CFG=3
M  V30 57 1 22 52
M  V30 58 1 22 53
M  V30 59 1 23 54
M  V30 60 1 23 55
M  V30 61 1 24 56
M  V30 62 1 24 57
M  V30 63 1 26 58
M  V30 64 1 26 59
M  V30 65 1 27 60 CFG=3
M  V30 66 1 28 61
M  V30 67 1 28 62
M  V30 68 1 30 63
M  V30 69 1 31 64
M  V30 70 1 32 65
M  V30 71 1 33 66
M  V30 72 1 34 67
M  V30 73 1 36 68
M  V30 74 1 36 69
M  V30 75 1 36 70
M  V30 76 1 37 71
M  V30 77 1 37 72
M  V30 78 1 37 73
M  V30 79 1 38 74
M  V30 80 1 39 75
M  V30 END BOND
M  V30 END CTAB
M  END
>  <Dataset>  (843) 
ChEMBL_Kinases

>  <Ligand_Instance>  (843) 
nan

>  <PDB_ID>  (843) 
nan

>  <Standardized_SMILES>  (843) 
COc1ccc(C(=O)Nc2n[nH]c3c2CN(C(=O)N2C[C@@H]4CCCN4C[C@@H]2Cc2ccccc2)C3(C)C)cc1

>  <Name>  (843) 
nan

>  <Pocket>  (843) 
nan

>  <ATP_Site>  (843) 
nan

>  <Peripheral>  (843) 
nan

>  <Num_H_Atoms_ProtBoundConf>  (843) 
nan

>  <Num_Resolved_Atoms>  (843) 
nan

>  <Num_Not_Resolved_Atoms>  (843) 
nan

$$$$
CHEMBL36622
     RDKit          3D

  0  0  0  0  0  0  0  0  0  0999 V3000
M  V30 BEGIN CTAB
M  V30 COUNTS 48 50 0 0 0
M  V30 BEGIN ATOM
M  V30 1 C 3.651569 -4.307435 0.901747 0
M  V30 2 O 3.372262 -2.974760 0.519371 0
M  V30 3 C 2.406969 -2.773065 -0.450515 0
M  V30 4 C 1.656070 -3.716520 -1.115396 0
M  V30 5 C 0.723415 -3.382209 -2.065157 0
M  V30 6 C 0.565366 -2.025153 -2.333949 0
M  V30 7 C 1.283849 -0.997288 -1.707807 0
M  V30 8 O 1.103630 0.320722 -2.010737 0
M  V30 9 C 0.227423 0.805265 -2.971928 0
M  V30 10 C 2.215165 -1.419364 -0.749894 0
M  V30 11 O 2.875658 -0.325249 -0.189289 0
M  V30 12 C 2.660382 0.134877 1.099016 0
M  V30 13 C 1.214391 0.470104 1.453293 0
M  V30 14 N 1.197929 0.923991 2.792773 0
M  V30 15 C -0.011460 1.077602 3.476895 0
M  V30 16 C -0.929882 2.143750 2.987459 0 CFG=2
M  V30 17 C -2.191763 2.147271 3.868509 0
M  V30 18 O -2.762244 0.831402 3.794895 0
M  V30 19 C -2.982996 0.340108 2.507934 0
M  V30 20 C -3.911267 -0.659525 2.313444 0
M  V30 21 C -4.174937 -1.185085 1.062921 0
M  V30 22 C -3.482200 -0.689774 -0.026864 0
M  V30 23 C -2.564167 0.302615 0.191087 0
M  V30 24 C -2.276518 0.847053 1.411419 0
M  V30 25 O -1.325781 1.871475 1.629751 0
M  V30 26 H 4.673046 -4.439583 1.329059 0
M  V30 27 H 2.878311 -4.606561 1.641547 0
M  V30 28 H 3.578336 -5.037886 0.057345 0
M  V30 29 H 1.824459 -4.751692 -0.854403 0
M  V30 30 H 0.153870 -4.147669 -2.557159 0
M  V30 31 H -0.192915 -1.845248 -3.082500 0
M  V30 32 H 0.056840 0.011296 -3.735991 0
M  V30 33 H 0.674654 1.711376 -3.466426 0
M  V30 34 H -0.714588 1.118991 -2.499105 0
M  V30 35 H 3.290789 1.063241 1.216144 0
M  V30 36 H 3.089871 -0.563505 1.870663 0
M  V30 37 H 0.555027 -0.400672 1.254878 0
M  V30 38 H 0.835465 1.278814 0.807825 0
M  V30 39 H 2.075334 1.159789 3.247582 0
M  V30 40 H 0.242391 1.292278 4.563017 0
M  V30 41 H -0.605779 0.125559 3.560432 0
M  V30 42 H -0.511598 3.157997 3.040064 0
M  V30 43 H -2.943012 2.876238 3.490111 0
M  V30 44 H -1.848402 2.347133 4.895104 0
M  V30 45 H -4.470739 -1.079979 3.138286 0
M  V30 46 H -4.882144 -1.961179 0.836594 0
M  V30 47 H -3.569381 -0.987174 -1.062392 0
M  V30 48 H -1.986671 0.750415 -0.584925 0
M  V30 END ATOM
M  V30 BEGIN BOND
M  V30 1 1 1 2
M  V30 2 1 2 3
M  V30 3 2 3 4
M  V30 4 1 4 5
M  V30 5 2 5 6
M  V30 6 1 6 7
M  V30 7 1 7 8
M  V30 8 1 8 9
M  V30 9 2 7 10
M  V30 10 1 10 11
M  V30 11 1 11 12
M  V30 12 1 12 13
M  V30 13 1 13 14
M  V30 14 1 14 15
M  V30 15 1 15 16
M  V30 16 1 16 17
M  V30 17 1 17 18
M  V30 18 1 18 19
M  V30 19 2 19 20
M  V30 20 1 20 21
M  V30 21 2 21 22
M  V30 22 1 22 23
M  V30 23 2 23 24
M  V30 24 1 24 25
M  V30 25 1 10 3
M  V30 26 1 25 16
M  V30 27 1 24 19
M  V30 28 1 1 26
M  V30 29 1 1 27
M  V30 30 1 1 28
M  V30 31 1 4 29
M  V30 32 1 5 30
M  V30 33 1 6 31
M  V30 34 1 9 32
M  V30 35 1 9 33
M  V30 36 1 9 34
M  V30 37 1 12 35
M  V30 38 1 12 36
M  V30 39 1 13 37
M  V30 40 1 13 38
M  V30 41 1 14 39
M  V30 42 1 15 40
M  V30 43 1 15 41
M  V30 44 1 16 42 CFG=3
M  V30 45 1 17 43
M  V30 46 1 17 44
M  V30 47 1 20 45
M  V30 48 1 21 46
M  V30 49 1 22 47
M  V30 50 1 23 48
M  V30 END BOND
M  V30 END CTAB
M  END
>  <Dataset>  (844) 
ChEMBL_Kinases

>  <Ligand_Instance>  (844) 
nan

>  <PDB_ID>  (844) 
nan

>  <Standardized_SMILES>  (844) 
COc1cccc(OC)c1OCCNC[C@@H]1COc2ccccc2O1

>  <Name>  (844) 
nan

>  <Pocket>  (844) 
nan

>  <ATP_Site>  (844) 
nan

>  <Peripheral>  (844) 
nan

>  <Num_H_Atoms_ProtBoundConf>  (844) 
nan

>  <Num_Resolved_Atoms>  (844) 
nan

>  <Num_Not_Resolved_Atoms>  (844) 
nan

$$$$
CHEMBL366255
     RDKit          3D

  0  0  0  0  0  0  0  0  0  0999 V3000
M  V30 BEGIN CTAB
M  V30 COUNTS 64 67 0 0 0
M  V30 BEGIN ATOM
M  V30 1 C 4.025036 -4.064182 2.085021 0
M  V30 2 C 3.887087 -2.592634 2.041710 0
M  V30 3 C 4.320743 -1.715401 3.014025 0
M  V30 4 C 4.129500 -0.359514 2.850595 0
M  V30 5 C 3.513648 0.188530 1.743101 0
M  V30 6 N 3.305506 1.589101 1.555000 0
M  V30 7 C 2.103936 2.170736 2.028814 0
M  V30 8 O 1.311467 1.345310 2.593232 0
M  V30 9 C 1.807858 3.590175 1.879419 0
M  V30 10 C 2.626947 4.499339 1.292033 0
M  V30 11 C 2.244996 5.821428 1.202631 0
M  V30 12 C 1.016803 6.241601 1.712305 0
M  V30 13 C 0.162782 5.342052 2.314631 0
M  V30 14 N -1.092518 5.721691 2.845076 0
M  V30 15 C -1.570663 7.088663 2.791195 0
M  V30 16 C -1.927772 4.707738 3.463179 0
M  V30 17 C 0.602187 4.051826 2.369485 0
M  V30 18 C 3.073284 -0.702792 0.755672 0
M  V30 19 C 3.267592 -2.079983 0.921644 0
M  V30 20 N 2.744581 -2.828253 -0.198325 0
M  V30 21 C 1.388027 -3.125898 0.125826 0
M  V30 22 O 1.054696 -2.662661 1.261110 0
M  V30 23 C 0.416249 -3.863052 -0.673667 0
M  V30 24 C -0.824456 -4.003049 -0.112140 0
M  V30 25 C -1.777291 -4.686438 -0.822166 0
M  V30 26 C -1.622852 -5.258253 -2.060696 0
M  V30 27 O -2.285624 -5.953918 -2.995176 0
M  V30 28 C -3.590770 -6.381518 -2.988750 0
M  V30 29 C -4.604048 -5.314042 -2.931596 0
M  V30 30 C -5.266644 -4.665545 -1.922795 0
M  V30 31 C -6.210330 -3.700519 -2.114600 0
M  V30 32 C -6.562218 -3.311557 -3.381525 0
M  V30 33 C -5.893478 -3.967471 -4.394283 0
M  V30 34 N -4.965992 -4.915805 -4.190098 0
M  V30 35 C -0.324242 -5.086038 -2.597116 0
M  V30 36 C 0.678286 -4.390741 -1.896749 0
M  V30 37 H 4.935744 -4.343647 1.495658 0
M  V30 38 H 3.189949 -4.591476 1.608977 0
M  V30 39 H 4.149577 -4.418328 3.128908 0
M  V30 40 H 4.803058 -2.138408 3.881908 0
M  V30 41 H 4.479820 0.311594 3.629603 0
M  V30 42 H 4.035101 2.176323 1.071661 0
M  V30 43 H 3.571285 4.155914 0.904248 0
M  V30 44 H 2.958915 6.486522 0.717322 0
M  V30 45 H 0.764531 7.272287 1.620567 0
M  V30 46 H -2.691428 7.052476 2.807694 0
M  V30 47 H -1.260099 7.583086 3.739713 0
M  V30 48 H -1.211408 7.661835 1.926181 0
M  V30 49 H -1.460441 4.219956 4.333469 0
M  V30 50 H -2.906123 5.147580 3.776916 0
M  V30 51 H -2.096998 3.908218 2.710897 0
M  V30 52 H -0.085431 3.338407 2.852318 0
M  V30 53 H 2.592880 -0.254395 -0.104994 0
M  V30 54 H 3.070914 -3.192773 -1.133542 0
M  V30 55 H -1.174442 -3.643185 0.837454 0
M  V30 56 H -2.763018 -4.862988 -0.484430 0
M  V30 57 H -3.745953 -6.976809 -2.023143 0
M  V30 58 H -3.808139 -7.099565 -3.836902 0
M  V30 59 H -4.989832 -4.998106 -0.955985 0
M  V30 60 H -6.644218 -3.280211 -1.222087 0
M  V30 61 H -7.309209 -2.547492 -3.527464 0
M  V30 62 H -6.174845 -3.656816 -5.411577 0
M  V30 63 H 0.123698 -5.414372 -3.550833 0
M  V30 64 H 1.694266 -4.209933 -2.224839 0
M  V30 END ATOM
M  V30 BEGIN BOND
M  V30 1 1 1 2
M  V30 2 2 2 3
M  V30 3 1 3 4
M  V30 4 2 4 5
M  V30 5 1 5 6
M  V30 6 1 6 7
M  V30 7 2 7 8
M  V30 8 1 7 9
M  V30 9 2 9 10
M  V30 10 1 10 11
M  V30 11 2 11 12
M  V30 12 1 12 13
M  V30 13 1 13 14
M  V30 14 1 14 15
M  V30 15 1 14 16
M  V30 16 2 13 17
M  V30 17 1 5 18
M  V30 18 2 18 19
M  V30 19 1 19 20
M  V30 20 1 20 21
M  V30 21 2 21 22
M  V30 22 1 21 23
M  V30 23 2 23 24
M  V30 24 1 24 25
M  V30 25 2 25 26
M  V30 26 1 26 27
M  V30 27 1 27 28
M  V30 28 1 28 29
M  V30 29 2 29 30
M  V30 30 1 30 31
M  V30 31 2 31 32
M  V30 32 1 32 33
M  V30 33 2 33 34
M  V30 34 1 26 35
M  V30 35 2 35 36
M  V30 36 1 19 2
M  V30 37 1 36 23
M  V30 38 1 17 9
M  V30 39 1 34 29
M  V30 40 1 1 37
M  V30 41 1 1 38
M  V30 42 1 1 39
M  V30 43 1 3 40
M  V30 44 1 4 41
M  V30 45 1 6 42
M  V30 46 1 10 43
M  V30 47 1 11 44
M  V30 48 1 12 45
M  V30 49 1 15 46
M  V30 50 1 15 47
M  V30 51 1 15 48
M  V30 52 1 16 49
M  V30 53 1 16 50
M  V30 54 1 16 51
M  V30 55 1 17 52
M  V30 56 1 18 53
M  V30 57 1 20 54
M  V30 58 1 24 55
M  V30 59 1 25 56
M  V30 60 1 28 57
M  V30 61 1 28 58
M  V30 62 1 30 59
M  V30 63 1 31 60
M  V30 64 1 32 61
M  V30 65 1 33 62
M  V30 66 1 35 63
M  V30 67 1 36 64
M  V30 END BOND
M  V30 END CTAB
M  END
>  <Dataset>  (845) 
ChEMBL_Kinases

>  <Ligand_Instance>  (845) 
nan

>  <PDB_ID>  (845) 
nan

>  <Standardized_SMILES>  (845) 
Cc1ccc(NC(=O)c2cccc(N(C)C)c2)cc1NC(=O)c1ccc(OCc2ccccn2)cc1

>  <Name>  (845) 
nan

>  <Pocket>  (845) 
nan

>  <ATP_Site>  (845) 
nan

>  <Peripheral>  (845) 
nan

>  <Num_H_Atoms_ProtBoundConf>  (845) 
nan

>  <Num_Resolved_Atoms>  (845) 
nan

>  <Num_Not_Resolved_Atoms>  (845) 
nan

$$$$
CHEMBL3662727
     RDKit          3D

  0  0  0  0  0  0  0  0  0  0999 V3000
M  V30 BEGIN CTAB
M  V30 COUNTS 63 68 0 0 0
M  V30 BEGIN ATOM
M  V30 1 C 2.846369 -3.918675 1.876960 0
M  V30 2 C 1.857770 -2.906714 2.410708 0
M  V30 3 C 1.743104 -3.092829 3.925886 0
M  V30 4 C 2.424159 -1.573007 2.085545 0
M  V30 5 N 3.536678 -0.811576 1.872884 0
M  V30 6 N 3.151455 0.444540 1.597897 0
M  V30 7 C 1.808511 0.517825 1.626929 0
M  V30 8 N 1.022030 1.683630 1.386278 0
M  V30 9 C 1.718443 2.891893 1.088899 0
M  V30 10 O 2.974526 2.945417 1.036922 0
M  V30 11 C 0.911247 4.097746 0.839651 0
M  V30 12 C 1.544920 5.296961 0.546355 0
M  V30 13 C 0.820630 6.468113 0.302140 0
M  V30 14 C -0.561590 6.385378 0.364465 0
M  V30 15 C -1.350919 7.489285 0.137507 0
M  V30 16 C -2.738538 7.440093 0.192233 0
M  V30 17 C -3.359479 6.232135 0.487130 0
M  V30 18 C -2.549728 5.122136 0.714854 0
M  V30 19 C -1.176942 5.184831 0.657504 0
M  V30 20 N -0.451892 4.072972 0.888162 0
M  V30 21 C 1.334934 -0.744160 1.932642 0
M  V30 22 C 0.170893 -1.594018 2.167817 0
M  V30 23 N 0.574346 -2.943643 1.785138 0
M  V30 24 C 0.138714 -4.104546 1.090262 0
M  V30 25 O 0.819146 -5.160947 0.954995 0
M  V30 26 N -1.054686 -4.445239 0.394702 0
M  V30 27 C -1.141663 -5.735479 -0.206376 0
M  V30 28 C -1.729719 -5.784160 -1.580453 0
M  V30 29 N -2.675439 -4.774328 -1.908728 0
M  V30 30 C -2.544451 -4.484523 -3.326652 0
M  V30 31 C -1.405676 -3.493201 -3.428954 0
M  V30 32 C -1.116930 -3.086069 -1.986537 0
M  V30 33 C -2.408852 -3.494253 -1.310966 0
M  V30 34 C -2.292214 -3.683751 0.164080 0
M  V30 35 H 2.653322 -4.882292 2.363040 0
M  V30 36 H 3.887609 -3.633505 2.148136 0
M  V30 37 H 2.778153 -3.919247 0.778507 0
M  V30 38 H 2.354921 -2.317378 4.430404 0
M  V30 39 H 2.160251 -4.076775 4.233398 0
M  V30 40 H 0.720515 -2.998522 4.297668 0
M  V30 41 H 4.505028 -1.208784 1.930901 0
M  V30 42 H -0.019556 1.611851 1.435690 0
M  V30 43 H 2.636954 5.373657 0.494583 0
M  V30 44 H 1.287418 7.417966 0.070901 0
M  V30 45 H -0.910899 8.450924 -0.095566 0
M  V30 46 H -3.393402 8.286476 0.019617 0
M  V30 47 H -4.430767 6.056219 0.560937 0
M  V30 48 H -2.993400 4.154879 0.949374 0
M  V30 49 H -0.650457 -1.304069 1.480497 0
M  V30 50 H -0.208496 -1.547627 3.207494 0
M  V30 51 H -1.761837 -6.365696 0.491782 0
M  V30 52 H -0.155515 -6.232838 -0.246547 0
M  V30 53 H -0.893674 -5.822378 -2.337907 0
M  V30 54 H -2.227973 -6.772899 -1.688516 0
M  V30 55 H -2.214459 -5.419782 -3.841198 0
M  V30 56 H -3.481790 -4.091635 -3.762709 0
M  V30 57 H -1.698301 -2.567009 -3.977475 0
M  V30 58 H -0.483003 -3.952050 -3.886791 0
M  V30 59 H -0.285511 -3.663786 -1.549678 0
M  V30 60 H -0.934339 -1.995928 -1.905600 0
M  V30 61 H -3.239341 -2.822781 -1.607245 0
M  V30 62 H -2.363329 -2.774297 0.752878 0
M  V30 63 H -3.132743 -4.357098 0.493839 0
M  V30 END ATOM
M  V30 BEGIN BOND
M  V30 1 1 1 2
M  V30 2 1 2 3
M  V30 3 1 2 4
M  V30 4 1 4 5
M  V30 5 1 5 6
M  V30 6 2 6 7
M  V30 7 1 7 8
M  V30 8 1 8 9
M  V30 9 2 9 10
M  V30 10 1 9 11
M  V30 11 2 11 12
M  V30 12 1 12 13
M  V30 13 2 13 14
M  V30 14 1 14 15
M  V30 15 2 15 16
M  V30 16 1 16 17
M  V30 17 2 17 18
M  V30 18 1 18 19
M  V30 19 2 19 20
M  V30 20 1 7 21
M  V30 21 1 21 22
M  V30 22 1 22 23
M  V30 23 1 23 24
M  V30 24 2 24 25
M  V30 25 1 24 26
M  V30 26 1 26 27
M  V30 27 1 27 28
M  V30 28 1 28 29
M  V30 29 1 29 30
M  V30 30 1 30 31
M  V30 31 1 31 32
M  V30 32 1 32 33
M  V30 33 1 33 34
M  V30 34 1 23 2
M  V30 35 1 34 26
M  V30 36 2 21 4
M  V30 37 1 33 29
M  V30 38 1 20 11
M  V30 39 1 19 14
M  V30 40 1 1 35
M  V30 41 1 1 36
M  V30 42 1 1 37
M  V30 43 1 3 38
M  V30 44 1 3 39
M  V30 45 1 3 40
M  V30 46 1 5 41
M  V30 47 1 8 42
M  V30 48 1 12 43
M  V30 49 1 13 44
M  V30 50 1 15 45
M  V30 51 1 16 46
M  V30 52 1 17 47
M  V30 53 1 18 48
M  V30 54 1 22 49
M  V30 55 1 22 50
M  V30 56 1 27 51
M  V30 57 1 27 52
M  V30 58 1 28 53
M  V30 59 1 28 54
M  V30 60 1 30 55
M  V30 61 1 30 56
M  V30 62 1 31 57
M  V30 63 1 31 58
M  V30 64 1 32 59
M  V30 65 1 32 60
M  V30 66 1 33 61
M  V30 67 1 34 62
M  V30 68 1 34 63
M  V30 END BOND
M  V30 END CTAB
M  END
>  <Dataset>  (846) 
ChEMBL_Kinases

>  <Ligand_Instance>  (846) 
nan

>  <PDB_ID>  (846) 
nan

>  <Standardized_SMILES>  (846) 
CC1(C)c2[nH]nc(NC(=O)c3ccc4ccccc4n3)c2CN1C(=O)N1CCN2CCCC2C1

>  <Name>  (846) 
nan

>  <Pocket>  (846) 
nan

>  <ATP_Site>  (846) 
nan

>  <Peripheral>  (846) 
nan

>  <Num_H_Atoms_ProtBoundConf>  (846) 
nan

>  <Num_Resolved_Atoms>  (846) 
nan

>  <Num_Not_Resolved_Atoms>  (846) 
nan

$$$$
CHEMBL3662728
     RDKit          3D

  0  0  0  0  0  0  0  0  0  0999 V3000
M  V30 BEGIN CTAB
M  V30 COUNTS 75 80 0 0 0
M  V30 BEGIN ATOM
M  V30 1 C -1.338940 0.664099 -2.596901 0
M  V30 2 C -0.187242 -0.346891 -2.800071 0
M  V30 3 C 1.056188 0.479850 -2.768866 0
M  V30 4 C -0.335863 -1.331444 -1.691949 0
M  V30 5 C 0.623245 -2.450466 -1.622606 0 CFG=1
M  V30 6 C 0.511487 -3.249518 -2.906168 0
M  V30 7 N 1.334619 -4.432681 -2.728969 0
M  V30 8 C 1.157649 -5.274207 -3.885059 0
M  V30 9 C 2.053480 -4.716141 -4.968329 0
M  V30 10 C 3.225637 -4.237836 -4.136776 0
M  V30 11 C 2.691271 -4.013874 -2.745665 0 CFG=1
M  V30 12 C 2.860942 -2.558188 -2.343013 0
M  V30 13 N 1.975085 -2.174742 -1.292836 0
M  V30 14 C 2.509625 -1.605353 -0.114232 0
M  V30 15 O 3.702082 -1.631678 -0.505644 0
M  V30 16 N 2.194335 -1.093186 1.167667 0
M  V30 17 C 1.006756 -0.904637 1.987943 0
M  V30 18 C 1.113199 0.533365 2.345251 0
M  V30 19 C 0.491607 1.739158 2.635794 0
M  V30 20 N -0.932736 1.812327 2.631617 0
M  V30 21 C -1.594222 1.543220 3.841394 0
M  V30 22 O -0.882293 1.254416 4.851826 0
M  V30 23 C -3.051338 1.597189 3.920961 0
M  V30 24 C -3.661815 1.320718 5.143317 0
M  V30 25 C -5.031015 1.362362 5.250798 0
M  V30 26 C -5.865859 1.672018 4.185017 0
M  V30 27 C -7.241121 1.716901 4.282215 0
M  V30 28 C -8.028018 2.035561 3.173387 0
M  V30 29 C -7.312692 2.290993 2.014471 0
M  V30 30 C -5.942987 2.257210 1.873461 0
M  V30 31 C -5.205250 1.936505 3.000860 0
M  V30 32 N -3.866385 1.896104 2.894137 0
M  V30 33 N 1.460449 2.640739 2.876056 0
M  V30 34 N 2.651560 2.065928 2.751810 0
M  V30 35 C 2.466995 0.772943 2.426538 0
M  V30 36 C 3.137473 -0.542716 2.106202 0
M  V30 37 C 4.518630 -0.305519 1.564178 0
M  V30 38 C 3.190232 -1.317536 3.407077 0
M  V30 39 H -2.306352 0.146826 -2.486775 0
M  V30 40 H -1.291181 1.417634 -3.386097 0
M  V30 41 H -1.120431 1.169578 -1.633267 0
M  V30 42 H -0.332322 -0.801604 -3.794141 0
M  V30 43 H 1.428213 0.522085 -1.721563 0
M  V30 44 H 1.829926 0.195524 -3.510709 0
M  V30 45 H 0.802113 1.538205 -3.034683 0
M  V30 46 H -0.459481 -0.747740 -0.756059 0
M  V30 47 H -1.360320 -1.798067 -1.837792 0
M  V30 48 H 0.224372 -3.166587 -0.828572 0
M  V30 49 H 0.854508 -2.728364 -3.797809 0
M  V30 50 H -0.525900 -3.626960 -3.035623 0
M  V30 51 H 0.108216 -5.144076 -4.280611 0
M  V30 52 H 1.359330 -6.339262 -3.702816 0
M  V30 53 H 2.419507 -5.474495 -5.675594 0
M  V30 54 H 1.617407 -3.853529 -5.494551 0
M  V30 55 H 3.632926 -3.280269 -4.526241 0
M  V30 56 H 4.059186 -4.947186 -4.136615 0
M  V30 57 H 3.252785 -4.680455 -2.060870 0
M  V30 58 H 3.941038 -2.435808 -2.147951 0
M  V30 59 H 2.673567 -1.985656 -3.273798 0
M  V30 60 H 0.065861 -1.162117 1.500033 0
M  V30 61 H 1.170398 -1.470725 2.934888 0
M  V30 62 H -1.489068 2.053981 1.779461 0
M  V30 63 H -3.090768 1.073659 6.011737 0
M  V30 64 H -5.511828 1.146927 6.203022 0
M  V30 65 H -7.701587 1.500213 5.235543 0
M  V30 66 H -9.093557 2.077753 3.218142 0
M  V30 67 H -7.924812 2.540501 1.146444 0
M  V30 68 H -5.497700 2.476039 0.914374 0
M  V30 69 H 3.569094 2.554886 2.888313 0
M  V30 70 H 5.148830 0.258769 2.314981 0
M  V30 71 H 4.458457 0.241314 0.610070 0
M  V30 72 H 4.997633 -1.282199 1.367992 0
M  V30 73 H 2.593500 -0.818904 4.218793 0
M  V30 74 H 4.258625 -1.265697 3.762468 0
M  V30 75 H 2.941159 -2.390300 3.291828 0
M  V30 END ATOM
M  V30 BEGIN BOND
M  V30 1 1 1 2
M  V30 2 1 2 3
M  V30 3 1 2 4
M  V30 4 1 4 5
M  V30 5 1 5 6
M  V30 6 1 6 7
M  V30 7 1 7 8
M  V30 8 1 8 9
M  V30 9 1 9 10
M  V30 10 1 10 11
M  V30 11 1 11 12
M  V30 12 1 12 13
M  V30 13 1 13 14
M  V30 14 2 14 15
M  V30 15 1 14 16
M  V30 16 1 16 17
M  V30 17 1 17 18
M  V30 18 1 18 19
M  V30 19 1 19 20
M  V30 20 1 20 21
M  V30 21 2 21 22
M  V30 22 1 21 23
M  V30 23 2 23 24
M  V30 24 1 24 25
M  V30 25 2 25 26
M  V30 26 1 26 27
M  V30 27 2 27 28
M  V30 28 1 28 29
M  V30 29 2 29 30
M  V30 30 1 30 31
M  V30 31 2 31 32
M  V30 32 2 19 33
M  V30 33 1 33 34
M  V30 34 1 34 35
M  V30 35 1 35 36
M  V30 36 1 36 37
M  V30 37 1 36 38
M  V30 38 1 13 5
M  V30 39 1 36 16
M  V30 40 1 11 7
M  V30 41 2 35 18
M  V30 42 1 32 23
M  V30 43 1 31 26
M  V30 44 1 1 39
M  V30 45 1 1 40
M  V30 46 1 1 41
M  V30 47 1 2 42
M  V30 48 1 3 43
M  V30 49 1 3 44
M  V30 50 1 3 45
M  V30 51 1 4 46
M  V30 52 1 4 47
M  V30 53 1 5 48 CFG=1
M  V30 54 1 6 49
M  V30 55 1 6 50
M  V30 56 1 8 51
M  V30 57 1 8 52
M  V30 58 1 9 53
M  V30 59 1 9 54
M  V30 60 1 10 55
M  V30 61 1 10 56
M  V30 62 1 11 57 CFG=1
M  V30 63 1 12 58
M  V30 64 1 12 59
M  V30 65 1 17 60
M  V30 66 1 17 61
M  V30 67 1 20 62
M  V30 68 1 24 63
M  V30 69 1 25 64
M  V30 70 1 27 65
M  V30 71 1 28 66
M  V30 72 1 29 67
M  V30 73 1 30 68
M  V30 74 1 34 69
M  V30 75 1 37 70
M  V30 76 1 37 71
M  V30 77 1 37 72
M  V30 78 1 38 73
M  V30 79 1 38 74
M  V30 80 1 38 75
M  V30 END BOND
M  V30 END CTAB
M  END
>  <Dataset>  (847) 
ChEMBL_Kinases

>  <Ligand_Instance>  (847) 
nan

>  <PDB_ID>  (847) 
nan

>  <Standardized_SMILES>  (847) 
CC(C)C[C@H]1CN2CCC[C@H]2CN1C(=O)N1Cc2c(NC(=O)c3ccc4ccccc4n3)n[nH]c2C1(C)C

>  <Name>  (847) 
nan

>  <Pocket>  (847) 
nan

>  <ATP_Site>  (847) 
nan

>  <Peripheral>  (847) 
nan

>  <Num_H_Atoms_ProtBoundConf>  (847) 
nan

>  <Num_Resolved_Atoms>  (847) 
nan

>  <Num_Not_Resolved_Atoms>  (847) 
nan

$$$$
CHEMBL3662729
     RDKit          3D

  0  0  0  0  0  0  0  0  0  0999 V3000
M  V30 BEGIN CTAB
M  V30 COUNTS 76 82 0 0 0
M  V30 BEGIN ATOM
M  V30 1 C 0.729583 -4.581748 1.963368 0
M  V30 2 C 0.173655 -4.008702 0.684056 0
M  V30 3 C -0.840953 -4.905736 0.041299 0
M  V30 4 C 1.247025 -3.711535 -0.299127 0
M  V30 5 N 2.457928 -4.019539 -0.782162 0
M  V30 6 N 2.778099 -3.214197 -1.776778 0
M  V30 7 C 1.781724 -2.336508 -1.989602 0
M  V30 8 N 1.717990 -1.302254 -2.963985 0
M  V30 9 C 2.752365 -1.057595 -3.880319 0
M  V30 10 O 3.764107 -1.802051 -3.808386 0
M  V30 11 C 2.606300 0.026472 -4.852273 0
M  V30 12 C 3.591536 0.298625 -5.761983 0
M  V30 13 C 3.451130 1.313710 -6.671403 0
M  V30 14 C 2.322668 2.105928 -6.717927 0
M  V30 15 C 2.134268 3.143817 -7.619509 0
M  V30 16 C 0.952469 3.886902 -7.583886 0
M  V30 17 C -0.009528 3.559726 -6.635039 0
M  V30 18 C 0.170351 2.543831 -5.749533 0
M  V30 19 C 1.343967 1.792736 -5.771976 0
M  V30 20 N 1.486974 0.785141 -4.871595 0
M  V30 21 C 0.813903 -2.647350 -1.058707 0
M  V30 22 C -0.526647 -2.304411 -0.525224 0
M  V30 23 N -0.432432 -2.700572 0.854265 0
M  V30 24 C -0.824164 -1.993818 1.984200 0
M  V30 25 O -0.622822 -2.647490 3.032737 0
M  V30 26 N -1.216577 -1.285688 3.115257 0
M  V30 27 C -1.199700 -1.671702 4.517768 0
M  V30 28 C -2.510907 -1.134222 5.081774 0 CFG=2
M  V30 29 C -3.077965 -2.057062 6.134988 0
M  V30 30 C -4.575244 -1.734123 6.033523 0
M  V30 31 C -4.780678 -1.271403 4.595282 0
M  V30 32 N -3.483921 -1.139422 4.045278 0
M  V30 33 C -3.275581 0.015004 3.189773 0
M  V30 34 C -1.757405 0.035310 2.978935 0 CFG=2
M  V30 35 C -1.299089 0.874889 1.855034 0
M  V30 36 C 0.146352 1.181841 1.867063 0
M  V30 37 C 0.484148 2.311972 2.633898 0
M  V30 38 C 1.746284 2.821344 2.808219 0
M  V30 39 C 2.797893 2.197138 2.193690 0
M  V30 40 C 2.534079 1.087690 1.430008 0
M  V30 41 C 1.253101 0.618816 1.287638 0
M  V30 42 H 1.412274 -5.409555 1.720566 0
M  V30 43 H -0.096696 -4.886139 2.634078 0
M  V30 44 H 1.322007 -3.815945 2.496075 0
M  V30 45 H -0.769495 -4.869943 -1.066536 0
M  V30 46 H -1.866326 -4.528368 0.296530 0
M  V30 47 H -0.741842 -5.940750 0.434392 0
M  V30 48 H 3.060430 -4.797820 -0.411685 0
M  V30 49 H 0.870207 -0.695921 -3.005357 0
M  V30 50 H 4.494267 -0.283201 -5.776335 0
M  V30 51 H 4.213782 1.552312 -7.402354 0
M  V30 52 H 2.919358 3.349499 -8.333399 0
M  V30 53 H 0.822446 4.702078 -8.303491 0
M  V30 54 H -0.891464 4.202878 -6.695996 0
M  V30 55 H -0.637293 2.380422 -5.062811 0
M  V30 56 H -1.303285 -2.871681 -1.086945 0
M  V30 57 H -0.778858 -1.240616 -0.675048 0
M  V30 58 H -0.361547 -1.177858 5.050456 0
M  V30 59 H -1.198889 -2.733618 4.728874 0
M  V30 60 H -2.350473 -0.144992 5.499713 0
M  V30 61 H -2.752450 -1.676283 7.121579 0
M  V30 62 H -2.860893 -3.115487 5.977836 0
M  V30 63 H -5.104939 -2.676806 6.258867 0
M  V30 64 H -4.863481 -0.889249 6.679203 0
M  V30 65 H -5.284134 -2.140032 4.076759 0
M  V30 66 H -5.444860 -0.404413 4.514414 0
M  V30 67 H -3.634433 0.890162 3.763756 0
M  V30 68 H -3.801830 -0.030690 2.230877 0
M  V30 69 H -1.400374 0.616786 3.905876 0
M  V30 70 H -1.855959 1.832931 1.889733 0
M  V30 71 H -1.517228 0.457252 0.847178 0
M  V30 72 H -0.275435 2.888720 3.168841 0
M  V30 73 H 1.970093 3.681132 3.396433 0
M  V30 74 H 3.838762 2.458728 2.223193 0
M  V30 75 H 3.283423 0.506674 0.893233 0
M  V30 76 H 1.013451 -0.243798 0.690311 0
M  V30 END ATOM
M  V30 BEGIN BOND
M  V30 1 1 1 2
M  V30 2 1 2 3
M  V30 3 1 2 4
M  V30 4 1 4 5
M  V30 5 1 5 6
M  V30 6 2 6 7
M  V30 7 1 7 8
M  V30 8 1 8 9
M  V30 9 2 9 10
M  V30 10 1 9 11
M  V30 11 2 11 12
M  V30 12 1 12 13
M  V30 13 2 13 14
M  V30 14 1 14 15
M  V30 15 2 15 16
M  V30 16 1 16 17
M  V30 17 2 17 18
M  V30 18 1 18 19
M  V30 19 2 19 20
M  V30 20 1 7 21
M  V30 21 1 21 22
M  V30 22 1 22 23
M  V30 23 1 23 24
M  V30 24 2 24 25
M  V30 25 1 24 26
M  V30 26 1 26 27
M  V30 27 1 27 28
M  V30 28 1 28 29
M  V30 29 1 29 30
M  V30 30 1 30 31
M  V30 31 1 31 32
M  V30 32 1 32 33
M  V30 33 1 33 34
M  V30 34 1 34 35
M  V30 35 1 35 36
M  V30 36 2 36 37
M  V30 37 1 37 38
M  V30 38 2 38 39
M  V30 39 1 39 40
M  V30 40 2 40 41
M  V30 41 1 23 2
M  V30 42 1 34 26
M  V30 43 1 41 36
M  V30 44 2 21 4
M  V30 45 1 32 28
M  V30 46 1 20 11
M  V30 47 1 19 14
M  V30 48 1 1 42
M  V30 49 1 1 43
M  V30 50 1 1 44
M  V30 51 1 3 45
M  V30 52 1 3 46
M  V30 53 1 3 47
M  V30 54 1 5 48
M  V30 55 1 8 49
M  V30 56 1 12 50
M  V30 57 1 13 51
M  V30 58 1 15 52
M  V30 59 1 16 53
M  V30 60 1 17 54
M  V30 61 1 18 55
M  V30 62 1 22 56
M  V30 63 1 22 57
M  V30 64 1 27 58
M  V30 65 1 27 59
M  V30 66 1 28 60 CFG=1
M  V30 67 1 29 61
M  V30 68 1 29 62
M  V30 69 1 30 63
M  V30 70 1 30 64
M  V30 71 1 31 65
M  V30 72 1 31 66
M  V30 73 1 33 67
M  V30 74 1 33 68
M  V30 75 1 34 69 CFG=1
M  V30 76 1 35 70
M  V30 77 1 35 71
M  V30 78 1 37 72
M  V30 79 1 38 73
M  V30 80 1 39 74
M  V30 81 1 40 75
M  V30 82 1 41 76
M  V30 END BOND
M  V30 END CTAB
M  END
>  <Dataset>  (848) 
ChEMBL_Kinases

>  <Ligand_Instance>  (848) 
nan

>  <PDB_ID>  (848) 
nan

>  <Standardized_SMILES>  (848) 
CC1(C)c2[nH]nc(NC(=O)c3ccc4ccccc4n3)c2CN1C(=O)N1C[C@@H]2CCCN2C[C@@H]1Cc1ccccc1

>  <Name>  (848) 
nan

>  <Pocket>  (848) 
nan

>  <ATP_Site>  (848) 
nan

>  <Peripheral>  (848) 
nan

>  <Num_H_Atoms_ProtBoundConf>  (848) 
nan

>  <Num_Resolved_Atoms>  (848) 
nan

>  <Num_Not_Resolved_Atoms>  (848) 
nan

$$$$
CHEMBL3662730
     RDKit          3D

  0  0  0  0  0  0  0  0  0  0999 V3000
M  V30 BEGIN CTAB
M  V30 COUNTS 55 59 0 0 0
M  V30 BEGIN ATOM
M  V30 1 C -0.528805 -1.082614 3.599257 0
M  V30 2 C 0.541608 -1.182189 2.532136 0
M  V30 3 C 1.089619 -2.569072 2.491361 0
M  V30 4 C 1.618193 -0.204012 2.830264 0
M  V30 5 N 2.522276 -0.022273 3.799248 0
M  V30 6 N 3.192335 1.057073 3.466446 0
M  V30 7 C 2.757762 1.584882 2.316365 0
M  V30 8 N 3.345629 2.756723 1.774583 0
M  V30 9 C 2.947118 3.399087 0.593727 0
M  V30 10 O 2.017403 2.989411 -0.102440 0
M  V30 11 C 3.683789 4.600592 0.199378 0
M  V30 12 C 3.368304 5.361258 -1.008060 0
M  V30 13 C 4.145437 6.439330 -1.220088 0
M  V30 14 C 5.215013 6.828570 -0.330497 0
M  V30 15 S 5.043907 5.449479 0.948645 0
M  V30 16 C 1.736864 0.786416 1.881400 0
M  V30 17 C 0.740426 0.556748 0.835460 0
M  V30 18 N 0.094727 -0.705755 1.237558 0
M  V30 19 C -0.811919 -1.136025 0.237253 0
M  V30 20 O -0.702823 -0.228803 -0.629263 0
M  V30 21 N -1.653382 -2.266491 0.151473 0
M  V30 22 C -1.887093 -3.380337 1.052396 0
M  V30 23 C -3.148807 -4.097402 0.643999 0
M  V30 24 N -3.077595 -4.615419 -0.704960 0
M  V30 25 C -4.422318 -4.596976 -1.246894 0
M  V30 26 C -4.356440 -4.009088 -2.629334 0
M  V30 27 C -2.883117 -3.974056 -2.920016 0
M  V30 28 C -2.280978 -3.774821 -1.573091 0
M  V30 29 C -2.444387 -2.351507 -1.062543 0
M  V30 30 H -0.827799 -2.106963 3.915818 0
M  V30 31 H -1.382573 -0.453756 3.321723 0
M  V30 32 H -0.056338 -0.633892 4.496343 0
M  V30 33 H 2.046149 -2.575944 3.089554 0
M  V30 34 H 1.375244 -2.895750 1.487697 0
M  V30 35 H 0.353474 -3.254744 2.995329 0
M  V30 36 H 2.769221 -0.529083 4.682796 0
M  V30 37 H 4.161729 3.206254 2.290379 0
M  V30 38 H 2.577632 5.089535 -1.682856 0
M  V30 39 H 4.066022 7.121071 -2.053250 0
M  V30 40 H 5.887600 7.564845 -0.301674 0
M  V30 41 H -0.002310 1.347513 0.688435 0
M  V30 42 H 1.284550 0.393155 -0.141667 0
M  V30 43 H -1.065248 -4.122202 1.035029 0
M  V30 44 H -2.079731 -2.981195 2.068726 0
M  V30 45 H -3.260682 -4.987084 1.327536 0
M  V30 46 H -4.003243 -3.436738 0.783753 0
M  V30 47 H -5.097621 -3.924551 -0.642069 0
M  V30 48 H -4.894580 -5.601685 -1.253365 0
M  V30 49 H -4.930130 -4.634098 -3.371783 0
M  V30 50 H -4.716498 -2.961931 -2.696271 0
M  V30 51 H -2.608438 -5.017069 -3.238335 0
M  V30 52 H -2.572770 -3.275190 -3.700638 0
M  V30 53 H -1.203441 -4.013643 -1.525951 0
M  V30 54 H -3.544177 -2.265995 -0.818908 0
M  V30 55 H -2.193704 -1.604524 -1.812868 0
M  V30 END ATOM
M  V30 BEGIN BOND
M  V30 1 1 1 2
M  V30 2 1 2 3
M  V30 3 1 2 4
M  V30 4 1 4 5
M  V30 5 1 5 6
M  V30 6 2 6 7
M  V30 7 1 7 8
M  V30 8 1 8 9
M  V30 9 2 9 10
M  V30 10 1 9 11
M  V30 11 2 11 12
M  V30 12 1 12 13
M  V30 13 2 13 14
M  V30 14 1 14 15
M  V30 15 1 7 16
M  V30 16 1 16 17
M  V30 17 1 17 18
M  V30 18 1 18 19
M  V30 19 2 19 20
M  V30 20 1 19 21
M  V30 21 1 21 22
M  V30 22 1 22 23
M  V30 23 1 23 24
M  V30 24 1 24 25
M  V30 25 1 25 26
M  V30 26 1 26 27
M  V30 27 1 27 28
M  V30 28 1 28 29
M  V30 29 1 18 2
M  V30 30 1 29 21
M  V30 31 2 16 4
M  V30 32 1 28 24
M  V30 33 1 15 11
M  V30 34 1 1 30
M  V30 35 1 1 31
M  V30 36 1 1 32
M  V30 37 1 3 33
M  V30 38 1 3 34
M  V30 39 1 3 35
M  V30 40 1 5 36
M  V30 41 1 8 37
M  V30 42 1 12 38
M  V30 43 1 13 39
M  V30 44 1 14 40
M  V30 45 1 17 41
M  V30 46 1 17 42
M  V30 47 1 22 43
M  V30 48 1 22 44
M  V30 49 1 23 45
M  V30 50 1 23 46
M  V30 51 1 25 47
M  V30 52 1 25 48
M  V30 53 1 26 49
M  V30 54 1 26 50
M  V30 55 1 27 51
M  V30 56 1 27 52
M  V30 57 1 28 53
M  V30 58 1 29 54
M  V30 59 1 29 55
M  V30 END BOND
M  V30 END CTAB
M  END
>  <Dataset>  (849) 
ChEMBL_Kinases

>  <Ligand_Instance>  (849) 
nan

>  <PDB_ID>  (849) 
nan

>  <Standardized_SMILES>  (849) 
CC1(C)c2[nH]nc(NC(=O)c3cccs3)c2CN1C(=O)N1CCN2CCCC2C1

>  <Name>  (849) 
nan

>  <Pocket>  (849) 
nan

>  <ATP_Site>  (849) 
nan

>  <Peripheral>  (849) 
nan

>  <Num_H_Atoms_ProtBoundConf>  (849) 
nan

>  <Num_Resolved_Atoms>  (849) 
nan

>  <Num_Not_Resolved_Atoms>  (849) 
nan

$$$$
CHEMBL3662731
     RDKit          3D

  0  0  0  0  0  0  0  0  0  0999 V3000
M  V30 BEGIN CTAB
M  V30 COUNTS 58 62 0 0 0
M  V30 BEGIN ATOM
M  V30 1 C 1.637627 -2.463439 0.118970 0
M  V30 2 C 0.881376 -1.991451 1.320551 0
M  V30 3 C 0.632753 -3.106687 2.314023 0
M  V30 4 C 1.700824 -0.935166 1.987416 0
M  V30 5 N 2.874610 -0.833282 2.626692 0
M  V30 6 N 3.001634 0.448919 2.979670 0
M  V30 7 C 1.915092 1.132220 2.561484 0
M  V30 8 N 1.724319 2.543616 2.775937 0
M  V30 9 C 2.295511 3.220873 1.641998 0
M  V30 10 O 2.781675 2.392578 0.817897 0
M  V30 11 C 2.295138 4.691111 1.494966 0
M  V30 12 C 1.770239 5.612221 2.382161 0
M  V30 13 C 1.863489 6.949860 2.073557 0
M  V30 14 C 2.466569 7.369694 0.905548 0
M  V30 15 C 2.997396 6.461179 0.005935 0
M  V30 16 C 2.895376 5.127099 0.330571 0
M  V30 17 C 1.068565 0.287360 1.928256 0
M  V30 18 C -0.225636 0.194957 1.228434 0
M  V30 19 N -0.329258 -1.250555 0.996584 0
M  V30 20 C -1.585085 -1.644531 0.502322 0
M  V30 21 O -2.346587 -0.652480 0.367898 0
M  V30 22 N -2.172752 -2.877375 0.130348 0
M  V30 23 C -3.522236 -2.523868 -0.295653 0
M  V30 24 C -4.259850 -3.732102 -0.824888 0
M  V30 25 N -3.378962 -4.500398 -1.678507 0
M  V30 26 C -2.697382 -3.680370 -2.648905 0
M  V30 27 C -1.586075 -4.628127 -3.117525 0
M  V30 28 C -1.356354 -5.563974 -1.972028 0
M  V30 29 C -2.324215 -5.100256 -0.900506 0
M  V30 30 C -1.697876 -4.220482 0.116958 0
M  V30 31 H 1.009071 -2.685835 -0.766797 0
M  V30 32 H 2.244408 -3.329851 0.438712 0
M  V30 33 H 2.327303 -1.660168 -0.212990 0
M  V30 34 H 1.229374 -2.940193 3.250473 0
M  V30 35 H -0.444644 -3.235818 2.539675 0
M  V30 36 H 0.971520 -4.052253 1.835976 0
M  V30 37 H 3.569236 -1.589547 2.822577 0
M  V30 38 H 1.284470 3.139451 3.537284 0
M  V30 39 H 1.318414 5.173182 3.269623 0
M  V30 40 H 1.438428 7.625323 2.799093 0
M  V30 41 H 2.526913 8.443848 0.684903 0
M  V30 42 H 3.470235 6.829280 -0.913794 0
M  V30 43 H 3.328785 4.454628 -0.410788 0
M  V30 44 H -1.071848 0.563808 1.839894 0
M  V30 45 H -0.270328 0.669129 0.249589 0
M  V30 46 H -4.077193 -2.122680 0.576691 0
M  V30 47 H -3.515680 -1.760655 -1.109203 0
M  V30 48 H -4.550223 -4.396038 0.018149 0
M  V30 49 H -5.128608 -3.433651 -1.411990 0
M  V30 50 H -2.186972 -2.803041 -2.248120 0
M  V30 51 H -3.342641 -3.398015 -3.490979 0
M  V30 52 H -1.921234 -5.120356 -4.049233 0
M  V30 53 H -0.644034 -4.059062 -3.325115 0
M  V30 54 H -1.623714 -6.582729 -2.312185 0
M  V30 55 H -0.305596 -5.530389 -1.599055 0
M  V30 56 H -2.714739 -6.027325 -0.424302 0
M  V30 57 H -0.596601 -4.301263 -0.018973 0
M  V30 58 H -1.899424 -4.634775 1.147986 0
M  V30 END ATOM
M  V30 BEGIN BOND
M  V30 1 1 1 2
M  V30 2 1 2 3
M  V30 3 1 2 4
M  V30 4 1 4 5
M  V30 5 1 5 6
M  V30 6 2 6 7
M  V30 7 1 7 8
M  V30 8 1 8 9
M  V30 9 2 9 10
M  V30 10 1 9 11
M  V30 11 2 11 12
M  V30 12 1 12 13
M  V30 13 2 13 14
M  V30 14 1 14 15
M  V30 15 2 15 16
M  V30 16 1 7 17
M  V30 17 1 17 18
M  V30 18 1 18 19
M  V30 19 1 19 20
M  V30 20 2 20 21
M  V30 21 1 20 22
M  V30 22 1 22 23
M  V30 23 1 23 24
M  V30 24 1 24 25
M  V30 25 1 25 26
M  V30 26 1 26 27
M  V30 27 1 27 28
M  V30 28 1 28 29
M  V30 29 1 29 30
M  V30 30 1 19 2
M  V30 31 1 30 22
M  V30 32 2 17 4
M  V30 33 1 29 25
M  V30 34 1 16 11
M  V30 35 1 1 31
M  V30 36 1 1 32
M  V30 37 1 1 33
M  V30 38 1 3 34
M  V30 39 1 3 35
M  V30 40 1 3 36
M  V30 41 1 5 37
M  V30 42 1 8 38
M  V30 43 1 12 39
M  V30 44 1 13 40
M  V30 45 1 14 41
M  V30 46 1 15 42
M  V30 47 1 16 43
M  V30 48 1 18 44
M  V30 49 1 18 45
M  V30 50 1 23 46
M  V30 51 1 23 47
M  V30 52 1 24 48
M  V30 53 1 24 49
M  V30 54 1 26 50
M  V30 55 1 26 51
M  V30 56 1 27 52
M  V30 57 1 27 53
M  V30 58 1 28 54
M  V30 59 1 28 55
M  V30 60 1 29 56
M  V30 61 1 30 57
M  V30 62 1 30 58
M  V30 END BOND
M  V30 END CTAB
M  END
>  <Dataset>  (850) 
ChEMBL_Kinases

>  <Ligand_Instance>  (850) 
nan

>  <PDB_ID>  (850) 
nan

>  <Standardized_SMILES>  (850) 
CC1(C)c2[nH]nc(NC(=O)c3ccccc3)c2CN1C(=O)N1CCN2CCCC2C1

>  <Name>  (850) 
nan

>  <Pocket>  (850) 
nan

>  <ATP_Site>  (850) 
nan

>  <Peripheral>  (850) 
nan

>  <Num_H_Atoms_ProtBoundConf>  (850) 
nan

>  <Num_Resolved_Atoms>  (850) 
nan

>  <Num_Not_Resolved_Atoms>  (850) 
nan

$$$$
CHEMBL3662732
     RDKit          3D

  0  0  0  0  0  0  0  0  0  0999 V3000
M  V30 BEGIN CTAB
M  V30 COUNTS 75 80 0 0 0
M  V30 BEGIN ATOM
M  V30 1 C 7.668280 -2.190183 2.531119 0
M  V30 2 O 6.827719 -1.776890 3.564698 0
M  V30 3 C 5.655472 -1.062025 3.430367 0
M  V30 4 C 5.035149 -0.795552 4.633417 0
M  V30 5 C 3.856736 -0.094835 4.701785 0
M  V30 6 C 3.276716 0.357173 3.514682 0
M  V30 7 C 3.923317 0.072763 2.336372 0
M  V30 8 C 3.289898 0.558927 1.119409 0
M  V30 9 O 2.193766 1.208195 1.185798 0
M  V30 10 N 3.760394 0.394173 -0.197972 0
M  V30 11 C 2.840220 1.024900 -1.113580 0
M  V30 12 N 2.834638 2.288763 -1.570437 0
M  V30 13 N 1.798422 2.395821 -2.386029 0
M  V30 14 C 1.143379 1.222437 -2.457096 0
M  V30 15 C 1.785568 0.314407 -1.650178 0
M  V30 16 C 0.979271 -0.951400 -1.801542 0
M  V30 17 N -0.365755 -0.397132 -1.917606 0
M  V30 18 C -1.662670 -0.456940 -1.344581 0
M  V30 19 O -2.556436 0.302100 -1.858181 0
M  V30 20 N -2.230045 -1.186311 -0.295253 0
M  V30 21 C -1.606323 -2.238575 0.535965 0
M  V30 22 C -2.383680 -3.520340 0.429869 0 CFG=2
M  V30 23 C -1.798827 -4.446198 -0.619645 0
M  V30 24 C -2.922931 -5.450030 -0.757978 0
M  V30 25 C -4.171681 -4.668442 -0.432362 0
M  V30 26 N -3.765008 -3.453751 0.203425 0
M  V30 27 C -4.316501 -2.264246 -0.382474 0
M  V30 28 C -3.578029 -1.085109 0.208267 0 CFG=2
M  V30 29 C -4.265664 0.213627 0.204801 0
M  V30 30 C -3.575583 1.188051 1.046201 0
M  V30 31 C -3.909442 1.157056 2.414695 0
M  V30 32 C -3.418910 1.967144 3.416744 0
M  V30 33 C -2.494755 2.924731 3.063685 0
M  V30 34 C -2.114096 3.022761 1.748832 0
M  V30 35 C -2.652222 2.177782 0.820707 0
M  V30 36 C -0.009921 0.449046 -3.045360 0
M  V30 37 C -1.070579 1.361666 -3.540657 0
M  V30 38 C 0.537717 -0.316384 -4.223126 0
M  V30 39 C 5.093714 -0.622742 2.263293 0
M  V30 40 H 7.291281 -1.981157 1.528398 0
M  V30 41 H 8.645876 -1.670128 2.612978 0
M  V30 42 H 7.870366 -3.287005 2.619619 0
M  V30 43 H 5.382637 -1.090514 5.621040 0
M  V30 44 H 3.317219 0.147531 5.625424 0
M  V30 45 H 2.337129 0.917170 3.555258 0
M  V30 46 H 4.672213 -0.140727 -0.310558 0
M  V30 47 H 1.505762 3.249759 -2.911381 0
M  V30 48 H 1.293473 -1.476001 -2.703431 0
M  V30 49 H 1.152772 -1.593486 -0.934900 0
M  V30 50 H -0.584750 -2.457753 0.312783 0
M  V30 51 H -1.658066 -1.875255 1.580437 0
M  V30 52 H -2.229518 -4.043418 1.421239 0
M  V30 53 H -1.629831 -3.909057 -1.566074 0
M  V30 54 H -0.861978 -4.935923 -0.245936 0
M  V30 55 H -2.748858 -6.216417 0.046239 0
M  V30 56 H -2.924312 -5.927680 -1.745926 0
M  V30 57 H -4.771003 -4.499005 -1.350231 0
M  V30 58 H -4.809621 -5.252767 0.258485 0
M  V30 59 H -5.368282 -2.176838 0.008353 0
M  V30 60 H -4.376945 -2.278513 -1.468272 0
M  V30 61 H -3.591379 -1.353233 1.342362 0
M  V30 62 H -5.273635 0.015684 0.687854 0
M  V30 63 H -4.563038 0.606915 -0.788308 0
M  V30 64 H -4.642987 0.419011 2.781485 0
M  V30 65 H -3.735818 1.868334 4.443110 0
M  V30 66 H -2.067683 3.588358 3.772981 0
M  V30 67 H -1.393445 3.760090 1.436043 0
M  V30 68 H -2.332523 2.299309 -0.194973 0
M  V30 69 H -1.485437 2.083785 -2.857433 0
M  V30 70 H -1.886469 0.786095 -4.013881 0
M  V30 71 H -0.645349 1.970514 -4.395648 0
M  V30 72 H 0.237761 0.215695 -5.178706 0
M  V30 73 H 0.134981 -1.329300 -4.344758 0
M  V30 74 H 1.661843 -0.291041 -4.283372 0
M  V30 75 H 5.602416 -0.848586 1.360478 0
M  V30 END ATOM
M  V30 BEGIN BOND
M  V30 1 1 1 2
M  V30 2 1 2 3
M  V30 3 2 3 4
M  V30 4 1 4 5
M  V30 5 2 5 6
M  V30 6 1 6 7
M  V30 7 1 7 8
M  V30 8 2 8 9
M  V30 9 1 8 10
M  V30 10 1 10 11
M  V30 11 2 11 12
M  V30 12 1 12 13
M  V30 13 1 13 14
M  V30 14 2 14 15
M  V30 15 1 15 16
M  V30 16 1 16 17
M  V30 17 1 17 18
M  V30 18 2 18 19
M  V30 19 1 18 20
M  V30 20 1 20 21
M  V30 21 1 21 22
M  V30 22 1 22 23
M  V30 23 1 23 24
M  V30 24 1 24 25
M  V30 25 1 25 26
M  V30 26 1 26 27
M  V30 27 1 27 28
M  V30 28 1 28 29
M  V30 29 1 29 30
M  V30 30 2 30 31
M  V30 31 1 31 32
M  V30 32 2 32 33
M  V30 33 1 33 34
M  V30 34 2 34 35
M  V30 35 1 17 36
M  V30 36 1 36 37
M  V30 37 1 36 38
M  V30 38 2 7 39
M  V30 39 1 39 3
M  V30 40 1 15 11
M  V30 41 1 28 20
M  V30 42 1 35 30
M  V30 43 1 36 14
M  V30 44 1 26 22
M  V30 45 1 1 40
M  V30 46 1 1 41
M  V30 47 1 1 42
M  V30 48 1 4 43
M  V30 49 1 5 44
M  V30 50 1 6 45
M  V30 51 1 10 46
M  V30 52 1 13 47
M  V30 53 1 16 48
M  V30 54 1 16 49
M  V30 55 1 21 50
M  V30 56 1 21 51
M  V30 57 1 22 52 CFG=1
M  V30 58 1 23 53
M  V30 59 1 23 54
M  V30 60 1 24 55
M  V30 61 1 24 56
M  V30 62 1 25 57
M  V30 63 1 25 58
M  V30 64 1 27 59
M  V30 65 1 27 60
M  V30 66 1 28 61 CFG=1
M  V30 67 1 29 62
M  V30 68 1 29 63
M  V30 69 1 31 64
M  V30 70 1 32 65
M  V30 71 1 33 66
M  V30 72 1 34 67
M  V30 73 1 35 68
M  V30 74 1 37 69
M  V30 75 1 37 70
M  V30 76 1 37 71
M  V30 77 1 38 72
M  V30 78 1 38 73
M  V30 79 1 38 74
M  V30 80 1 39 75
M  V30 END BOND
M  V30 END CTAB
M  END
>  <Dataset>  (851) 
ChEMBL_Kinases

>  <Ligand_Instance>  (851) 
nan

>  <PDB_ID>  (851) 
nan

>  <Standardized_SMILES>  (851) 
COc1cccc(C(=O)Nc2n[nH]c3c2CN(C(=O)N2C[C@@H]4CCCN4C[C@@H]2Cc2ccccc2)C3(C)C)c1

>  <Name>  (851) 
nan

>  <Pocket>  (851) 
nan

>  <ATP_Site>  (851) 
nan

>  <Peripheral>  (851) 
nan

>  <Num_H_Atoms_ProtBoundConf>  (851) 
nan

>  <Num_Resolved_Atoms>  (851) 
nan

>  <Num_Not_Resolved_Atoms>  (851) 
nan

$$$$
CHEMBL3661316
     RDKit          3D

  0  0  0  0  0  0  0  0  0  0999 V3000
M  V30 BEGIN CTAB
M  V30 COUNTS 47 50 0 0 0
M  V30 BEGIN ATOM
M  V30 1 C 0.996677 -4.488940 2.596573 0
M  V30 2 O -0.209582 -4.829761 1.982000 0
M  V30 3 C -0.771091 -4.228496 0.867834 0
M  V30 4 C -0.233933 -3.160445 0.151750 0
M  V30 5 C -0.812871 -2.595846 -0.948914 0
M  V30 6 C -0.065081 -1.452352 -1.479299 0
M  V30 7 C 0.091703 -1.050401 -2.784304 0
M  V30 8 C 0.805499 0.082848 -3.125000 0
M  V30 9 C 1.396119 0.865357 -2.137302 0
M  V30 10 N 2.097264 1.970604 -2.463448 0
M  V30 11 C 2.657587 2.695719 -1.463204 0
M  V30 12 N 2.525946 2.335466 -0.188092 0
M  V30 13 C 1.861021 1.275957 0.241882 0
M  V30 14 N 1.615058 0.784705 1.580988 0
M  V30 15 C 0.621555 1.444453 2.355319 0
M  V30 16 C -0.522993 0.784836 2.746605 0
M  V30 17 C -1.541951 1.305660 3.500110 0
M  V30 18 O -2.691496 0.613673 3.884104 0
M  V30 19 C -1.403080 2.636830 3.907607 0
M  V30 20 C -0.284120 3.348602 3.550753 0
M  V30 21 C 0.727574 2.770038 2.782628 0
M  V30 22 C 1.902444 3.633069 2.501626 0
M  V30 23 C 1.295636 0.546825 -0.796036 0
M  V30 24 C 0.570649 -0.591977 -0.563642 0
M  V30 25 C -2.004297 -3.063010 -1.432416 0
M  V30 26 C -2.562267 -4.127647 -0.732530 0
M  V30 27 C -1.976699 -4.696190 0.375626 0
M  V30 28 O -2.573623 -5.764487 1.056819 0
M  V30 29 H 0.924898 -4.023776 3.585201 0
M  V30 30 H 1.557062 -5.468264 2.738244 0
M  V30 31 H 1.679835 -3.872712 1.973031 0
M  V30 32 H 0.734363 -2.825362 0.570262 0
M  V30 33 H -0.392318 -1.706330 -3.506242 0
M  V30 34 H 0.893291 0.355386 -4.173602 0
M  V30 35 H 3.241541 3.595443 -1.580540 0
M  V30 36 H 2.252082 -0.015551 1.735071 0
M  V30 37 H -0.721005 -0.259549 2.477303 0
M  V30 38 H -3.009678 -0.210998 3.364229 0
M  V30 39 H -2.144591 3.156108 4.502901 0
M  V30 40 H -0.178949 4.386034 3.870487 0
M  V30 41 H 2.807597 2.997535 2.435009 0
M  V30 42 H 2.066160 4.267464 3.430219 0
M  V30 43 H 1.815932 4.259715 1.613068 0
M  V30 44 H 0.462329 -0.864956 0.498209 0
M  V30 45 H -2.431512 -2.617250 -2.285645 0
M  V30 46 H -3.520261 -4.550432 -1.074580 0
M  V30 47 H -2.958335 -5.591865 1.980935 0
M  V30 END ATOM
M  V30 BEGIN BOND
M  V30 1 1 1 2
M  V30 2 1 2 3
M  V30 3 2 3 4
M  V30 4 1 4 5
M  V30 5 1 5 6
M  V30 6 2 6 7
M  V30 7 1 7 8
M  V30 8 2 8 9
M  V30 9 1 9 10
M  V30 10 2 10 11
M  V30 11 1 11 12
M  V30 12 2 12 13
M  V30 13 1 13 14
M  V30 14 1 14 15
M  V30 15 2 15 16
M  V30 16 1 16 17
M  V30 17 1 17 18
M  V30 18 2 17 19
M  V30 19 1 19 20
M  V30 20 2 20 21
M  V30 21 1 21 22
M  V30 22 1 13 23
M  V30 23 2 23 24
M  V30 24 2 5 25
M  V30 25 1 25 26
M  V30 26 2 26 27
M  V30 27 1 27 28
M  V30 28 1 27 3
M  V30 29 1 24 6
M  V30 30 1 23 9
M  V30 31 1 21 15
M  V30 32 1 1 29
M  V30 33 1 1 30
M  V30 34 1 1 31
M  V30 35 1 4 32
M  V30 36 1 7 33
M  V30 37 1 8 34
M  V30 38 1 11 35
M  V30 39 1 14 36
M  V30 40 1 16 37
M  V30 41 1 18 38
M  V30 42 1 19 39
M  V30 43 1 20 40
M  V30 44 1 22 41
M  V30 45 1 22 42
M  V30 46 1 22 43
M  V30 47 1 24 44
M  V30 48 1 25 45
M  V30 49 1 26 46
M  V30 50 1 28 47
M  V30 END BOND
M  V30 END CTAB
M  END
>  <Dataset>  (852) 
ChEMBL_Kinases

>  <Ligand_Instance>  (852) 
nan

>  <PDB_ID>  (852) 
nan

>  <Standardized_SMILES>  (852) 
COc1cc(-c2ccc3ncnc(Nc4cc(O)ccc4C)c3c2)ccc1O

>  <Name>  (852) 
nan

>  <Pocket>  (852) 
nan

>  <ATP_Site>  (852) 
nan

>  <Peripheral>  (852) 
nan

>  <Num_H_Atoms_ProtBoundConf>  (852) 
nan

>  <Num_Resolved_Atoms>  (852) 
nan

>  <Num_Not_Resolved_Atoms>  (852) 
nan

$$$$
CHEMBL3668559
     RDKit          3D

  0  0  0  0  0  0  0  0  0  0999 V3000
M  V30 BEGIN CTAB
M  V30 COUNTS 57 61 0 0 0
M  V30 BEGIN ATOM
M  V30 1 C 5.635292 -1.488511 -0.774480 0
M  V30 2 O 4.798475 -0.457382 -0.292903 0
M  V30 3 C 4.355101 -0.359789 1.016560 0
M  V30 4 C 4.664339 -1.245073 2.023089 0
M  V30 5 C 4.243740 -1.178126 3.325156 0
M  V30 6 C 3.430190 -0.122188 3.668297 0
M  V30 7 F 3.000591 -0.033863 4.951684 0
M  V30 8 C 3.069662 0.813444 2.720155 0
M  V30 9 C 3.525154 0.692741 1.423310 0
M  V30 10 C 3.118234 1.691476 0.478469 0
M  V30 11 C 3.819783 2.869778 0.219538 0
M  V30 12 F 4.974091 3.084190 0.914053 0
M  V30 13 C 3.319922 3.754300 -0.716207 0
M  V30 14 N 2.177428 3.526500 -1.393402 0
M  V30 15 C 1.443391 2.408332 -1.196938 0
M  V30 16 N 0.303005 1.880997 -1.676235 0
M  V30 17 C 0.028073 0.695567 -1.102877 0
M  V30 18 C -1.144741 -0.150939 -1.388103 0
M  V30 19 C -1.251567 -1.308017 -0.718674 0
M  V30 20 C -2.524005 -1.993673 -1.176041 0
M  V30 21 N -3.594806 -1.049080 -0.918189 0
M  V30 22 C -3.611034 -0.614714 0.458841 0
M  V30 23 C -4.037343 -1.605249 1.438477 0
M  V30 24 O -3.916354 -0.939756 2.535974 0
M  V30 25 N -4.500875 -2.985769 1.403214 0
M  V30 26 C -4.865480 -4.225023 0.689996 0
M  V30 27 C -4.242193 -4.956395 1.861204 0
M  V30 28 O -2.858541 -4.900411 1.816237 0
M  V30 29 C -4.846109 -3.761510 2.612811 0
M  V30 30 C -3.510703 0.060880 -1.838159 0
M  V30 31 C -2.142648 0.306126 -2.391305 0
M  V30 32 C 1.045539 0.445234 -0.206720 0
M  V30 33 C 1.940409 1.521579 -0.261834 0
M  V30 34 H 6.400806 -1.818596 -0.056946 0
M  V30 35 H 6.184328 -1.085815 -1.650188 0
M  V30 36 H 5.002506 -2.346253 -1.071429 0
M  V30 37 H 5.302167 -2.083811 1.778852 0
M  V30 38 H 4.516107 -1.899518 4.073933 0
M  V30 39 H 2.420139 1.657016 2.992692 0
M  V30 40 H 3.875628 4.684074 -0.918468 0
M  V30 41 H -0.231223 2.405035 -2.402422 0
M  V30 42 H -0.502672 -1.619030 0.010240 0
M  V30 43 H -2.455208 -2.119532 -2.273260 0
M  V30 44 H -2.643177 -2.957941 -0.707321 0
M  V30 45 H -4.265811 0.306650 0.462107 0
M  V30 46 H -2.578014 -0.233495 0.654984 0
M  V30 47 H -5.992731 -4.287553 0.707209 0
M  V30 48 H -4.440472 -4.378860 -0.289165 0
M  V30 49 H -4.704635 -5.915887 2.087249 0
M  V30 50 H -2.523278 -5.463059 1.047822 0
M  V30 51 H -5.947521 -3.913043 2.689934 0
M  V30 52 H -4.311252 -3.501193 3.522297 0
M  V30 53 H -4.203942 -0.074484 -2.706553 0
M  V30 54 H -3.813460 0.991655 -1.274401 0
M  V30 55 H -1.999474 1.397807 -2.538371 0
M  V30 56 H -1.992442 -0.182115 -3.382703 0
M  V30 57 H 1.119626 -0.451484 0.429999 0
M  V30 END ATOM
M  V30 BEGIN BOND
M  V30 1 1 1 2
M  V30 2 1 2 3
M  V30 3 2 3 4
M  V30 4 1 4 5
M  V30 5 2 5 6
M  V30 6 1 6 7
M  V30 7 1 6 8
M  V30 8 2 8 9
M  V30 9 1 9 10
M  V30 10 2 10 11
M  V30 11 1 11 12
M  V30 12 1 11 13
M  V30 13 2 13 14
M  V30 14 1 14 15
M  V30 15 1 15 16
M  V30 16 1 16 17
M  V30 17 1 17 18
M  V30 18 2 18 19
M  V30 19 1 19 20
M  V30 20 1 20 21
M  V30 21 1 21 22
M  V30 22 1 22 23
M  V30 23 2 23 24
M  V30 24 1 23 25
M  V30 25 1 25 26
M  V30 26 1 26 27
M  V30 27 1 27 28
M  V30 28 1 27 29
M  V30 29 1 21 30
M  V30 30 1 30 31
M  V30 31 2 17 32
M  V30 32 1 32 33
M  V30 33 1 9 3
M  V30 34 1 33 10
M  V30 35 2 33 15
M  V30 36 1 31 18
M  V30 37 1 29 25
M  V30 38 1 1 34
M  V30 39 1 1 35
M  V30 40 1 1 36
M  V30 41 1 4 37
M  V30 42 1 5 38
M  V30 43 1 8 39
M  V30 44 1 13 40
M  V30 45 1 16 41
M  V30 46 1 19 42
M  V30 47 1 20 43
M  V30 48 1 20 44
M  V30 49 1 22 45
M  V30 50 1 22 46
M  V30 51 1 26 47
M  V30 52 1 26 48
M  V30 53 1 27 49
M  V30 54 1 28 50
M  V30 55 1 29 51
M  V30 56 1 29 52
M  V30 57 1 30 53
M  V30 58 1 30 54
M  V30 59 1 31 55
M  V30 60 1 31 56
M  V30 61 1 32 57
M  V30 END BOND
M  V30 END CTAB
M  END
>  <Dataset>  (853) 
ChEMBL_Kinases

>  <Ligand_Instance>  (853) 
nan

>  <PDB_ID>  (853) 
nan

>  <Standardized_SMILES>  (853) 
COc1ccc(F)cc1-c1c(F)cnc2[nH]c(C3=CCN(CC(=O)N4CC(O)C4)CC3)cc12

>  <Name>  (853) 
nan

>  <Pocket>  (853) 
nan

>  <ATP_Site>  (853) 
nan

>  <Peripheral>  (853) 
nan

>  <Num_H_Atoms_ProtBoundConf>  (853) 
nan

>  <Num_Resolved_Atoms>  (853) 
nan

>  <Num_Not_Resolved_Atoms>  (853) 
nan

$$$$
CHEMBL3668558
     RDKit          3D

  0  0  0  0  0  0  0  0  0  0999 V3000
M  V30 BEGIN CTAB
M  V30 COUNTS 61 66 0 0 0
M  V30 BEGIN ATOM
M  V30 1 C 2.474814 -0.053177 4.335707 0
M  V30 2 O 2.123743 1.015649 3.480112 0
M  V30 3 C 1.155190 1.900945 3.965187 0
M  V30 4 C 0.571219 1.747550 5.214435 0
M  V30 5 C -0.372620 2.699758 5.563713 0
M  V30 6 C -0.755269 3.759458 4.766793 0
M  V30 7 F -1.699795 4.657595 5.195384 0
M  V30 8 C -0.152809 3.895222 3.507274 0
M  V30 9 C 0.802794 2.962454 3.112362 0
M  V30 10 C 1.489183 3.041121 1.825210 0
M  V30 11 C 2.644932 3.784367 1.759213 0
M  V30 12 F 3.190817 4.477954 2.808396 0
M  V30 13 C 3.298755 3.828780 0.546111 0
M  V30 14 N 2.873013 3.189880 -0.568836 0
M  V30 15 C 1.755502 2.458871 -0.542826 0
M  V30 16 N 1.014352 1.696056 -1.366107 0
M  V30 17 C -0.067512 1.165800 -0.775714 0
M  V30 18 C -0.981563 0.265302 -1.516635 0
M  V30 19 C -2.065179 -0.123161 -0.859576 0
M  V30 20 C -2.834728 -1.014968 -1.783406 0
M  V30 21 C -3.237304 -2.293506 -1.083327 0
M  V30 22 N -2.163181 -3.246739 -1.228848 0
M  V30 23 C -2.488181 -4.355579 -2.095803 0
M  V30 24 C -1.495516 -5.426204 -2.134338 0
M  V30 25 O -1.604770 -6.438088 -2.879301 0
M  V30 26 N -0.296665 -5.427018 -1.313747 0
M  V30 27 C 0.384474 -4.640051 -0.266211 0
M  V30 28 C 0.917358 -5.968853 0.252827 0
M  V30 29 O 0.005909 -6.717090 0.983744 0
M  V30 30 C 0.864711 -6.332314 -1.212559 0
M  V30 31 C -1.061830 -2.525287 -1.842640 0
M  V30 32 C -1.761071 -1.528440 -2.738742 0
M  V30 33 C -0.877843 -0.299574 -2.875456 0
M  V30 34 C -0.041305 1.607973 0.526112 0
M  V30 35 C 1.071337 2.399616 0.679621 0
M  V30 36 H 2.719752 0.227742 5.355905 0
M  V30 37 H 1.530744 -0.671137 4.408949 0
M  V30 38 H 3.213181 -0.740880 3.867494 0
M  V30 39 H 0.854325 0.925340 5.856730 0
M  V30 40 H -0.809092 2.537595 6.556500 0
M  V30 41 H -0.424407 4.708512 2.854808 0
M  V30 42 H 4.200454 4.370998 0.384498 0
M  V30 43 H 1.299085 1.556575 -2.378270 0
M  V30 44 H -2.470980 0.063034 0.118336 0
M  V30 45 H -3.662450 -0.502094 -2.291263 0
M  V30 46 H -4.119468 -2.695474 -1.656669 0
M  V30 47 H -3.549917 -2.127286 -0.035965 0
M  V30 48 H -2.639378 -3.989541 -3.151788 0
M  V30 49 H -3.500530 -4.707008 -1.788159 0
M  V30 50 H -0.305550 -4.131394 0.433393 0
M  V30 51 H 1.214269 -4.042798 -0.686166 0
M  V30 52 H 1.937358 -5.922759 0.677743 0
M  V30 53 H -0.641223 -7.219293 0.440675 0
M  V30 54 H 0.648647 -7.386755 -1.372662 0
M  V30 55 H 1.751420 -5.939422 -1.773894 0
M  V30 56 H -0.538840 -3.236895 -2.520762 0
M  V30 57 H -0.417059 -2.004604 -1.138922 0
M  V30 58 H -2.145493 -1.913327 -3.674189 0
M  V30 59 H 0.168775 -0.669885 -3.033488 0
M  V30 60 H -1.231145 0.350772 -3.683797 0
M  V30 61 H -0.791249 1.335069 1.228262 0
M  V30 END ATOM
M  V30 BEGIN BOND
M  V30 1 1 1 2
M  V30 2 1 2 3
M  V30 3 2 3 4
M  V30 4 1 4 5
M  V30 5 2 5 6
M  V30 6 1 6 7
M  V30 7 1 6 8
M  V30 8 2 8 9
M  V30 9 1 9 10
M  V30 10 2 10 11
M  V30 11 1 11 12
M  V30 12 1 11 13
M  V30 13 2 13 14
M  V30 14 1 14 15
M  V30 15 1 15 16
M  V30 16 1 16 17
M  V30 17 1 17 18
M  V30 18 2 18 19
M  V30 19 1 19 20
M  V30 20 1 20 21
M  V30 21 1 21 22
M  V30 22 1 22 23
M  V30 23 1 23 24
M  V30 24 2 24 25
M  V30 25 1 24 26
M  V30 26 1 26 27
M  V30 27 1 27 28
M  V30 28 1 28 29
M  V30 29 1 28 30
M  V30 30 1 22 31
M  V30 31 1 31 32
M  V30 32 1 32 33
M  V30 33 2 17 34
M  V30 34 1 34 35
M  V30 35 1 9 3
M  V30 36 1 35 10
M  V30 37 2 35 15
M  V30 38 1 33 18
M  V30 39 1 32 20
M  V30 40 1 30 26
M  V30 41 1 1 36
M  V30 42 1 1 37
M  V30 43 1 1 38
M  V30 44 1 4 39
M  V30 45 1 5 40
M  V30 46 1 8 41
M  V30 47 1 13 42
M  V30 48 1 16 43
M  V30 49 1 19 44
M  V30 50 1 20 45
M  V30 51 1 21 46
M  V30 52 1 21 47
M  V30 53 1 23 48
M  V30 54 1 23 49
M  V30 55 1 27 50
M  V30 56 1 27 51
M  V30 57 1 28 52
M  V30 58 1 29 53
M  V30 59 1 30 54
M  V30 60 1 30 55
M  V30 61 1 31 56
M  V30 62 1 31 57
M  V30 63 1 32 58
M  V30 64 1 33 59
M  V30 65 1 33 60
M  V30 66 1 34 61
M  V30 END BOND
M  V30 END CTAB
M  END
>  <Dataset>  (854) 
ChEMBL_Kinases

>  <Ligand_Instance>  (854) 
nan

>  <PDB_ID>  (854) 
nan

>  <Standardized_SMILES>  (854) 
COc1ccc(F)cc1-c1c(F)cnc2[nH]c(C3=CC4CN(CC(=O)N5CC(O)C5)CC4C3)cc12

>  <Name>  (854) 
nan

>  <Pocket>  (854) 
nan

>  <ATP_Site>  (854) 
nan

>  <Peripheral>  (854) 
nan

>  <Num_H_Atoms_ProtBoundConf>  (854) 
nan

>  <Num_Resolved_Atoms>  (854) 
nan

>  <Num_Not_Resolved_Atoms>  (854) 
nan

$$$$
CHEMBL3668557
     RDKit          3D

  0  0  0  0  0  0  0  0  0  0999 V3000
M  V30 BEGIN CTAB
M  V30 COUNTS 61 65 0 0 0
M  V30 BEGIN ATOM
M  V30 1 C 5.699852 -0.431500 0.569506 0
M  V30 2 O 4.865521 0.634311 0.970609 0
M  V30 3 C 4.607129 0.852049 2.315841 0
M  V30 4 C 5.150861 0.043516 3.292924 0
M  V30 5 C 4.874529 0.285056 4.637113 0
M  V30 6 C 4.049808 1.341833 4.998270 0
M  V30 7 F 3.779718 1.577799 6.313368 0
M  V30 8 C 3.504274 2.152425 4.024715 0
M  V30 9 C 3.776555 1.915780 2.685499 0
M  V30 10 C 3.226008 2.744202 1.590190 0
M  V30 11 C 3.893534 3.874092 1.106254 0
M  V30 12 C 3.279560 4.565996 0.081712 0
M  V30 13 N 2.098209 4.192372 -0.442229 0
M  V30 14 C 1.411635 3.101892 -0.005313 0
M  V30 15 N 0.239702 2.516862 -0.343094 0
M  V30 16 C 0.051823 1.438331 0.438734 0
M  V30 17 C -1.095133 0.534065 0.389772 0
M  V30 18 C -2.064603 0.752001 -0.485342 0
M  V30 19 C -3.089410 -0.339066 -0.289785 0
M  V30 20 N -2.413645 -1.591818 -0.532686 0
M  V30 21 C -3.275664 -2.738377 -0.540002 0
M  V30 22 C -4.389739 -2.666477 -1.563696 0
M  V30 23 C -5.266261 -3.879114 -1.373169 0
M  V30 24 C -4.559092 -5.185123 -1.397725 0
M  V30 25 C -4.506424 -5.830110 -2.736488 0
M  V30 26 O -4.968730 -6.951572 -3.071456 0
M  V30 27 O -3.872626 -5.139367 -3.786003 0
M  V30 28 C -3.213062 -5.165086 -0.718889 0
M  V30 29 C -2.425692 -3.933740 -1.000881 0
M  V30 30 C -1.392748 -1.852422 0.477613 0
M  V30 31 C -1.167635 -0.618498 1.324222 0
M  V30 32 C 1.131115 1.344894 1.286532 0
M  V30 33 C 2.011322 2.398760 1.018588 0
M  V30 34 H 5.592998 -0.657225 -0.504437 0
M  V30 35 H 6.735112 -0.130131 0.760975 0
M  V30 36 H 5.456416 -1.345648 1.128380 0
M  V30 37 H 5.788449 -0.777671 3.059532 0
M  V30 38 H 5.303620 -0.352523 5.402946 0
M  V30 39 H 2.848625 2.995807 4.276515 0
M  V30 40 H 4.841853 4.146725 1.550008 0
M  V30 41 H 3.806805 5.444101 -0.288348 0
M  V30 42 H -0.372521 2.878183 -1.085726 0
M  V30 43 H -2.043068 1.580698 -1.172767 0
M  V30 44 H -3.454159 -0.234764 0.750497 0
M  V30 45 H -3.861129 -0.178156 -1.043645 0
M  V30 46 H -3.635487 -2.969646 0.471028 0
M  V30 47 H -3.965480 -2.548485 -2.558765 0
M  V30 48 H -5.052037 -1.787986 -1.326695 0
M  V30 49 H -5.972493 -3.882353 -2.254674 0
M  V30 50 H -5.881415 -3.725300 -0.482415 0
M  V30 51 H -5.189901 -5.889664 -0.777847 0
M  V30 52 H -3.366434 -5.681402 -4.500402 0
M  V30 53 H -3.349971 -5.260770 0.363571 0
M  V30 54 H -2.623591 -6.041326 -1.075462 0
M  V30 55 H -1.465212 -3.985006 -0.470091 0
M  V30 56 H -2.195636 -3.828220 -2.089744 0
M  V30 57 H -0.442787 -2.034014 -0.080852 0
M  V30 58 H -1.640573 -2.733930 1.106378 0
M  V30 59 H -1.954045 -0.508541 2.102843 0
M  V30 60 H -0.216987 -0.708353 1.888377 0
M  V30 61 H 1.330540 0.611018 2.051543 0
M  V30 END ATOM
M  V30 BEGIN BOND
M  V30 1 1 1 2
M  V30 2 1 2 3
M  V30 3 2 3 4
M  V30 4 1 4 5
M  V30 5 2 5 6
M  V30 6 1 6 7
M  V30 7 1 6 8
M  V30 8 2 8 9
M  V30 9 1 9 10
M  V30 10 2 10 11
M  V30 11 1 11 12
M  V30 12 2 12 13
M  V30 13 1 13 14
M  V30 14 1 14 15
M  V30 15 1 15 16
M  V30 16 1 16 17
M  V30 17 2 17 18
M  V30 18 1 18 19
M  V30 19 1 19 20
M  V30 20 1 20 21
M  V30 21 1 21 22
M  V30 22 1 22 23
M  V30 23 1 23 24
M  V30 24 1 24 25
M  V30 25 2 25 26
M  V30 26 1 25 27
M  V30 27 1 24 28
M  V30 28 1 28 29
M  V30 29 1 20 30
M  V30 30 1 30 31
M  V30 31 2 16 32
M  V30 32 1 32 33
M  V30 33 1 9 3
M  V30 34 1 33 10
M  V30 35 2 33 14
M  V30 36 1 31 17
M  V30 37 1 29 21
M  V30 38 1 1 34
M  V30 39 1 1 35
M  V30 40 1 1 36
M  V30 41 1 4 37
M  V30 42 1 5 38
M  V30 43 1 8 39
M  V30 44 1 11 40
M  V30 45 1 12 41
M  V30 46 1 15 42
M  V30 47 1 18 43
M  V30 48 1 19 44
M  V30 49 1 19 45
M  V30 50 1 21 46
M  V30 51 1 22 47
M  V30 52 1 22 48
M  V30 53 1 23 49
M  V30 54 1 23 50
M  V30 55 1 24 51
M  V30 56 1 27 52
M  V30 57 1 28 53
M  V30 58 1 28 54
M  V30 59 1 29 55
M  V30 60 1 29 56
M  V30 61 1 30 57
M  V30 62 1 30 58
M  V30 63 1 31 59
M  V30 64 1 31 60
M  V30 65 1 32 61
M  V30 END BOND
M  V30 END CTAB
M  END
>  <Dataset>  (855) 
ChEMBL_Kinases

>  <Ligand_Instance>  (855) 
nan

>  <PDB_ID>  (855) 
nan

>  <Standardized_SMILES>  (855) 
COc1ccc(F)cc1-c1ccnc2[nH]c(C3=CCN(C4CCC(C(=O)O)CC4)CC3)cc12

>  <Name>  (855) 
nan

>  <Pocket>  (855) 
nan

>  <ATP_Site>  (855) 
nan

>  <Peripheral>  (855) 
nan

>  <Num_H_Atoms_ProtBoundConf>  (855) 
nan

>  <Num_Resolved_Atoms>  (855) 
nan

>  <Num_Not_Resolved_Atoms>  (855) 
nan

$$$$
CHEMBL3668556
     RDKit          3D

  0  0  0  0  0  0  0  0  0  0999 V3000
M  V30 BEGIN CTAB
M  V30 COUNTS 59 63 0 0 0
M  V30 BEGIN ATOM
M  V30 1 C 5.873128 -4.003487 1.385736 0
M  V30 2 N 5.498084 -3.308321 2.586200 0
M  V30 3 S 5.525486 -1.587639 2.372777 0
M  V30 4 O 6.895035 -1.139708 1.997657 0
M  V30 5 O 5.090982 -0.973036 3.673001 0
M  V30 6 C 4.380817 -1.065199 1.136531 0
M  V30 7 C 4.415431 0.421901 0.963017 0
M  V30 8 O 5.123020 1.273097 1.562728 0
M  V30 9 N 3.559384 1.030795 0.007522 0
M  V30 10 C 3.475151 2.448574 -0.277092 0
M  V30 11 C 2.038882 2.633349 -0.713028 0
M  V30 12 C 1.091721 2.327316 0.392484 0
M  V30 13 C 0.120303 1.536405 -0.043189 0
M  V30 14 C -0.997291 1.015392 0.735076 0
M  V30 15 C -2.030216 0.181769 0.295249 0
M  V30 16 C -2.862837 -0.058392 1.362680 0
M  V30 17 C -4.022107 -0.831480 1.404159 0
M  V30 18 C -4.497921 -1.520686 0.196286 0
M  V30 19 C -5.361978 -0.746952 -0.549250 0
M  V30 20 C -5.928020 -1.214011 -1.733906 0
M  V30 21 F -6.777412 -0.468519 -2.477627 0
M  V30 22 C -5.579905 -2.495000 -2.126462 0
M  V30 23 C -4.715822 -3.274021 -1.384670 0
M  V30 24 C -4.159165 -2.801762 -0.210404 0
M  V30 25 O -3.281406 -3.480679 0.623506 0
M  V30 26 C -2.872377 -4.809576 0.288182 0
M  V30 27 C -4.660783 -0.891855 2.630779 0
M  V30 28 C -4.133870 -0.203507 3.721575 0
M  V30 29 N -3.003872 0.528803 3.611113 0
M  V30 30 C -2.352182 0.612568 2.432476 0
M  V30 31 N -1.221036 1.264577 2.055031 0
M  V30 32 C 0.341134 1.246942 -1.487633 0
M  V30 33 C 1.849795 1.402900 -1.582912 0
M  V30 34 C 2.614476 0.350595 -0.857075 0
M  V30 35 H 6.791150 -4.632116 1.553599 0
M  V30 36 H 5.080099 -4.723448 1.136203 0
M  V30 37 H 6.068526 -3.288433 0.547014 0
M  V30 38 H 4.616010 -3.626142 3.019811 0
M  V30 39 H 3.351197 -1.376972 1.477519 0
M  V30 40 H 4.565996 -1.541414 0.146849 0
M  V30 41 H 4.111270 2.638496 -1.165809 0
M  V30 42 H 3.753637 3.074336 0.575023 0
M  V30 43 H 1.834835 3.570042 -1.233927 0
M  V30 44 H 1.216146 2.718497 1.401821 0
M  V30 45 H -2.086764 -0.168193 -0.730947 0
M  V30 46 H -5.673360 0.263029 -0.295189 0
M  V30 47 H -5.999569 -2.894840 -3.043021 0
M  V30 48 H -4.420194 -4.283087 -1.661708 0
M  V30 49 H -1.965015 -5.054336 0.885235 0
M  V30 50 H -2.607605 -4.826972 -0.788406 0
M  V30 51 H -3.678137 -5.550067 0.431395 0
M  V30 52 H -5.566749 -1.491888 2.676783 0
M  V30 53 H -4.700429 -0.307979 4.642087 0
M  V30 54 H -0.613486 1.857126 2.650403 0
M  V30 55 H -0.097260 2.044578 -2.109776 0
M  V30 56 H 0.030813 0.226019 -1.783976 0
M  V30 57 H 2.182031 1.567915 -2.623764 0
M  V30 58 H 1.927252 -0.210162 -0.158140 0
M  V30 59 H 3.113844 -0.400078 -1.530049 0
M  V30 END ATOM
M  V30 BEGIN BOND
M  V30 1 1 1 2
M  V30 2 1 2 3
M  V30 3 2 3 4
M  V30 4 2 3 5
M  V30 5 1 3 6
M  V30 6 1 6 7
M  V30 7 2 7 8
M  V30 8 1 7 9
M  V30 9 1 9 10
M  V30 10 1 10 11
M  V30 11 1 11 12
M  V30 12 2 12 13
M  V30 13 1 13 14
M  V30 14 2 14 15
M  V30 15 1 15 16
M  V30 16 2 16 17
M  V30 17 1 17 18
M  V30 18 2 18 19
M  V30 19 1 19 20
M  V30 20 1 20 21
M  V30 21 2 20 22
M  V30 22 1 22 23
M  V30 23 2 23 24
M  V30 24 1 24 25
M  V30 25 1 25 26
M  V30 26 1 17 27
M  V30 27 2 27 28
M  V30 28 1 28 29
M  V30 29 2 29 30
M  V30 30 1 30 31
M  V30 31 1 13 32
M  V30 32 1 32 33
M  V30 33 1 33 34
M  V30 34 1 34 9
M  V30 35 1 33 11
M  V30 36 1 31 14
M  V30 37 1 30 16
M  V30 38 1 24 18
M  V30 39 1 1 35
M  V30 40 1 1 36
M  V30 41 1 1 37
M  V30 42 1 2 38
M  V30 43 1 6 39
M  V30 44 1 6 40
M  V30 45 1 10 41
M  V30 46 1 10 42
M  V30 47 1 11 43
M  V30 48 1 12 44
M  V30 49 1 15 45
M  V30 50 1 19 46
M  V30 51 1 22 47
M  V30 52 1 23 48
M  V30 53 1 26 49
M  V30 54 1 26 50
M  V30 55 1 26 51
M  V30 56 1 27 52
M  V30 57 1 28 53
M  V30 58 1 31 54
M  V30 59 1 32 55
M  V30 60 1 32 56
M  V30 61 1 33 57
M  V30 62 1 34 58
M  V30 63 1 34 59
M  V30 END BOND
M  V30 END CTAB
M  END
>  <Dataset>  (856) 
ChEMBL_Kinases

>  <Ligand_Instance>  (856) 
nan

>  <PDB_ID>  (856) 
nan

>  <Standardized_SMILES>  (856) 
CNS(=O)(=O)CC(=O)N1CC2C=C(c3cc4c(-c5cc(F)ccc5OC)ccnc4[nH]3)CC2C1

>  <Name>  (856) 
nan

>  <Pocket>  (856) 
nan

>  <ATP_Site>  (856) 
nan

>  <Peripheral>  (856) 
nan

>  <Num_H_Atoms_ProtBoundConf>  (856) 
nan

>  <Num_Resolved_Atoms>  (856) 
nan

>  <Num_Not_Resolved_Atoms>  (856) 
nan

$$$$
CHEMBL3668555
     RDKit          3D

  0  0  0  0  0  0  0  0  0  0999 V3000
M  V30 BEGIN CTAB
M  V30 COUNTS 66 70 0 0 0
M  V30 BEGIN ATOM
M  V30 1 C 2.399980 -0.273088 4.512043 0
M  V30 2 O 2.197429 0.576197 3.411799 0
M  V30 3 C 2.581110 0.160305 2.159667 0
M  V30 4 C 3.168999 -1.092098 1.962331 0
M  V30 5 C 3.585404 -1.597369 0.754105 0
M  V30 6 C 3.400782 -0.785162 -0.356174 0
M  V30 7 F 3.795514 -1.240338 -1.567734 0
M  V30 8 C 2.825474 0.464649 -0.230735 0
M  V30 9 C 2.424668 0.923728 1.008538 0
M  V30 10 C 1.802216 2.234184 1.263123 0
M  V30 11 C 2.594373 3.331799 1.554370 0
M  V30 12 C 4.011370 3.254106 1.620919 0
M  V30 13 N 5.146925 3.196875 1.679777 0
M  V30 14 C 1.870205 4.491469 1.769676 0
M  V30 15 N 0.541155 4.600891 1.715399 0
M  V30 16 C -0.219321 3.530118 1.432026 0
M  V30 17 N -1.554686 3.304401 1.302938 0
M  V30 18 C -1.809122 1.998656 0.997297 0
M  V30 19 C -3.185604 1.487866 0.808467 0
M  V30 20 C -3.496965 0.262438 1.590529 0
M  V30 21 C -4.362977 -0.718290 0.810686 0
M  V30 22 N -3.664512 -1.207578 -0.362264 0
M  V30 23 C -2.665824 -2.201101 0.007552 0
M  V30 24 C -2.023240 -2.664248 -1.221649 0
M  V30 25 O -2.270585 -2.285602 -2.392157 0
M  V30 26 N -1.005425 -3.595902 -1.552550 0
M  V30 27 C -0.646055 -3.770515 -2.945599 0
M  V30 28 C 0.866404 -3.864449 -2.917782 0
M  V30 29 C 1.237312 -4.097015 -1.469698 0
M  V30 30 C -0.110535 -4.537497 -0.908971 0 CFG=1
M  V30 31 C -0.120012 -4.448052 0.598301 0
M  V30 32 O 0.275846 -3.185834 1.029130 0
M  V30 33 C -3.016333 -0.147678 -1.069035 0
M  V30 34 C -3.420861 1.240205 -0.655856 0
M  V30 35 C -0.565769 1.429388 0.944125 0
M  V30 36 C 0.430236 2.335093 1.204418 0
M  V30 37 H 2.017316 -1.300815 4.369651 0
M  V30 38 H 1.820224 0.147438 5.370161 0
M  V30 39 H 3.479268 -0.279787 4.836356 0
M  V30 40 H 3.306145 -1.715378 2.842928 0
M  V30 41 H 4.028898 -2.584158 0.722319 0
M  V30 42 H 2.666001 1.124052 -1.071865 0
M  V30 43 H 2.407104 5.405190 2.004837 0
M  V30 44 H -2.206254 4.132505 1.448808 0
M  V30 45 H -3.865646 2.347706 1.100259 0
M  V30 46 H -2.658664 -0.290249 2.005542 0
M  V30 47 H -4.131788 0.576182 2.465527 0
M  V30 48 H -4.552947 -1.573341 1.495912 0
M  V30 49 H -5.277352 -0.213556 0.492583 0
M  V30 50 H -3.234248 -3.001341 0.533147 0
M  V30 51 H -1.995044 -1.711040 0.712930 0
M  V30 52 H -1.010393 -3.008032 -3.626812 0
M  V30 53 H -1.017503 -4.802698 -3.213773 0
M  V30 54 H 1.221083 -4.757680 -3.475095 0
M  V30 55 H 1.293775 -2.925762 -3.304087 0
M  V30 56 H 1.562659 -3.137850 -1.034309 0
M  V30 57 H 2.005599 -4.887737 -1.341169 0
M  V30 58 H -0.311267 -5.536926 -1.285800 0
M  V30 59 H 0.653953 -5.159880 0.951706 0
M  V30 60 H -1.064110 -4.780554 1.039592 0
M  V30 61 H 0.161035 -3.161809 2.019505 0
M  V30 62 H -1.903263 -0.218050 -1.000457 0
M  V30 63 H -3.245714 -0.193358 -2.180783 0
M  V30 64 H -2.740326 1.941281 -1.217947 0
M  V30 65 H -4.469346 1.477915 -0.957718 0
M  V30 66 H -0.399989 0.402877 0.728277 0
M  V30 END ATOM
M  V30 BEGIN BOND
M  V30 1 1 1 2
M  V30 2 1 2 3
M  V30 3 2 3 4
M  V30 4 1 4 5
M  V30 5 2 5 6
M  V30 6 1 6 7
M  V30 7 1 6 8
M  V30 8 2 8 9
M  V30 9 1 9 10
M  V30 10 2 10 11
M  V30 11 1 11 12
M  V30 12 3 12 13
M  V30 13 1 11 14
M  V30 14 2 14 15
M  V30 15 1 15 16
M  V30 16 1 16 17
M  V30 17 1 17 18
M  V30 18 1 18 19
M  V30 19 1 19 20
M  V30 20 1 20 21
M  V30 21 1 21 22
M  V30 22 1 22 23
M  V30 23 1 23 24
M  V30 24 2 24 25
M  V30 25 1 24 26
M  V30 26 1 26 27
M  V30 27 1 27 28
M  V30 28 1 28 29
M  V30 29 1 29 30
M  V30 30 1 30 31
M  V30 31 1 31 32
M  V30 32 1 22 33
M  V30 33 1 33 34
M  V30 34 2 18 35
M  V30 35 1 35 36
M  V30 36 1 9 3
M  V30 37 1 36 10
M  V30 38 2 36 16
M  V30 39 1 34 19
M  V30 40 1 30 26
M  V30 41 1 1 37
M  V30 42 1 1 38
M  V30 43 1 1 39
M  V30 44 1 4 40
M  V30 45 1 5 41
M  V30 46 1 8 42
M  V30 47 1 14 43
M  V30 48 1 17 44
M  V30 49 1 19 45
M  V30 50 1 20 46
M  V30 51 1 20 47
M  V30 52 1 21 48
M  V30 53 1 21 49
M  V30 54 1 23 50
M  V30 55 1 23 51
M  V30 56 1 27 52
M  V30 57 1 27 53
M  V30 58 1 28 54
M  V30 59 1 28 55
M  V30 60 1 29 56
M  V30 61 1 29 57
M  V30 62 1 30 58 CFG=1
M  V30 63 1 31 59
M  V30 64 1 31 60
M  V30 65 1 32 61
M  V30 66 1 33 62
M  V30 67 1 33 63
M  V30 68 1 34 64
M  V30 69 1 34 65
M  V30 70 1 35 66
M  V30 END BOND
M  V30 END CTAB
M  END
>  <Dataset>  (857) 
ChEMBL_Kinases

>  <Ligand_Instance>  (857) 
nan

>  <PDB_ID>  (857) 
nan

>  <Standardized_SMILES>  (857) 
COc1ccc(F)cc1-c1c(C#N)cnc2[nH]c(C3CCN(CC(=O)N4CCC[C@H]4CO)CC3)cc12

>  <Name>  (857) 
nan

>  <Pocket>  (857) 
nan

>  <ATP_Site>  (857) 
nan

>  <Peripheral>  (857) 
nan

>  <Num_H_Atoms_ProtBoundConf>  (857) 
nan

>  <Num_Resolved_Atoms>  (857) 
nan

>  <Num_Not_Resolved_Atoms>  (857) 
nan

$$$$
CHEMBL3668554
     RDKit          3D

  0  0  0  0  0  0  0  0  0  0999 V3000
M  V30 BEGIN CTAB
M  V30 COUNTS 64 68 0 0 0
M  V30 BEGIN ATOM
M  V30 1 C 5.157757 -1.269983 2.357255 0
M  V30 2 O 4.695885 -0.015508 1.920837 0
M  V30 3 C 4.421406 1.000793 2.814370 0
M  V30 4 C 4.583943 0.845565 4.186442 0
M  V30 5 C 4.310668 1.863896 5.104836 0
M  V30 6 C 3.859796 3.075511 4.624134 0
M  V30 7 F 3.567143 4.126873 5.437757 0
M  V30 8 C 3.677088 3.294688 3.271976 0
M  V30 9 C 3.962967 2.254375 2.418030 0
M  V30 10 C 3.793636 2.411439 0.967420 0
M  V30 11 C 4.804425 2.867596 0.131127 0
M  V30 12 C 4.578299 2.992148 -1.223888 0
M  V30 13 N 3.392396 2.678013 -1.747026 0
M  V30 14 C 2.403917 2.233770 -0.941929 0
M  V30 15 N 1.135741 1.856763 -1.223168 0
M  V30 16 C 0.488289 1.480468 -0.116153 0
M  V30 17 C -0.893836 1.018081 -0.074519 0
M  V30 18 C -1.574756 0.959787 -1.208775 0
M  V30 19 C -2.943408 0.461107 -0.890166 0
M  V30 20 N -2.793761 -0.845406 -0.343494 0
M  V30 21 C -3.930041 -1.690295 -0.403079 0 CFG=1
M  V30 22 C -4.449998 -1.981562 -1.772718 0
M  V30 23 C -3.522625 -2.830461 -2.603868 0
M  V30 24 C -3.088990 -4.085640 -1.878559 0 CFG=2
M  V30 25 C -4.212388 -5.045742 -1.690727 0
M  V30 26 C -3.710357 -6.251366 -0.989240 0
M  V30 27 O -2.663308 -6.755345 -0.508009 0
M  V30 28 O -3.882164 -7.482845 -0.426278 0
M  V30 29 C -2.508152 -3.714570 -0.532029 0
M  V30 30 C -3.571087 -3.014685 0.256309 0
M  V30 31 C -2.289513 -0.723516 1.009785 0
M  V30 32 C -1.557819 0.613778 1.184676 0
M  V30 33 C 1.371109 1.617115 0.935914 0
M  V30 34 C 2.563567 2.087308 0.413067 0
M  V30 35 H 6.232380 -1.199857 2.594626 0
M  V30 36 H 4.929870 -2.008848 1.550874 0
M  V30 37 H 4.575433 -1.564977 3.249632 0
M  V30 38 H 4.929051 -0.072044 4.594491 0
M  V30 39 H 4.442526 1.725633 6.165789 0
M  V30 40 H 3.328807 4.210905 2.815369 0
M  V30 41 H 5.768611 3.120958 0.570680 0
M  V30 42 H 5.350270 3.344469 -1.889124 0
M  V30 43 H 0.746695 1.871417 -2.196448 0
M  V30 44 H -1.189547 1.230057 -2.182816 0
M  V30 45 H -3.419283 1.207594 -0.225483 0
M  V30 46 H -3.496949 0.496230 -1.845799 0
M  V30 47 H -4.754117 -1.252526 0.195586 0
M  V30 48 H -5.396069 -2.552667 -1.657456 0
M  V30 49 H -4.702034 -1.096027 -2.357796 0
M  V30 50 H -4.093085 -3.157352 -3.500228 0
M  V30 51 H -2.619908 -2.329150 -2.954847 0
M  V30 52 H -2.300905 -4.568723 -2.486832 0
M  V30 53 H -5.091687 -4.616197 -1.193271 0
M  V30 54 H -4.544351 -5.407598 -2.705649 0
M  V30 55 H -4.737577 -8.011700 -0.399347 0
M  V30 56 H -1.668561 -2.995024 -0.644657 0
M  V30 57 H -2.136129 -4.588593 -0.011942 0
M  V30 58 H -3.138359 -2.765531 1.257458 0
M  V30 59 H -4.460297 -3.638434 0.473812 0
M  V30 60 H -3.085641 -0.798113 1.778957 0
M  V30 61 H -1.538152 -1.508736 1.238525 0
M  V30 62 H -2.290732 1.382499 1.462122 0
M  V30 63 H -0.787954 0.523176 1.998882 0
M  V30 64 H 1.182331 1.401628 1.978295 0
M  V30 END ATOM
M  V30 BEGIN BOND
M  V30 1 1 1 2
M  V30 2 1 2 3
M  V30 3 2 3 4
M  V30 4 1 4 5
M  V30 5 2 5 6
M  V30 6 1 6 7
M  V30 7 1 6 8
M  V30 8 2 8 9
M  V30 9 1 9 10
M  V30 10 2 10 11
M  V30 11 1 11 12
M  V30 12 2 12 13
M  V30 13 1 13 14
M  V30 14 1 14 15
M  V30 15 1 15 16
M  V30 16 1 16 17
M  V30 17 2 17 18
M  V30 18 1 18 19
M  V30 19 1 19 20
M  V30 20 1 20 21
M  V30 21 1 21 22
M  V30 22 1 22 23
M  V30 23 1 23 24
M  V30 24 1 24 25
M  V30 25 1 25 26
M  V30 26 2 26 27
M  V30 27 1 26 28
M  V30 28 1 24 29
M  V30 29 1 29 30
M  V30 30 1 20 31
M  V30 31 1 31 32
M  V30 32 2 16 33
M  V30 33 1 33 34
M  V30 34 1 9 3
M  V30 35 1 34 10
M  V30 36 2 34 14
M  V30 37 1 32 17
M  V30 38 1 30 21
M  V30 39 1 1 35
M  V30 40 1 1 36
M  V30 41 1 1 37
M  V30 42 1 4 38
M  V30 43 1 5 39
M  V30 44 1 8 40
M  V30 45 1 11 41
M  V30 46 1 12 42
M  V30 47 1 15 43
M  V30 48 1 18 44
M  V30 49 1 19 45
M  V30 50 1 19 46
M  V30 51 1 21 47 CFG=1
M  V30 52 1 22 48
M  V30 53 1 22 49
M  V30 54 1 23 50
M  V30 55 1 23 51
M  V30 56 1 24 52 CFG=3
M  V30 57 1 25 53
M  V30 58 1 25 54
M  V30 59 1 28 55
M  V30 60 1 29 56
M  V30 61 1 29 57
M  V30 62 1 30 58
M  V30 63 1 30 59
M  V30 64 1 31 60
M  V30 65 1 31 61
M  V30 66 1 32 62
M  V30 67 1 32 63
M  V30 68 1 33 64
M  V30 END BOND
M  V30 END CTAB
M  END
>  <Dataset>  (858) 
ChEMBL_Kinases

>  <Ligand_Instance>  (858) 
nan

>  <PDB_ID>  (858) 
nan

>  <Standardized_SMILES>  (858) 
COc1ccc(F)cc1-c1ccnc2[nH]c(C3=CCN([C@H]4CC[C@H](CC(=O)O)CC4)CC3)cc12

>  <Name>  (858) 
nan

>  <Pocket>  (858) 
nan

>  <ATP_Site>  (858) 
nan

>  <Peripheral>  (858) 
nan

>  <Num_H_Atoms_ProtBoundConf>  (858) 
nan

>  <Num_Resolved_Atoms>  (858) 
nan

>  <Num_Not_Resolved_Atoms>  (858) 
nan

$$$$
CHEMBL3668553
     RDKit          3D

  0  0  0  0  0  0  0  0  0  0999 V3000
M  V30 BEGIN CTAB
M  V30 COUNTS 64 68 0 0 0
M  V30 BEGIN ATOM
M  V30 1 C 4.144318 -2.526317 1.472627 0
M  V30 2 O 3.837962 -1.141330 1.352969 0
M  V30 3 C 3.787050 -0.414496 2.536933 0
M  V30 4 C 4.000231 -0.887727 3.811433 0
M  V30 5 C 3.920775 -0.062186 4.911252 0
M  V30 6 C 3.620948 1.266246 4.727312 0
M  V30 7 F 3.551385 2.048476 5.831013 0
M  V30 8 C 3.404792 1.749621 3.443803 0
M  V30 9 C 3.485781 0.910191 2.327323 0
M  V30 10 C 3.221571 1.645797 1.108066 0
M  V30 11 C 4.282600 2.229206 0.457353 0
M  V30 12 C 4.121014 2.949422 -0.710237 0
M  V30 13 N 2.874442 3.076800 -1.218163 0
M  V30 14 C 1.829346 2.512012 -0.592647 0
M  V30 15 N 0.511963 2.490763 -0.885148 0
M  V30 16 C -0.175634 1.793907 0.035705 0
M  V30 17 C -1.630852 1.547888 0.063925 0
M  V30 18 C -2.171024 0.831779 1.043906 0
M  V30 19 C -3.660757 0.726904 0.845320 0
M  V30 20 N -3.863336 0.170011 -0.473749 0
M  V30 21 C -3.134581 -1.013979 -0.745193 0 CFG=1
M  V30 22 C -3.548599 -2.092269 0.232223 0
M  V30 23 C -2.509932 -3.184538 0.183583 0
M  V30 24 C -2.251101 -3.559720 -1.240835 0 CFG=1
M  V30 25 C -2.092441 -5.065348 -1.327487 0
M  V30 26 C -0.954629 -5.459105 -0.476964 0
M  V30 27 O -0.228233 -4.670796 0.213419 0
M  V30 28 O -0.563062 -6.768604 -0.350558 0
M  V30 29 C -3.359796 -3.072444 -2.141342 0
M  V30 30 C -3.286730 -1.559645 -2.122733 0
M  V30 31 C -3.631450 1.246783 -1.409754 0
M  V30 32 C -2.470654 2.117076 -1.023332 0
M  V30 33 C 0.717007 1.324134 0.991709 0
M  V30 34 C 1.946872 1.783725 0.576525 0
M  V30 35 H 4.107373 -3.008760 0.485728 0
M  V30 36 H 3.400356 -3.047079 2.135675 0
M  V30 37 H 5.132989 -2.681201 1.963792 0
M  V30 38 H 4.231820 -1.941154 3.885853 0
M  V30 39 H 4.088713 -0.440954 5.901586 0
M  V30 40 H 3.174721 2.824842 3.434785 0
M  V30 41 H 5.305123 2.155425 0.826095 0
M  V30 42 H 4.905979 3.437799 -1.280774 0
M  V30 43 H 0.121348 2.967594 -1.728127 0
M  V30 44 H -1.511193 0.434183 1.820543 0
M  V30 45 H -4.035667 1.790743 0.824071 0
M  V30 46 H -4.168035 0.201703 1.656306 0
M  V30 47 H -2.050587 -0.799513 -0.539018 0
M  V30 48 H -3.646856 -1.715006 1.274351 0
M  V30 49 H -4.523646 -2.538837 -0.069716 0
M  V30 50 H -1.582882 -2.802781 0.663358 0
M  V30 51 H -2.806891 -4.072175 0.779695 0
M  V30 52 H -1.299894 -3.081244 -1.556333 0
M  V30 53 H -3.035397 -5.546101 -0.972416 0
M  V30 54 H -1.898267 -5.316663 -2.377083 0
M  V30 55 H -0.195619 -7.128910 0.512100 0
M  V30 56 H -3.132593 -3.356676 -3.207497 0
M  V30 57 H -4.340948 -3.462111 -1.872375 0
M  V30 58 H -2.385681 -1.285233 -2.710342 0
M  V30 59 H -4.138220 -1.140773 -2.688823 0
M  V30 60 H -3.616442 0.896779 -2.461613 0
M  V30 61 H -4.550176 1.900735 -1.334924 0
M  V30 62 H -1.819403 2.362760 -1.906419 0
M  V30 63 H -2.789617 3.135024 -0.651968 0
M  V30 64 H 0.544810 0.729967 1.878947 0
M  V30 END ATOM
M  V30 BEGIN BOND
M  V30 1 1 1 2
M  V30 2 1 2 3
M  V30 3 2 3 4
M  V30 4 1 4 5
M  V30 5 2 5 6
M  V30 6 1 6 7
M  V30 7 1 6 8
M  V30 8 2 8 9
M  V30 9 1 9 10
M  V30 10 2 10 11
M  V30 11 1 11 12
M  V30 12 2 12 13
M  V30 13 1 13 14
M  V30 14 1 14 15
M  V30 15 1 15 16
M  V30 16 1 16 17
M  V30 17 2 17 18
M  V30 18 1 18 19
M  V30 19 1 19 20
M  V30 20 1 20 21
M  V30 21 1 21 22
M  V30 22 1 22 23
M  V30 23 1 23 24
M  V30 24 1 24 25
M  V30 25 1 25 26
M  V30 26 2 26 27
M  V30 27 1 26 28
M  V30 28 1 24 29
M  V30 29 1 29 30
M  V30 30 1 20 31
M  V30 31 1 31 32
M  V30 32 2 16 33
M  V30 33 1 33 34
M  V30 34 1 9 3
M  V30 35 1 34 10
M  V30 36 2 34 14
M  V30 37 1 32 17
M  V30 38 1 30 21
M  V30 39 1 1 35
M  V30 40 1 1 36
M  V30 41 1 1 37
M  V30 42 1 4 38
M  V30 43 1 5 39
M  V30 44 1 8 40
M  V30 45 1 11 41
M  V30 46 1 12 42
M  V30 47 1 15 43
M  V30 48 1 18 44
M  V30 49 1 19 45
M  V30 50 1 19 46
M  V30 51 1 21 47 CFG=1
M  V30 52 1 22 48
M  V30 53 1 22 49
M  V30 54 1 23 50
M  V30 55 1 23 51
M  V30 56 1 24 52 CFG=3
M  V30 57 1 25 53
M  V30 58 1 25 54
M  V30 59 1 28 55
M  V30 60 1 29 56
M  V30 61 1 29 57
M  V30 62 1 30 58
M  V30 63 1 30 59
M  V30 64 1 31 60
M  V30 65 1 31 61
M  V30 66 1 32 62
M  V30 67 1 32 63
M  V30 68 1 33 64
M  V30 END BOND
M  V30 END CTAB
M  END
>  <Dataset>  (859) 
ChEMBL_Kinases

>  <Ligand_Instance>  (859) 
nan

>  <PDB_ID>  (859) 
nan

>  <Standardized_SMILES>  (859) 
COc1ccc(F)cc1-c1ccnc2[nH]c(C3=CCN([C@H]4CC[C@@H](CC(=O)O)CC4)CC3)cc12

>  <Name>  (859) 
nan

>  <Pocket>  (859) 
nan

>  <ATP_Site>  (859) 
nan

>  <Peripheral>  (859) 
nan

>  <Num_H_Atoms_ProtBoundConf>  (859) 
nan

>  <Num_Resolved_Atoms>  (859) 
nan

>  <Num_Not_Resolved_Atoms>  (859) 
nan

$$$$
CHEMBL3668552
     RDKit          3D

  0  0  0  0  0  0  0  0  0  0999 V3000
M  V30 BEGIN CTAB
M  V30 COUNTS 59 63 0 0 0
M  V30 BEGIN ATOM
M  V30 1 C 5.813996 -0.416914 1.390113 0
M  V30 2 O 4.654670 0.359642 1.622842 0
M  V30 3 C 3.703975 0.012179 2.579774 0
M  V30 4 C 3.737832 -1.086848 3.411892 0
M  V30 5 C 2.719413 -1.312848 4.323249 0
M  V30 6 C 1.636428 -0.433520 4.420101 0
M  V30 7 F 0.661541 -0.689919 5.326069 0
M  V30 8 C 1.629840 0.673031 3.562412 0
M  V30 9 C 2.649918 0.897901 2.650421 0
M  V30 10 C 2.389509 2.108310 1.893108 0
M  V30 11 C 2.781653 3.395323 2.208165 0
M  V30 12 F 3.490666 3.528066 3.354618 0
M  V30 13 C 2.415875 4.402975 1.336413 0
M  V30 14 N 1.705814 4.150299 0.222664 0
M  V30 15 C 1.305027 2.908578 -0.118913 0
M  V30 16 N 0.599490 2.445049 -1.172308 0
M  V30 17 C 0.465690 1.113742 -1.048445 0
M  V30 18 C -0.203396 0.142400 -1.904882 0
M  V30 19 C -0.317168 -1.187670 -1.757942 0
M  V30 20 C -1.091772 -1.753561 -2.889701 0
M  V30 21 C -2.179142 -2.701430 -2.430902 0
M  V30 22 N -3.101657 -1.893095 -1.696652 0
M  V30 23 C -2.976109 -2.200416 -0.288775 0
M  V30 24 C -3.462065 -3.565759 -0.014274 0
M  V30 25 O -3.932178 -4.404474 -0.830970 0
M  V30 26 N -3.467592 -4.149168 1.261270 0
M  V30 27 C -3.983219 -5.513332 1.386559 0
M  V30 28 C -2.990404 -3.473905 2.466808 0
M  V30 29 C -2.862324 -0.521489 -2.031355 0
M  V30 30 C -1.951177 -0.530832 -3.246004 0
M  V30 31 C -0.914306 0.545174 -3.172278 0
M  V30 32 C 1.106542 0.744062 0.115077 0
M  V30 33 C 1.657067 1.866708 0.738902 0
M  V30 34 H 6.605105 0.240482 0.967688 0
M  V30 35 H 5.560653 -1.202622 0.625641 0
M  V30 36 H 6.170376 -0.913361 2.326201 0
M  V30 37 H 4.588929 -1.740624 3.306538 0
M  V30 38 H 2.754811 -2.176413 4.971932 0
M  V30 39 H 0.732452 1.290241 3.730276 0
M  V30 40 H 2.741576 5.407358 1.615529 0
M  V30 41 H 0.201692 2.979111 -1.976128 0
M  V30 42 H 0.127684 -1.677458 -0.904948 0
M  V30 43 H -0.494428 -2.112245 -3.725981 0
M  V30 44 H -2.697414 -3.031758 -3.355994 0
M  V30 45 H -1.813163 -3.599440 -1.929243 0
M  V30 46 H -2.002402 -1.980581 0.149008 0
M  V30 47 H -3.709001 -1.509479 0.221884 0
M  V30 48 H -5.083872 -5.455339 1.596473 0
M  V30 49 H -3.545421 -6.064687 2.232721 0
M  V30 50 H -3.860189 -6.046486 0.408808 0
M  V30 51 H -2.868716 -4.225535 3.285465 0
M  V30 52 H -1.974754 -3.054086 2.225137 0
M  V30 53 H -3.638940 -2.654778 2.777224 0
M  V30 54 H -2.237372 -0.080107 -1.211317 0
M  V30 55 H -3.770277 0.066981 -2.192571 0
M  V30 56 H -2.461943 -0.648362 -4.195278 0
M  V30 57 H -0.222374 0.421959 -4.024998 0
M  V30 58 H -1.314957 1.571199 -3.099743 0
M  V30 59 H 1.188379 -0.277168 0.518166 0
M  V30 END ATOM
M  V30 BEGIN BOND
M  V30 1 1 1 2
M  V30 2 1 2 3
M  V30 3 2 3 4
M  V30 4 1 4 5
M  V30 5 2 5 6
M  V30 6 1 6 7
M  V30 7 1 6 8
M  V30 8 2 8 9
M  V30 9 1 9 10
M  V30 10 2 10 11
M  V30 11 1 11 12
M  V30 12 1 11 13
M  V30 13 2 13 14
M  V30 14 1 14 15
M  V30 15 1 15 16
M  V30 16 1 16 17
M  V30 17 1 17 18
M  V30 18 2 18 19
M  V30 19 1 19 20
M  V30 20 1 20 21
M  V30 21 1 21 22
M  V30 22 1 22 23
M  V30 23 1 23 24
M  V30 24 2 24 25
M  V30 25 1 24 26
M  V30 26 1 26 27
M  V30 27 1 26 28
M  V30 28 1 22 29
M  V30 29 1 29 30
M  V30 30 1 30 31
M  V30 31 2 17 32
M  V30 32 1 32 33
M  V30 33 1 9 3
M  V30 34 1 33 10
M  V30 35 2 33 15
M  V30 36 1 31 18
M  V30 37 1 30 20
M  V30 38 1 1 34
M  V30 39 1 1 35
M  V30 40 1 1 36
M  V30 41 1 4 37
M  V30 42 1 5 38
M  V30 43 1 8 39
M  V30 44 1 13 40
M  V30 45 1 16 41
M  V30 46 1 19 42
M  V30 47 1 20 43
M  V30 48 1 21 44
M  V30 49 1 21 45
M  V30 50 1 23 46
M  V30 51 1 23 47
M  V30 52 1 27 48
M  V30 53 1 27 49
M  V30 54 1 27 50
M  V30 55 1 28 51
M  V30 56 1 28 52
M  V30 57 1 28 53
M  V30 58 1 29 54
M  V30 59 1 29 55
M  V30 60 1 30 56
M  V30 61 1 31 57
M  V30 62 1 31 58
M  V30 63 1 32 59
M  V30 END BOND
M  V30 END CTAB
M  END
>  <Dataset>  (860) 
ChEMBL_Kinases

>  <Ligand_Instance>  (860) 
nan

>  <PDB_ID>  (860) 
nan

>  <Standardized_SMILES>  (860) 
COc1ccc(F)cc1-c1c(F)cnc2[nH]c(C3=CC4CN(CC(=O)N(C)C)CC4C3)cc12

>  <Name>  (860) 
nan

>  <Pocket>  (860) 
nan

>  <ATP_Site>  (860) 
nan

>  <Peripheral>  (860) 
nan

>  <Num_H_Atoms_ProtBoundConf>  (860) 
nan

>  <Num_Resolved_Atoms>  (860) 
nan

>  <Num_Not_Resolved_Atoms>  (860) 
nan

$$$$
CHEMBL3668551
     RDKit          3D

  0  0  0  0  0  0  0  0  0  0999 V3000
M  V30 BEGIN CTAB
M  V30 COUNTS 53 57 0 0 0
M  V30 BEGIN ATOM
M  V30 1 C 3.267874 -3.714293 7.218510 0
M  V30 2 N 2.863571 -3.343741 5.858544 0
M  V30 3 C 2.467756 -4.314517 4.902987 0
M  V30 4 O 2.518168 -5.494729 5.392169 0
M  V30 5 N 2.087250 -3.880826 3.599137 0
M  V30 6 C 2.017250 -2.534129 3.002142 0
M  V30 7 C 0.547919 -2.558232 2.627410 0
M  V30 8 C 0.170906 -1.585680 1.598467 0
M  V30 9 C 0.179121 -2.163732 0.410746 0
M  V30 10 C -0.153757 -1.453728 -0.820817 0
M  V30 11 C -0.510246 -0.120525 -0.895013 0
M  V30 12 C -0.757778 0.214938 -2.229059 0
M  V30 13 C -1.138091 1.382832 -2.861042 0
M  V30 14 C -1.357470 2.599471 -2.045500 0
M  V30 15 C -0.200574 3.335517 -1.915018 0
M  V30 16 C -0.257101 4.515569 -1.167915 0
M  V30 17 F 0.858721 5.280725 -1.007814 0
M  V30 18 C -1.458309 4.898723 -0.592439 0
M  V30 19 C -2.593428 4.129698 -0.749485 0
M  V30 20 C -2.564111 2.963880 -1.480108 0
M  V30 21 O -3.615620 2.090987 -1.725042 0
M  V30 22 C -4.884449 2.387204 -1.184402 0
M  V30 23 C -1.289652 1.333296 -4.231843 0
M  V30 24 F -1.663471 2.490583 -4.832771 0
M  V30 25 C -1.064074 0.154110 -4.914037 0
M  V30 26 N -0.689119 -0.982410 -4.258531 0
M  V30 27 C -0.533562 -0.962634 -2.919075 0
M  V30 28 N -0.172655 -1.955671 -2.068929 0
M  V30 29 C 0.565158 -3.595176 0.517456 0
M  V30 30 C 0.449441 -3.931398 1.981545 0
M  V30 31 C 1.653940 -4.714640 2.488708 0
M  V30 32 H 3.688100 -2.809119 7.702874 0
M  V30 33 H 2.350466 -3.955700 7.829003 0
M  V30 34 H 4.018727 -4.508938 7.249047 0
M  V30 35 H 2.860634 -2.322777 5.561652 0
M  V30 36 H 2.647721 -2.555422 2.099883 0
M  V30 37 H 2.219958 -1.737307 3.715495 0
M  V30 38 H -0.061604 -2.524842 3.543569 0
M  V30 39 H -0.050771 -0.581013 1.934012 0
M  V30 40 H -0.601237 0.604501 -0.077946 0
M  V30 41 H 0.755016 3.098194 -2.331018 0
M  V30 42 H -1.495337 5.801834 -0.022418 0
M  V30 43 H -3.555100 4.382288 -0.322320 0
M  V30 44 H -5.151652 3.446910 -1.181575 0
M  V30 45 H -5.670015 1.780982 -1.718736 0
M  V30 46 H -4.862993 2.051103 -0.108922 0
M  V30 47 H -1.202996 0.191474 -5.990671 0
M  V30 48 H 0.047465 -2.939572 -2.372248 0
M  V30 49 H -0.076335 -4.252427 -0.111883 0
M  V30 50 H 1.643495 -3.685489 0.226874 0
M  V30 51 H -0.501189 -4.443940 2.225371 0
M  V30 52 H 2.455064 -4.787795 1.710794 0
M  V30 53 H 1.385038 -5.738397 2.807780 0
M  V30 END ATOM
M  V30 BEGIN BOND
M  V30 1 1 1 2
M  V30 2 1 2 3
M  V30 3 2 3 4
M  V30 4 1 3 5
M  V30 5 1 5 6
M  V30 6 1 6 7
M  V30 7 1 7 8
M  V30 8 2 8 9
M  V30 9 1 9 10
M  V30 10 2 10 11
M  V30 11 1 11 12
M  V30 12 2 12 13
M  V30 13 1 13 14
M  V30 14 2 14 15
M  V30 15 1 15 16
M  V30 16 1 16 17
M  V30 17 2 16 18
M  V30 18 1 18 19
M  V30 19 2 19 20
M  V30 20 1 20 21
M  V30 21 1 21 22
M  V30 22 1 13 23
M  V30 23 1 23 24
M  V30 24 2 23 25
M  V30 25 1 25 26
M  V30 26 2 26 27
M  V30 27 1 27 28
M  V30 28 1 9 29
M  V30 29 1 29 30
M  V30 30 1 30 31
M  V30 31 1 31 5
M  V30 32 1 30 7
M  V30 33 1 28 10
M  V30 34 1 27 12
M  V30 35 1 20 14
M  V30 36 1 1 32
M  V30 37 1 1 33
M  V30 38 1 1 34
M  V30 39 1 2 35
M  V30 40 1 6 36
M  V30 41 1 6 37
M  V30 42 1 7 38
M  V30 43 1 8 39
M  V30 44 1 11 40
M  V30 45 1 15 41
M  V30 46 1 18 42
M  V30 47 1 19 43
M  V30 48 1 22 44
M  V30 49 1 22 45
M  V30 50 1 22 46
M  V30 51 1 25 47
M  V30 52 1 28 48
M  V30 53 1 29 49
M  V30 54 1 29 50
M  V30 55 1 30 51
M  V30 56 1 31 52
M  V30 57 1 31 53
M  V30 END BOND
M  V30 END CTAB
M  END
>  <Dataset>  (861) 
ChEMBL_Kinases

>  <Ligand_Instance>  (861) 
nan

>  <PDB_ID>  (861) 
nan

>  <Standardized_SMILES>  (861) 
CNC(=O)N1CC2C=C(c3cc4c(-c5cc(F)ccc5OC)c(F)cnc4[nH]3)CC2C1

>  <Name>  (861) 
nan

>  <Pocket>  (861) 
nan

>  <ATP_Site>  (861) 
nan

>  <Peripheral>  (861) 
nan

>  <Num_H_Atoms_ProtBoundConf>  (861) 
nan

>  <Num_Resolved_Atoms>  (861) 
nan

>  <Num_Not_Resolved_Atoms>  (861) 
nan

$$$$
CHEMBL3668550
     RDKit          3D

  0  0  0  0  0  0  0  0  0  0999 V3000
M  V30 BEGIN CTAB
M  V30 COUNTS 53 57 0 0 0
M  V30 BEGIN ATOM
M  V30 1 C 0.961071 -5.487075 7.341198 0
M  V30 2 N 0.797923 -4.542671 6.225386 0
M  V30 3 C 1.428147 -4.846403 4.973775 0
M  V30 4 O 2.101562 -5.905841 4.858546 0
M  V30 5 N 1.227867 -3.888158 3.938415 0
M  V30 6 C 0.484020 -2.637519 3.932063 0
M  V30 7 C -0.228268 -2.746742 2.580090 0 CFG=1
M  V30 8 C 0.019672 -1.510368 1.742871 0
M  V30 9 C 0.271015 -2.101455 0.402119 0
M  V30 10 C 0.261371 -1.312517 -0.848642 0
M  V30 11 C 0.029341 0.043626 -0.989191 0
M  V30 12 C 0.106284 0.406101 -2.322559 0
M  V30 13 C -0.051585 1.633122 -2.935211 0
M  V30 14 C -0.355459 2.826051 -2.128458 0
M  V30 15 C 0.680837 3.606344 -1.619747 0
M  V30 16 C 0.361247 4.727409 -0.861101 0
M  V30 17 F 1.340572 5.510982 -0.349309 0
M  V30 18 C -0.955062 5.019454 -0.644535 0
M  V30 19 C -2.005158 4.249418 -1.146136 0
M  V30 20 C -1.690930 3.150234 -1.889989 0
M  V30 21 O -2.655964 2.329857 -2.426744 0
M  V30 22 C -4.017131 2.620590 -2.210363 0
M  V30 23 C 0.085839 1.695869 -4.323213 0
M  V30 24 C 0.371162 0.507682 -4.964985 0
M  V30 25 N 0.519208 -0.673991 -4.337792 0
M  V30 26 C 0.393466 -0.778440 -2.987869 0
M  V30 27 N 0.479777 -1.779087 -2.092506 0
M  V30 28 C 0.501014 -3.399966 0.463021 0
M  V30 29 C 0.442014 -3.885684 1.839241 0 CFG=1
M  V30 30 C 1.762883 -3.958000 2.562964 0
M  V30 31 H 0.816861 -6.501006 6.909669 0
M  V30 32 H 0.071336 -5.333100 8.012894 0
M  V30 33 H 1.881426 -5.342000 7.903759 0
M  V30 34 H 0.223816 -3.662037 6.361161 0
M  V30 35 H -0.290434 -2.572784 4.705364 0
M  V30 36 H 1.157454 -1.757496 3.917338 0
M  V30 37 H -1.303684 -2.973310 2.719208 0
M  V30 38 H 0.914388 -0.959749 2.118181 0
M  V30 39 H -0.902346 -0.892718 1.786071 0
M  V30 40 H -0.179888 0.702332 -0.157319 0
M  V30 41 H 1.706814 3.363349 -1.798882 0
M  V30 42 H -1.264501 5.883559 -0.058809 0
M  V30 43 H -3.027952 4.519273 -0.948999 0
M  V30 44 H -4.276879 3.688451 -2.345066 0
M  V30 45 H -4.674301 1.995116 -2.873745 0
M  V30 46 H -4.345152 2.382032 -1.165984 0
M  V30 47 H -0.029802 2.629236 -4.830662 0
M  V30 48 H 0.476574 0.567267 -6.049131 0
M  V30 49 H 0.686909 -2.780424 -2.322680 0
M  V30 50 H 0.710790 -4.044289 -0.399333 0
M  V30 51 H -0.102345 -4.836654 1.970802 0
M  V30 52 H 2.296145 -4.901115 2.461156 0
M  V30 53 H 2.374104 -3.060740 2.371270 0
M  V30 END ATOM
M  V30 BEGIN BOND
M  V30 1 1 1 2
M  V30 2 1 2 3
M  V30 3 2 3 4
M  V30 4 1 3 5
M  V30 5 1 5 6
M  V30 6 1 6 7
M  V30 7 1 7 8
M  V30 8 1 8 9
M  V30 9 1 9 10
M  V30 10 2 10 11
M  V30 11 1 11 12
M  V30 12 2 12 13
M  V30 13 1 13 14
M  V30 14 2 14 15
M  V30 15 1 15 16
M  V30 16 1 16 17
M  V30 17 2 16 18
M  V30 18 1 18 19
M  V30 19 2 19 20
M  V30 20 1 20 21
M  V30 21 1 21 22
M  V30 22 1 13 23
M  V30 23 2 23 24
M  V30 24 1 24 25
M  V30 25 2 25 26
M  V30 26 1 26 27
M  V30 27 2 9 28
M  V30 28 1 28 29
M  V30 29 1 29 30
M  V30 30 1 30 5
M  V30 31 1 29 7
M  V30 32 1 27 10
M  V30 33 1 26 12
M  V30 34 1 20 14
M  V30 35 1 1 31
M  V30 36 1 1 32
M  V30 37 1 1 33
M  V30 38 1 2 34
M  V30 39 1 6 35
M  V30 40 1 6 36
M  V30 41 1 7 37 CFG=1
M  V30 42 1 8 38
M  V30 43 1 8 39
M  V30 44 1 11 40
M  V30 45 1 15 41
M  V30 46 1 18 42
M  V30 47 1 19 43
M  V30 48 1 22 44
M  V30 49 1 22 45
M  V30 50 1 22 46
M  V30 51 1 23 47
M  V30 52 1 24 48
M  V30 53 1 27 49
M  V30 54 1 28 50
M  V30 55 1 29 51 CFG=3
M  V30 56 1 30 52
M  V30 57 1 30 53
M  V30 END BOND
M  V30 END CTAB
M  END
>  <Dataset>  (862) 
ChEMBL_Kinases

>  <Ligand_Instance>  (862) 
nan

>  <PDB_ID>  (862) 
nan

>  <Standardized_SMILES>  (862) 
CNC(=O)N1C[C@H]2CC(c3cc4c(-c5cc(F)ccc5OC)ccnc4[nH]3)=C[C@H]2C1

>  <Name>  (862) 
nan

>  <Pocket>  (862) 
nan

>  <ATP_Site>  (862) 
nan

>  <Peripheral>  (862) 
nan

>  <Num_H_Atoms_ProtBoundConf>  (862) 
nan

>  <Num_Resolved_Atoms>  (862) 
nan

>  <Num_Not_Resolved_Atoms>  (862) 
nan

$$$$
CHEMBL3668549
     RDKit          3D

  0  0  0  0  0  0  0  0  0  0999 V3000
M  V30 BEGIN CTAB
M  V30 COUNTS 53 57 0 0 0
M  V30 BEGIN ATOM
M  V30 1 C -2.880783 -5.415407 4.518642 0
M  V30 2 N -1.747225 -4.644826 4.046915 0
M  V30 3 C -0.461909 -5.133906 3.666372 0
M  V30 4 O -0.369733 -6.395788 3.778018 0
M  V30 5 N 0.517974 -4.199641 3.228227 0
M  V30 6 C 0.418454 -2.760992 3.099047 0
M  V30 7 C 1.835010 -2.306166 3.025421 0 CFG=2
M  V30 8 C 1.977207 -1.133788 2.054481 0
M  V30 9 C 1.661821 -1.817020 0.770369 0
M  V30 10 C 1.103415 -1.147463 -0.414868 0
M  V30 11 C 0.777538 0.207601 -0.548171 0
M  V30 12 C 0.275977 0.420486 -1.837697 0
M  V30 13 C -0.195773 1.517303 -2.531446 0
M  V30 14 C -0.198709 2.785515 -1.805364 0
M  V30 15 C 0.923856 3.587054 -1.877665 0
M  V30 16 C 0.893096 4.785819 -1.178118 0
M  V30 17 F 1.965058 5.631383 -1.201360 0
M  V30 18 C -0.246291 5.128255 -0.444162 0
M  V30 19 C -1.341938 4.310136 -0.394051 0
M  V30 20 C -1.340541 3.112428 -1.079123 0
M  V30 21 O -2.412747 2.235418 -1.073742 0
M  V30 22 C -3.564469 2.587470 -0.328456 0
M  V30 23 C -0.639642 1.414605 -3.841215 0
M  V30 24 C -0.583634 0.155210 -4.412678 0
M  V30 25 N -0.118376 -0.907012 -3.717186 0
M  V30 26 C 0.315797 -0.821833 -2.444877 0
M  V30 27 N 0.810240 -1.742648 -1.585312 0
M  V30 28 C 1.958839 -3.104539 0.861413 0
M  V30 29 C 2.493783 -3.402035 2.196044 0 CFG=2
M  V30 30 C 1.862706 -4.626315 2.820477 0
M  V30 31 H -2.836877 -6.485004 4.259851 0
M  V30 32 H -3.804216 -4.982376 4.035384 0
M  V30 33 H -2.999300 -5.240280 5.607836 0
M  V30 34 H -1.911778 -3.596201 3.983974 0
M  V30 35 H -0.085200 -2.554958 2.133915 0
M  V30 36 H -0.152579 -2.301696 3.926217 0
M  V30 37 H 2.325603 -2.124386 3.985230 0
M  V30 38 H 1.211774 -0.400572 2.361152 0
M  V30 39 H 3.005629 -0.746907 2.105989 0
M  V30 40 H 0.888416 0.971154 0.206261 0
M  V30 41 H 1.791631 3.294061 -2.455053 0
M  V30 42 H -0.309701 6.066957 0.122201 0
M  V30 43 H -2.215799 4.599293 0.184023 0
M  V30 44 H -3.878349 3.648228 -0.518612 0
M  V30 45 H -4.453425 1.980174 -0.639736 0
M  V30 46 H -3.381771 2.536010 0.765357 0
M  V30 47 H -1.009371 2.306078 -4.366493 0
M  V30 48 H -0.921095 0.033594 -5.433662 0
M  V30 49 H 0.916314 -2.737669 -1.862669 0
M  V30 50 H 1.849288 -3.876577 0.105710 0
M  V30 51 H 3.590309 -3.399246 2.272843 0
M  V30 52 H 2.413204 -4.820469 3.764826 0
M  V30 53 H 1.864356 -5.502497 2.173128 0
M  V30 END ATOM
M  V30 BEGIN BOND
M  V30 1 1 1 2
M  V30 2 1 2 3
M  V30 3 2 3 4
M  V30 4 1 3 5
M  V30 5 1 5 6
M  V30 6 1 6 7
M  V30 7 1 7 8
M  V30 8 1 8 9
M  V30 9 1 9 10
M  V30 10 2 10 11
M  V30 11 1 11 12
M  V30 12 2 12 13
M  V30 13 1 13 14
M  V30 14 2 14 15
M  V30 15 1 15 16
M  V30 16 1 16 17
M  V30 17 2 16 18
M  V30 18 1 18 19
M  V30 19 2 19 20
M  V30 20 1 20 21
M  V30 21 1 21 22
M  V30 22 1 13 23
M  V30 23 2 23 24
M  V30 24 1 24 25
M  V30 25 2 25 26
M  V30 26 1 26 27
M  V30 27 2 9 28
M  V30 28 1 28 29
M  V30 29 1 29 30
M  V30 30 1 30 5
M  V30 31 1 29 7
M  V30 32 1 27 10
M  V30 33 1 26 12
M  V30 34 1 20 14
M  V30 35 1 1 31
M  V30 36 1 1 32
M  V30 37 1 1 33
M  V30 38 1 2 34
M  V30 39 1 6 35
M  V30 40 1 6 36
M  V30 41 1 7 37 CFG=1
M  V30 42 1 8 38
M  V30 43 1 8 39
M  V30 44 1 11 40
M  V30 45 1 15 41
M  V30 46 1 18 42
M  V30 47 1 19 43
M  V30 48 1 22 44
M  V30 49 1 22 45
M  V30 50 1 22 46
M  V30 51 1 23 47
M  V30 52 1 24 48
M  V30 53 1 27 49
M  V30 54 1 28 50
M  V30 55 1 29 51 CFG=3
M  V30 56 1 30 52
M  V30 57 1 30 53
M  V30 END BOND
M  V30 END CTAB
M  END
>  <Dataset>  (863) 
ChEMBL_Kinases

>  <Ligand_Instance>  (863) 
nan

>  <PDB_ID>  (863) 
nan

>  <Standardized_SMILES>  (863) 
CNC(=O)N1C[C@@H]2CC(c3cc4c(-c5cc(F)ccc5OC)ccnc4[nH]3)=C[C@@H]2C1

>  <Name>  (863) 
nan

>  <Pocket>  (863) 
nan

>  <ATP_Site>  (863) 
nan

>  <Peripheral>  (863) 
nan

>  <Num_H_Atoms_ProtBoundConf>  (863) 
nan

>  <Num_Resolved_Atoms>  (863) 
nan

>  <Num_Not_Resolved_Atoms>  (863) 
nan

$$$$
CHEMBL3668548
     RDKit          3D

  0  0  0  0  0  0  0  0  0  0999 V3000
M  V30 BEGIN CTAB
M  V30 COUNTS 64 68 0 0 0
M  V30 BEGIN ATOM
M  V30 1 C 1.739429 1.272240 6.050233 0
M  V30 2 O 1.801643 1.747590 4.699139 0
M  V30 3 C 2.690768 1.222370 3.791758 0
M  V30 4 C 3.582207 0.203857 4.115151 0
M  V30 5 C 4.472617 -0.324929 3.213707 0
M  V30 6 C 4.429014 0.215600 1.967451 0
M  V30 7 F 5.298325 -0.278331 1.029171 0
M  V30 8 C 3.580296 1.231245 1.543725 0
M  V30 9 C 2.708533 1.721834 2.494672 0
M  V30 10 C 1.804890 2.792270 2.077269 0
M  V30 11 C 2.161451 4.116025 2.193578 0
M  V30 12 C 3.447157 4.442914 2.734090 0
M  V30 13 N 4.474598 4.718504 3.158882 0
M  V30 14 C 1.240626 5.051339 1.774487 0
M  V30 15 N 0.028189 4.773366 1.263567 0
M  V30 16 C -0.345295 3.487636 1.138837 0
M  V30 17 N -1.459294 2.842102 0.679226 0
M  V30 18 C -1.296116 1.508997 0.784874 0
M  V30 19 C -2.217859 0.441805 0.418714 0
M  V30 20 C -1.886872 -0.826023 0.593072 0
M  V30 21 C -2.821446 -1.890796 0.221420 0
M  V30 22 N -3.455307 -1.608375 -1.008382 0
M  V30 23 C -4.035431 -2.668006 -1.717969 0
M  V30 24 C -3.082538 -3.603558 -2.305053 0
M  V30 25 O -3.833132 -4.498632 -2.849626 0
M  V30 26 N -1.639137 -3.719652 -2.392523 0
M  V30 27 C -0.567739 -2.870993 -1.921284 0
M  V30 28 C 0.538892 -3.120826 -2.902846 0
M  V30 29 C 0.120854 -4.287344 -3.756755 0
M  V30 30 C -1.071233 -4.902269 -3.057884 0 CFG=1
M  V30 31 C -0.499782 -5.837415 -1.991725 0
M  V30 32 O -1.483330 -6.255093 -1.094929 0
M  V30 33 C -3.847303 -0.295133 -1.297354 0
M  V30 34 C -3.558781 0.685689 -0.161200 0
M  V30 35 C -0.044949 1.305998 1.325889 0
M  V30 36 C 0.556308 2.525838 1.550574 0
M  V30 37 H 1.509475 0.195624 6.086199 0
M  V30 38 H 0.992074 1.875094 6.576403 0
M  V30 39 H 2.741541 1.479040 6.494038 0
M  V30 40 H 3.535388 -0.156317 5.132348 0
M  V30 41 H 5.154467 -1.114340 3.492011 0
M  V30 42 H 3.616454 1.597089 0.534497 0
M  V30 43 H 1.542950 6.089510 1.875186 0
M  V30 44 H -2.310082 3.305931 0.302865 0
M  V30 45 H -0.938396 -1.127138 1.006310 0
M  V30 46 H -2.438429 -2.906048 0.239195 0
M  V30 47 H -3.637629 -1.863369 1.012006 0
M  V30 48 H -4.700471 -2.275267 -2.540509 0
M  V30 49 H -4.757035 -3.181439 -1.010888 0
M  V30 50 H -0.287656 -3.094297 -0.867337 0
M  V30 51 H -0.871426 -1.796635 -1.904972 0
M  V30 52 H 0.557926 -2.237742 -3.581390 0
M  V30 53 H 1.520757 -3.285367 -2.412473 0
M  V30 54 H -0.135154 -3.996610 -4.806291 0
M  V30 55 H 0.965532 -5.004648 -3.818195 0
M  V30 56 H -1.759314 -5.390385 -3.743531 0
M  V30 57 H -0.027125 -6.690506 -2.498170 0
M  V30 58 H 0.330983 -5.289597 -1.477701 0
M  V30 59 H -1.007173 -6.470663 -0.249134 0
M  V30 60 H -3.381465 0.057557 -2.232915 0
M  V30 61 H -4.951945 -0.266175 -1.461439 0
M  V30 62 H -4.301089 0.588854 0.646173 0
M  V30 63 H -3.671760 1.717686 -0.557923 0
M  V30 64 H 0.388816 0.334933 1.537396 0
M  V30 END ATOM
M  V30 BEGIN BOND
M  V30 1 1 1 2
M  V30 2 1 2 3
M  V30 3 2 3 4
M  V30 4 1 4 5
M  V30 5 2 5 6
M  V30 6 1 6 7
M  V30 7 1 6 8
M  V30 8 2 8 9
M  V30 9 1 9 10
M  V30 10 2 10 11
M  V30 11 1 11 12
M  V30 12 3 12 13
M  V30 13 1 11 14
M  V30 14 2 14 15
M  V30 15 1 15 16
M  V30 16 1 16 17
M  V30 17 1 17 18
M  V30 18 1 18 19
M  V30 19 2 19 20
M  V30 20 1 20 21
M  V30 21 1 21 22
M  V30 22 1 22 23
M  V30 23 1 23 24
M  V30 24 2 24 25
M  V30 25 1 24 26
M  V30 26 1 26 27
M  V30 27 1 27 28
M  V30 28 1 28 29
M  V30 29 1 29 30
M  V30 30 1 30 31
M  V30 31 1 31 32
M  V30 32 1 22 33
M  V30 33 1 33 34
M  V30 34 2 18 35
M  V30 35 1 35 36
M  V30 36 1 9 3
M  V30 37 1 36 10
M  V30 38 2 36 16
M  V30 39 1 34 19
M  V30 40 1 30 26
M  V30 41 1 1 37
M  V30 42 1 1 38
M  V30 43 1 1 39
M  V30 44 1 4 40
M  V30 45 1 5 41
M  V30 46 1 8 42
M  V30 47 1 14 43
M  V30 48 1 17 44
M  V30 49 1 20 45
M  V30 50 1 21 46
M  V30 51 1 21 47
M  V30 52 1 23 48
M  V30 53 1 23 49
M  V30 54 1 27 50
M  V30 55 1 27 51
M  V30 56 1 28 52
M  V30 57 1 28 53
M  V30 58 1 29 54
M  V30 59 1 29 55
M  V30 60 1 30 56 CFG=3
M  V30 61 1 31 57
M  V30 62 1 31 58
M  V30 63 1 32 59
M  V30 64 1 33 60
M  V30 65 1 33 61
M  V30 66 1 34 62
M  V30 67 1 34 63
M  V30 68 1 35 64
M  V30 END BOND
M  V30 END CTAB
M  END
>  <Dataset>  (864) 
ChEMBL_Kinases

>  <Ligand_Instance>  (864) 
nan

>  <PDB_ID>  (864) 
nan

>  <Standardized_SMILES>  (864) 
COc1ccc(F)cc1-c1c(C#N)cnc2[nH]c(C3=CCN(CC(=O)N4CCC[C@H]4CO)CC3)cc12

>  <Name>  (864) 
nan

>  <Pocket>  (864) 
nan

>  <ATP_Site>  (864) 
nan

>  <Peripheral>  (864) 
nan

>  <Num_H_Atoms_ProtBoundConf>  (864) 
nan

>  <Num_Resolved_Atoms>  (864) 
nan

>  <Num_Not_Resolved_Atoms>  (864) 
nan

$$$$
CHEMBL3668547
     RDKit          3D

  0  0  0  0  0  0  0  0  0  0999 V3000
M  V30 BEGIN CTAB
M  V30 COUNTS 52 56 0 0 0
M  V30 BEGIN ATOM
M  V30 1 C 4.949094 0.695913 3.650181 0
M  V30 2 O 4.054648 1.251441 2.735797 0
M  V30 3 C 4.270914 1.322680 1.352751 0
M  V30 4 C 5.417893 0.838421 0.745288 0
M  V30 5 C 5.640488 0.902639 -0.607182 0
M  V30 6 C 4.681289 1.477061 -1.421503 0
M  V30 7 F 4.896305 1.543730 -2.764158 0
M  V30 8 C 3.520003 1.973686 -0.855828 0
M  V30 9 C 3.329457 1.892237 0.508534 0
M  V30 10 C 2.077182 2.438017 1.039315 0
M  V30 11 C 2.042688 3.765772 1.417060 0
M  V30 12 F 3.131913 4.556254 1.305332 0
M  V30 13 C 0.889760 4.320435 1.920183 0
M  V30 14 N -0.217919 3.538252 2.039784 0
M  V30 15 C -0.170730 2.242120 1.666937 0
M  V30 16 N -1.103937 1.280840 1.684090 0
M  V30 17 C -0.629272 0.121143 1.219331 0
M  V30 18 C -1.364122 -1.133490 1.095138 0
M  V30 19 C -0.892313 -2.281764 0.634421 0
M  V30 20 C -1.908312 -3.370504 0.641377 0
M  V30 21 C -2.609240 -3.422499 -0.695114 0
M  V30 22 N -4.015550 -3.420950 -0.453581 0
M  V30 23 S -4.851992 -4.752543 -1.141237 0
M  V30 24 C -4.729295 -4.814072 -2.888769 0
M  V30 25 O -6.301803 -4.643681 -0.763723 0
M  V30 26 O -4.351867 -6.075501 -0.604761 0
M  V30 27 C -4.249735 -3.271998 0.946693 0
M  V30 28 C -2.944458 -2.848307 1.578772 0
M  V30 29 C -2.786727 -1.342167 1.468921 0
M  V30 30 C 0.702654 0.303859 0.865881 0
M  V30 31 C 0.946992 1.630041 1.158608 0
M  V30 32 H 4.327769 0.244778 4.464074 0
M  V30 33 H 5.527503 -0.142680 3.215838 0
M  V30 34 H 5.584378 1.451189 4.154558 0
M  V30 35 H 6.190443 0.381218 1.358684 0
M  V30 36 H 6.568248 0.499700 -1.010928 0
M  V30 37 H 2.783570 2.419636 -1.519409 0
M  V30 38 H 0.894497 5.378490 2.211424 0
M  V30 39 H -2.104699 1.379368 2.014896 0
M  V30 40 H 0.114745 -2.468398 0.277393 0
M  V30 41 H -1.473419 -4.343500 0.942001 0
M  V30 42 H -2.283174 -4.323409 -1.278664 0
M  V30 43 H -2.362458 -2.497794 -1.258384 0
M  V30 44 H -4.648006 -3.789671 -3.321635 0
M  V30 45 H -5.668754 -5.246663 -3.291687 0
M  V30 46 H -3.923971 -5.486003 -3.265384 0
M  V30 47 H -4.991429 -2.469131 1.130088 0
M  V30 48 H -4.629216 -4.201624 1.420125 0
M  V30 49 H -2.861257 -3.205229 2.615527 0
M  V30 50 H -3.014377 -0.856842 2.460681 0
M  V30 51 H -3.498392 -0.924269 0.732324 0
M  V30 52 H 1.408330 -0.412775 0.453630 0
M  V30 END ATOM
M  V30 BEGIN BOND
M  V30 1 1 1 2
M  V30 2 1 2 3
M  V30 3 2 3 4
M  V30 4 1 4 5
M  V30 5 2 5 6
M  V30 6 1 6 7
M  V30 7 1 6 8
M  V30 8 2 8 9
M  V30 9 1 9 10
M  V30 10 2 10 11
M  V30 11 1 11 12
M  V30 12 1 11 13
M  V30 13 2 13 14
M  V30 14 1 14 15
M  V30 15 1 15 16
M  V30 16 1 16 17
M  V30 17 1 17 18
M  V30 18 2 18 19
M  V30 19 1 19 20
M  V30 20 1 20 21
M  V30 21 1 21 22
M  V30 22 1 22 23
M  V30 23 1 23 24
M  V30 24 2 23 25
M  V30 25 2 23 26
M  V30 26 1 22 27
M  V30 27 1 27 28
M  V30 28 1 28 29
M  V30 29 2 17 30
M  V30 30 1 30 31
M  V30 31 1 9 3
M  V30 32 1 31 10
M  V30 33 2 31 15
M  V30 34 1 29 18
M  V30 35 1 28 20
M  V30 36 1 1 32
M  V30 37 1 1 33
M  V30 38 1 1 34
M  V30 39 1 4 35
M  V30 40 1 5 36
M  V30 41 1 8 37
M  V30 42 1 13 38
M  V30 43 1 16 39
M  V30 44 1 19 40
M  V30 45 1 20 41
M  V30 46 1 21 42
M  V30 47 1 21 43
M  V30 48 1 24 44
M  V30 49 1 24 45
M  V30 50 1 24 46
M  V30 51 1 27 47
M  V30 52 1 27 48
M  V30 53 1 28 49
M  V30 54 1 29 50
M  V30 55 1 29 51
M  V30 56 1 30 52
M  V30 END BOND
M  V30 END CTAB
M  END
>  <Dataset>  (865) 
ChEMBL_Kinases

>  <Ligand_Instance>  (865) 
nan

>  <PDB_ID>  (865) 
nan

>  <Standardized_SMILES>  (865) 
COc1ccc(F)cc1-c1c(F)cnc2[nH]c(C3=CC4CN(S(C)(=O)=O)CC4C3)cc12

>  <Name>  (865) 
nan

>  <Pocket>  (865) 
nan

>  <ATP_Site>  (865) 
nan

>  <Peripheral>  (865) 
nan

>  <Num_H_Atoms_ProtBoundConf>  (865) 
nan

>  <Num_Resolved_Atoms>  (865) 
nan

>  <Num_Not_Resolved_Atoms>  (865) 
nan

$$$$
CHEMBL3668546
     RDKit          3D

  0  0  0  0  0  0  0  0  0  0999 V3000
M  V30 BEGIN CTAB
M  V30 COUNTS 52 56 0 0 0
M  V30 BEGIN ATOM
M  V30 1 C -0.332098 2.051904 4.664697 0
M  V30 2 O 0.570662 2.173953 3.566712 0
M  V30 3 C 1.842765 1.667393 3.576398 0
M  V30 4 C 2.252344 1.004003 4.727419 0
M  V30 5 C 3.527843 0.465759 4.806715 0
M  V30 6 C 4.365848 0.609221 3.718260 0
M  V30 7 F 5.620081 0.081217 3.793314 0
M  V30 8 C 4.003884 1.257844 2.557982 0
M  V30 9 C 2.727585 1.787106 2.500018 0
M  V30 10 C 2.196845 2.508531 1.325550 0
M  V30 11 C 2.284507 3.860375 1.100132 0
M  V30 12 C 1.719538 4.357764 -0.072966 0
M  V30 13 N 1.105401 3.562178 -0.967172 0
M  V30 14 C 0.989551 2.228504 -0.798391 0
M  V30 15 N 0.450450 1.204031 -1.490365 0
M  V30 16 C 0.617225 0.040040 -0.854060 0
M  V30 17 C 0.177106 -1.288539 -1.278667 0
M  V30 18 C -0.474944 -1.538460 -2.397677 0
M  V30 19 C -0.767703 -2.990638 -2.518047 0
M  V30 20 C -2.224992 -3.256074 -2.828611 0
M  V30 21 N -2.801081 -3.734566 -1.586619 0
M  V30 22 C -4.074974 -4.327895 -1.480504 0
M  V30 23 O -4.822663 -4.487427 -2.490282 0
M  V30 24 C -4.629569 -4.805592 -0.187953 0
M  V30 25 C -5.955082 -5.362137 -0.422861 0
M  V30 26 N -7.023385 -5.815543 -0.597995 0
M  V30 27 C -1.898599 -3.523516 -0.472790 0
M  V30 28 C -0.558516 -3.511288 -1.136708 0
M  V30 29 C 0.406173 -2.537497 -0.504416 0
M  V30 30 C 1.300798 0.366219 0.300731 0
M  V30 31 C 1.553982 1.727204 0.374847 0
M  V30 32 H -1.309017 2.452527 4.326354 0
M  V30 33 H -0.488207 0.992744 4.959558 0
M  V30 34 H -0.004905 2.668433 5.527170 0
M  V30 35 H 1.594815 0.887084 5.591392 0
M  V30 36 H 3.882322 -0.057832 5.686888 0
M  V30 37 H 4.646890 1.379284 1.696704 0
M  V30 38 H 2.785999 4.432377 1.852455 0
M  V30 39 H 1.817173 5.422163 -0.198174 0
M  V30 40 H -0.031136 1.334134 -2.406509 0
M  V30 41 H -0.777208 -0.814629 -3.155789 0
M  V30 42 H -0.079946 -3.501740 -3.220169 0
M  V30 43 H -2.694179 -2.270018 -3.079125 0
M  V30 44 H -2.329895 -3.979513 -3.661703 0
M  V30 45 H -4.686799 -3.992720 0.563935 0
M  V30 46 H -3.985105 -5.590755 0.280911 0
M  V30 47 H -1.993676 -4.348763 0.283138 0
M  V30 48 H -2.162746 -2.548950 0.003221 0
M  V30 49 H -0.121215 -4.526919 -1.083136 0
M  V30 50 H 1.436803 -2.888886 -0.510690 0
M  V30 51 H 0.131668 -2.333751 0.569246 0
M  V30 52 H 1.583713 -0.384885 1.031322 0
M  V30 END ATOM
M  V30 BEGIN BOND
M  V30 1 1 1 2
M  V30 2 1 2 3
M  V30 3 2 3 4
M  V30 4 1 4 5
M  V30 5 2 5 6
M  V30 6 1 6 7
M  V30 7 1 6 8
M  V30 8 2 8 9
M  V30 9 1 9 10
M  V30 10 2 10 11
M  V30 11 1 11 12
M  V30 12 2 12 13
M  V30 13 1 13 14
M  V30 14 1 14 15
M  V30 15 1 15 16
M  V30 16 1 16 17
M  V30 17 2 17 18
M  V30 18 1 18 19
M  V30 19 1 19 20
M  V30 20 1 20 21
M  V30 21 1 21 22
M  V30 22 2 22 23
M  V30 23 1 22 24
M  V30 24 1 24 25
M  V30 25 3 25 26
M  V30 26 1 21 27
M  V30 27 1 27 28
M  V30 28 1 28 29
M  V30 29 2 16 30
M  V30 30 1 30 31
M  V30 31 1 9 3
M  V30 32 1 31 10
M  V30 33 2 31 14
M  V30 34 1 29 17
M  V30 35 1 28 19
M  V30 36 1 1 32
M  V30 37 1 1 33
M  V30 38 1 1 34
M  V30 39 1 4 35
M  V30 40 1 5 36
M  V30 41 1 8 37
M  V30 42 1 11 38
M  V30 43 1 12 39
M  V30 44 1 15 40
M  V30 45 1 18 41
M  V30 46 1 19 42
M  V30 47 1 20 43
M  V30 48 1 20 44
M  V30 49 1 24 45
M  V30 50 1 24 46
M  V30 51 1 27 47
M  V30 52 1 27 48
M  V30 53 1 28 49
M  V30 54 1 29 50
M  V30 55 1 29 51
M  V30 56 1 30 52
M  V30 END BOND
M  V30 END CTAB
M  END
>  <Dataset>  (866) 
ChEMBL_Kinases

>  <Ligand_Instance>  (866) 
nan

>  <PDB_ID>  (866) 
nan

>  <Standardized_SMILES>  (866) 
COc1ccc(F)cc1-c1ccnc2[nH]c(C3=CC4CN(C(=O)CC#N)CC4C3)cc12

>  <Name>  (866) 
nan

>  <Pocket>  (866) 
nan

>  <ATP_Site>  (866) 
nan

>  <Peripheral>  (866) 
nan

>  <Num_H_Atoms_ProtBoundConf>  (866) 
nan

>  <Num_Resolved_Atoms>  (866) 
nan

>  <Num_Not_Resolved_Atoms>  (866) 
nan

$$$$
CHEMBL3668545
     RDKit          3D

  0  0  0  0  0  0  0  0  0  0999 V3000
M  V30 BEGIN CTAB
M  V30 COUNTS 52 56 0 0 0
M  V30 BEGIN ATOM
M  V30 1 C 0.687632 3.996308 -1.631531 0
M  V30 2 O 1.480706 3.171464 -0.825475 0
M  V30 3 C 2.615181 2.541656 -1.297504 0
M  V30 4 C 3.232396 2.526894 -2.522881 0
M  V30 5 C 4.382168 1.791111 -2.713318 0
M  V30 6 C 4.957377 1.048846 -1.703303 0
M  V30 7 F 6.086777 0.341059 -1.934578 0
M  V30 8 C 4.354793 1.048413 -0.463104 0
M  V30 9 C 3.186556 1.792882 -0.260377 0
M  V30 10 C 2.688443 1.670806 1.124417 0
M  V30 11 C 3.132691 2.574255 2.067657 0
M  V30 12 C 2.627014 2.401487 3.339624 0
M  V30 13 N 1.750665 1.416168 3.663559 0
M  V30 14 C 1.327650 0.538045 2.716448 0
M  V30 15 N 0.489586 -0.515216 2.721901 0
M  V30 16 C 0.413000 -1.057246 1.500273 0
M  V30 17 C -0.395520 -2.214504 1.118413 0
M  V30 18 C -0.491041 -2.772338 -0.080969 0
M  V30 19 C -1.394798 -3.929638 -0.134302 0
M  V30 20 C -2.835028 -3.499145 -0.436947 0
M  V30 21 N -3.559007 -3.597739 0.816516 0
M  V30 22 C -4.552752 -2.660456 1.148834 0
M  V30 23 O -4.445926 -1.972832 0.092938 0
M  V30 24 C -5.400484 -2.559889 2.336835 0
M  V30 25 O -5.196660 -3.538437 3.286028 0
M  V30 26 C -2.923960 -4.795179 1.378785 0
M  V30 27 C -1.468706 -4.315705 1.348805 0
M  V30 28 C -1.279320 -2.995176 2.028529 0
M  V30 29 C 1.225199 -0.354832 0.622239 0
M  V30 30 C 1.791507 0.644128 1.406034 0
M  V30 31 H 1.017039 4.103365 -2.665265 0
M  V30 32 H 0.491708 4.991162 -1.140659 0
M  V30 33 H -0.330453 3.526642 -1.674034 0
M  V30 34 H 2.704158 3.136363 -3.237146 0
M  V30 35 H 4.793593 1.843295 -3.713379 0
M  V30 36 H 4.838847 0.458399 0.284618 0
M  V30 37 H 3.827210 3.361362 1.827982 0
M  V30 38 H 2.909821 3.054151 4.152656 0
M  V30 39 H 0.010995 -0.798406 3.597643 0
M  V30 40 H 0.065647 -2.384763 -0.939729 0
M  V30 41 H -1.049810 -4.750658 -0.764815 0
M  V30 42 H -3.254877 -4.240804 -1.174617 0
M  V30 43 H -2.874190 -2.519841 -0.912155 0
M  V30 44 H -6.467569 -2.663838 1.991440 0
M  V30 45 H -5.309844 -1.582757 2.867346 0
M  V30 46 H -5.925308 -4.204669 3.310305 0
M  V30 47 H -3.260116 -5.045565 2.379609 0
M  V30 48 H -2.981344 -5.603163 0.633838 0
M  V30 49 H -0.765076 -5.096677 1.627849 0
M  V30 50 H -0.725578 -3.189141 2.973931 0
M  V30 51 H -2.214660 -2.473174 2.265919 0
M  V30 52 H 1.378007 -0.543016 -0.421196 0
M  V30 END ATOM
M  V30 BEGIN BOND
M  V30 1 1 1 2
M  V30 2 1 2 3
M  V30 3 2 3 4
M  V30 4 1 4 5
M  V30 5 2 5 6
M  V30 6 1 6 7
M  V30 7 1 6 8
M  V30 8 2 8 9
M  V30 9 1 9 10
M  V30 10 2 10 11
M  V30 11 1 11 12
M  V30 12 2 12 13
M  V30 13 1 13 14
M  V30 14 1 14 15
M  V30 15 1 15 16
M  V30 16 1 16 17
M  V30 17 2 17 18
M  V30 18 1 18 19
M  V30 19 1 19 20
M  V30 20 1 20 21
M  V30 21 1 21 22
M  V30 22 2 22 23
M  V30 23 1 22 24
M  V30 24 1 24 25
M  V30 25 1 21 26
M  V30 26 1 26 27
M  V30 27 1 27 28
M  V30 28 2 16 29
M  V30 29 1 29 30
M  V30 30 1 9 3
M  V30 31 1 30 10
M  V30 32 2 30 14
M  V30 33 1 28 17
M  V30 34 1 27 19
M  V30 35 1 1 31
M  V30 36 1 1 32
M  V30 37 1 1 33
M  V30 38 1 4 34
M  V30 39 1 5 35
M  V30 40 1 8 36
M  V30 41 1 11 37
M  V30 42 1 12 38
M  V30 43 1 15 39
M  V30 44 1 18 40
M  V30 45 1 19 41
M  V30 46 1 20 42
M  V30 47 1 20 43
M  V30 48 1 24 44
M  V30 49 1 24 45
M  V30 50 1 25 46
M  V30 51 1 26 47
M  V30 52 1 26 48
M  V30 53 1 27 49
M  V30 54 1 28 50
M  V30 55 1 28 51
M  V30 56 1 29 52
M  V30 END BOND
M  V30 END CTAB
M  END
>  <Dataset>  (867) 
ChEMBL_Kinases

>  <Ligand_Instance>  (867) 
nan

>  <PDB_ID>  (867) 
nan

>  <Standardized_SMILES>  (867) 
COc1ccc(F)cc1-c1ccnc2[nH]c(C3=CC4CN(C(=O)CO)CC4C3)cc12

>  <Name>  (867) 
nan

>  <Pocket>  (867) 
nan

>  <ATP_Site>  (867) 
nan

>  <Peripheral>  (867) 
nan

>  <Num_H_Atoms_ProtBoundConf>  (867) 
nan

>  <Num_Resolved_Atoms>  (867) 
nan

>  <Num_Not_Resolved_Atoms>  (867) 
nan

$$$$
CHEMBL3663130
     RDKit          3D

  0  0  0  0  0  0  0  0  0  0999 V3000
M  V30 BEGIN CTAB
M  V30 COUNTS 50 53 0 0 0
M  V30 BEGIN ATOM
M  V30 1 O 0.319130 -0.114205 0.244127 0
M  V30 2 C 1.006881 -0.623761 1.167575 0
M  V30 3 N 2.254522 -0.001443 1.533274 0
M  V30 4 C 2.663043 1.172296 0.831788 0
M  V30 5 C 3.434565 1.175080 -0.318759 0
M  V30 6 C 3.740108 2.405068 -0.871118 0
M  V30 7 N 4.459216 2.712599 -1.967497 0
M  V30 8 N 4.457472 4.050263 -2.070169 0
M  V30 9 C 3.747031 4.569648 -1.051793 0
M  V30 10 C 3.551831 6.033879 -0.876022 0
M  V30 11 F 2.857231 6.517692 -1.970875 0
M  V30 12 F 4.756135 6.676898 -0.687185 0
M  V30 13 C 3.263324 3.554432 -0.250698 0
M  V30 14 C 2.496810 3.532766 0.893868 0
M  V30 15 N 2.213099 2.323118 1.412076 0
M  V30 16 N 0.542650 -1.789402 1.822349 0
M  V30 17 C -0.733343 -2.415906 1.439904 0 CFG=2
M  V30 18 C -1.716922 -2.404606 2.548689 0
M  V30 19 O -2.899595 -2.993068 2.126467 0
M  V30 20 C -3.498539 -2.371906 1.062278 0
M  V30 21 C -3.862141 -0.926893 1.339554 0
M  V30 22 C -4.789061 -0.559574 2.426889 0
M  V30 23 C -5.282519 -0.481547 1.024263 0
M  V30 24 C -0.483256 -3.731414 0.866571 0
M  V30 25 C -1.016105 -4.989226 1.048578 0
M  V30 26 C -0.597864 -6.084960 0.363970 0
M  V30 27 C 0.404745 -5.997283 -0.570986 0
M  V30 28 C 0.984323 -4.762529 -0.803390 0
M  V30 29 C 0.540798 -3.642481 -0.088416 0
M  V30 30 H 2.826524 -0.438992 2.312953 0
M  V30 31 H 3.749681 0.218220 -0.713283 0
M  V30 32 H 4.934851 2.048749 -2.624417 0
M  V30 33 H 2.938322 6.259240 0.020952 0
M  V30 34 H 2.156865 4.467720 1.327137 0
M  V30 35 H 1.141347 -2.187968 2.588127 0
M  V30 36 H -1.116601 -1.755775 0.606841 0
M  V30 37 H -1.314424 -2.934067 3.442876 0
M  V30 38 H -1.983460 -1.375204 2.860261 0
M  V30 39 H -2.960403 -2.433340 0.099583 0
M  V30 40 H -4.465737 -2.926472 0.885095 0
M  V30 41 H -3.085785 -0.214177 0.999047 0
M  V30 42 H -5.242746 -1.405759 3.011537 0
M  V30 43 H -4.661620 0.346729 3.034820 0
M  V30 44 H -5.445094 0.531031 0.629942 0
M  V30 45 H -5.998550 -1.251349 0.639603 0
M  V30 46 H -1.792770 -4.976153 1.798822 0
M  V30 47 H -1.127477 -6.999557 0.631951 0
M  V30 48 H 0.679622 -6.918196 -1.073168 0
M  V30 49 H 1.755507 -4.762582 -1.539996 0
M  V30 50 H 1.099900 -2.767071 -0.394727 0
M  V30 END ATOM
M  V30 BEGIN BOND
M  V30 1 2 1 2
M  V30 2 1 2 3
M  V30 3 1 3 4
M  V30 4 2 4 5
M  V30 5 1 5 6
M  V30 6 1 6 7
M  V30 7 1 7 8
M  V30 8 2 8 9
M  V30 9 1 9 10
M  V30 10 1 10 11
M  V30 11 1 10 12
M  V30 12 1 9 13
M  V30 13 1 13 14
M  V30 14 2 14 15
M  V30 15 1 2 16
M  V30 16 1 16 17
M  V30 17 1 17 18
M  V30 18 1 18 19
M  V30 19 1 19 20
M  V30 20 1 20 21
M  V30 21 1 21 22
M  V30 22 1 22 23
M  V30 23 1 17 24
M  V30 24 2 24 25
M  V30 25 1 25 26
M  V30 26 2 26 27
M  V30 27 1 27 28
M  V30 28 2 28 29
M  V30 29 1 15 4
M  V30 30 1 23 21
M  V30 31 1 29 24
M  V30 32 2 13 6
M  V30 33 1 3 30
M  V30 34 1 5 31
M  V30 35 1 7 32
M  V30 36 1 10 33
M  V30 37 1 14 34
M  V30 38 1 16 35
M  V30 39 1 17 36 CFG=3
M  V30 40 1 18 37
M  V30 41 1 18 38
M  V30 42 1 20 39
M  V30 43 1 20 40
M  V30 44 1 21 41
M  V30 45 1 22 42
M  V30 46 1 22 43
M  V30 47 1 23 44
M  V30 48 1 23 45
M  V30 49 1 25 46
M  V30 50 1 26 47
M  V30 51 1 27 48
M  V30 52 1 28 49
M  V30 53 1 29 50
M  V30 END BOND
M  V30 END CTAB
M  END
>  <Dataset>  (868) 
ChEMBL_Kinases

>  <Ligand_Instance>  (868) 
nan

>  <PDB_ID>  (868) 
nan

>  <Standardized_SMILES>  (868) 
O=C(Nc1cc2[nH]nc(C(F)F)c2cn1)N[C@H](COCC1CC1)c1ccccc1

>  <Name>  (868) 
nan

>  <Pocket>  (868) 
nan

>  <ATP_Site>  (868) 
nan

>  <Peripheral>  (868) 
nan

>  <Num_H_Atoms_ProtBoundConf>  (868) 
nan

>  <Num_Resolved_Atoms>  (868) 
nan

>  <Num_Not_Resolved_Atoms>  (868) 
nan

$$$$
CHEMBL3668543
     RDKit          3D

  0  0  0  0  0  0  0  0  0  0999 V3000
M  V30 BEGIN CTAB
M  V30 COUNTS 60 64 0 0 0
M  V30 BEGIN ATOM
M  V30 1 C 4.576354 -1.095880 2.202465 0
M  V30 2 O 3.953882 0.133673 1.897580 0
M  V30 3 C 3.468101 1.016638 2.853666 0
M  V30 4 C 3.635481 0.605631 4.181278 0
M  V30 5 C 3.156022 1.476389 5.134157 0
M  V30 6 C 2.549879 2.675890 4.810355 0
M  V30 7 F 2.082234 3.524682 5.766564 0
M  V30 8 C 2.406687 3.040113 3.482763 0
M  V30 9 C 2.870804 2.203795 2.457495 0
M  V30 10 C 2.792898 2.442050 1.036039 0
M  V30 11 C 3.812623 3.104514 0.337483 0
M  V30 12 C 4.970739 3.571414 1.046623 0
M  V30 13 N 5.906102 3.944890 1.637250 0
M  V30 14 C 3.644891 3.275743 -1.019623 0
M  V30 15 N 2.564936 2.847206 -1.713733 0
M  V30 16 C 1.554836 2.204268 -1.090679 0
M  V30 17 N 0.374661 1.662895 -1.458879 0
M  V30 18 C -0.276749 1.127852 -0.416346 0
M  V30 19 C -1.558872 0.445626 -0.351771 0
M  V30 20 C -2.129326 -0.027213 0.739153 0
M  V30 21 C -3.447371 -0.659546 0.373349 0
M  V30 22 C -3.554829 -2.009032 1.038200 0
M  V30 23 N -3.008413 -3.003717 0.129494 0
M  V30 24 C -4.135765 -3.706392 -0.417303 0
M  V30 25 C -3.867338 -4.843279 -1.275945 0
M  V30 26 O -5.032163 -5.252015 -1.636837 0
M  V30 27 N -2.706339 -5.545352 -1.763385 0
M  V30 28 C -1.237426 -5.515437 -1.661148 0
M  V30 29 C -2.958174 -6.672193 -2.662435 0
M  V30 30 C -2.271717 -2.229827 -0.798467 0
M  V30 31 C -3.163943 -1.054431 -1.085037 0
M  V30 32 C -2.414379 0.176304 -1.536943 0
M  V30 33 C 0.573266 1.363420 0.662051 0
M  V30 34 C 1.717623 2.030026 0.269652 0
M  V30 35 H 3.845802 -1.748136 2.737857 0
M  V30 36 H 4.812467 -1.583065 1.224196 0
M  V30 37 H 5.502191 -0.982816 2.805969 0
M  V30 38 H 4.109458 -0.331872 4.414393 0
M  V30 39 H 3.266585 1.192211 6.173818 0
M  V30 40 H 1.944958 3.959271 3.138920 0
M  V30 41 H 4.478670 3.800886 -1.501033 0
M  V30 42 H 0.008260 1.661603 -2.455343 0
M  V30 43 H -1.771058 -0.003879 1.772192 0
M  V30 44 H -4.298299 -0.002059 0.489171 0
M  V30 45 H -3.021885 -2.025949 2.011083 0
M  V30 46 H -4.641645 -2.174696 1.243421 0
M  V30 47 H -4.696337 -4.076429 0.494124 0
M  V30 48 H -4.827201 -2.944257 -0.865651 0
M  V30 49 H -0.899626 -6.503478 -1.230485 0
M  V30 50 H -0.783903 -5.326200 -2.646299 0
M  V30 51 H -0.875266 -4.750887 -0.957596 0
M  V30 52 H -2.571465 -7.612464 -2.192911 0
M  V30 53 H -4.039933 -6.773359 -2.887803 0
M  V30 54 H -2.451149 -6.559646 -3.628767 0
M  V30 55 H -1.396348 -1.804475 -0.234335 0
M  V30 56 H -1.857116 -2.706074 -1.675843 0
M  V30 57 H -4.055397 -1.255988 -1.665931 0
M  V30 58 H -3.182435 0.959186 -1.694298 0
M  V30 59 H -1.820080 -0.056422 -2.442231 0
M  V30 60 H 0.328207 1.045328 1.671163 0
M  V30 END ATOM
M  V30 BEGIN BOND
M  V30 1 1 1 2
M  V30 2 1 2 3
M  V30 3 2 3 4
M  V30 4 1 4 5
M  V30 5 2 5 6
M  V30 6 1 6 7
M  V30 7 1 6 8
M  V30 8 2 8 9
M  V30 9 1 9 10
M  V30 10 2 10 11
M  V30 11 1 11 12
M  V30 12 3 12 13
M  V30 13 1 11 14
M  V30 14 2 14 15
M  V30 15 1 15 16
M  V30 16 1 16 17
M  V30 17 1 17 18
M  V30 18 1 18 19
M  V30 19 2 19 20
M  V30 20 1 20 21
M  V30 21 1 21 22
M  V30 22 1 22 23
M  V30 23 1 23 24
M  V30 24 1 24 25
M  V30 25 2 25 26
M  V30 26 1 25 27
M  V30 27 1 27 28
M  V30 28 1 27 29
M  V30 29 1 23 30
M  V30 30 1 30 31
M  V30 31 1 31 32
M  V30 32 2 18 33
M  V30 33 1 33 34
M  V30 34 1 9 3
M  V30 35 1 34 10
M  V30 36 2 34 16
M  V30 37 1 32 19
M  V30 38 1 31 21
M  V30 39 1 1 35
M  V30 40 1 1 36
M  V30 41 1 1 37
M  V30 42 1 4 38
M  V30 43 1 5 39
M  V30 44 1 8 40
M  V30 45 1 14 41
M  V30 46 1 17 42
M  V30 47 1 20 43
M  V30 48 1 21 44
M  V30 49 1 22 45
M  V30 50 1 22 46
M  V30 51 1 24 47
M  V30 52 1 24 48
M  V30 53 1 28 49
M  V30 54 1 28 50
M  V30 55 1 28 51
M  V30 56 1 29 52
M  V30 57 1 29 53
M  V30 58 1 29 54
M  V30 59 1 30 55
M  V30 60 1 30 56
M  V30 61 1 31 57
M  V30 62 1 32 58
M  V30 63 1 32 59
M  V30 64 1 33 60
M  V30 END BOND
M  V30 END CTAB
M  END
>  <Dataset>  (869) 
ChEMBL_Kinases

>  <Ligand_Instance>  (869) 
nan

>  <PDB_ID>  (869) 
nan

>  <Standardized_SMILES>  (869) 
COc1ccc(F)cc1-c1c(C#N)cnc2[nH]c(C3=CC4CN(CC(=O)N(C)C)CC4C3)cc12

>  <Name>  (869) 
nan

>  <Pocket>  (869) 
nan

>  <ATP_Site>  (869) 
nan

>  <Peripheral>  (869) 
nan

>  <Num_H_Atoms_ProtBoundConf>  (869) 
nan

>  <Num_Resolved_Atoms>  (869) 
nan

>  <Num_Not_Resolved_Atoms>  (869) 
nan

$$$$
CHEMBL3668542
     RDKit          3D

  0  0  0  0  0  0  0  0  0  0999 V3000
M  V30 BEGIN CTAB
M  V30 COUNTS 53 57 0 0 0
M  V30 BEGIN ATOM
M  V30 1 C 0.402786 1.587833 4.923987 0
M  V30 2 O 1.004237 1.721570 3.659534 0
M  V30 3 C 2.258424 1.228421 3.323772 0
M  V30 4 C 3.148870 0.534386 4.110382 0
M  V30 5 C 4.358779 0.120425 3.602352 0
M  V30 6 C 4.709043 0.391747 2.289452 0
M  V30 7 F 5.918703 -0.053570 1.875241 0
M  V30 8 C 3.815218 1.087073 1.503853 0
M  V30 9 C 2.586564 1.510886 2.009510 0
M  V30 10 C 1.809189 2.224417 1.002120 0
M  V30 11 C 1.919232 3.596361 0.848235 0
M  V30 12 C 2.808769 4.323922 1.690184 0
M  V30 13 N 3.529202 4.922827 2.381881 0
M  V30 14 C 1.165825 4.232822 -0.116985 0
M  V30 15 N 0.306382 3.557904 -0.936058 0
M  V30 16 C 0.178688 2.212702 -0.807168 0
M  V30 17 N -0.585834 1.317077 -1.476312 0
M  V30 18 C -0.362848 0.087135 -0.980952 0
M  V30 19 C -0.999555 -1.152691 -1.438713 0
M  V30 20 C -1.881639 -1.205864 -2.407989 0
M  V30 21 C -2.301015 -2.594614 -2.594360 0
M  V30 22 C -3.424432 -3.026272 -1.656372 0
M  V30 23 N -3.216631 -4.425780 -1.426364 0
M  V30 24 S -3.921951 -4.990386 0.026282 0
M  V30 25 C -3.287783 -4.237306 1.479089 0
M  V30 26 O -5.398829 -4.671603 -0.060814 0
M  V30 27 O -3.793289 -6.471586 0.130951 0
M  V30 28 C -1.794677 -4.669906 -1.523047 0
M  V30 29 C -1.153630 -3.394694 -2.015489 0
M  V30 30 C -0.731668 -2.500064 -0.869309 0
M  V30 31 C 0.574396 0.235184 0.030591 0
M  V30 32 C 0.934793 1.562786 0.163758 0
M  V30 33 H 1.099030 1.293301 5.728239 0
M  V30 34 H -0.069982 2.580008 5.178050 0
M  V30 35 H -0.416525 0.839169 4.835460 0
M  V30 36 H 2.808317 0.361792 5.115041 0
M  V30 37 H 5.036884 -0.423280 4.246608 0
M  V30 38 H 4.177076 1.250615 0.495493 0
M  V30 39 H 1.229042 5.318630 -0.265294 0
M  V30 40 H -1.255935 1.528194 -2.263349 0
M  V30 41 H -2.242821 -0.369599 -2.977590 0
M  V30 42 H -2.509742 -2.867763 -3.643216 0
M  V30 43 H -3.486482 -2.398603 -0.767147 0
M  V30 44 H -4.366491 -2.936925 -2.271475 0
M  V30 45 H -3.643270 -4.867359 2.339345 0
M  V30 46 H -3.735939 -3.235102 1.673305 0
M  V30 47 H -2.188748 -4.257830 1.550380 0
M  V30 48 H -1.346625 -5.063884 -0.603287 0
M  V30 49 H -1.642496 -5.440966 -2.309688 0
M  V30 50 H -0.325552 -3.555736 -2.732131 0
M  V30 51 H 0.336621 -2.636380 -0.609132 0
M  V30 52 H -1.408428 -2.616448 -0.018893 0
M  V30 53 H 0.962815 -0.576961 0.625640 0
M  V30 END ATOM
M  V30 BEGIN BOND
M  V30 1 1 1 2
M  V30 2 1 2 3
M  V30 3 2 3 4
M  V30 4 1 4 5
M  V30 5 2 5 6
M  V30 6 1 6 7
M  V30 7 1 6 8
M  V30 8 2 8 9
M  V30 9 1 9 10
M  V30 10 2 10 11
M  V30 11 1 11 12
M  V30 12 3 12 13
M  V30 13 1 11 14
M  V30 14 2 14 15
M  V30 15 1 15 16
M  V30 16 1 16 17
M  V30 17 1 17 18
M  V30 18 1 18 19
M  V30 19 2 19 20
M  V30 20 1 20 21
M  V30 21 1 21 22
M  V30 22 1 22 23
M  V30 23 1 23 24
M  V30 24 1 24 25
M  V30 25 2 24 26
M  V30 26 2 24 27
M  V30 27 1 23 28
M  V30 28 1 28 29
M  V30 29 1 29 30
M  V30 30 2 18 31
M  V30 31 1 31 32
M  V30 32 1 9 3
M  V30 33 1 32 10
M  V30 34 2 32 16
M  V30 35 1 30 19
M  V30 36 1 29 21
M  V30 37 1 1 33
M  V30 38 1 1 34
M  V30 39 1 1 35
M  V30 40 1 4 36
M  V30 41 1 5 37
M  V30 42 1 8 38
M  V30 43 1 14 39
M  V30 44 1 17 40
M  V30 45 1 20 41
M  V30 46 1 21 42
M  V30 47 1 22 43
M  V30 48 1 22 44
M  V30 49 1 25 45
M  V30 50 1 25 46
M  V30 51 1 25 47
M  V30 52 1 28 48
M  V30 53 1 28 49
M  V30 54 1 29 50
M  V30 55 1 30 51
M  V30 56 1 30 52
M  V30 57 1 31 53
M  V30 END BOND
M  V30 END CTAB
M  END
>  <Dataset>  (870) 
ChEMBL_Kinases

>  <Ligand_Instance>  (870) 
nan

>  <PDB_ID>  (870) 
nan

>  <Standardized_SMILES>  (870) 
COc1ccc(F)cc1-c1c(C#N)cnc2[nH]c(C3=CC4CN(S(C)(=O)=O)CC4C3)cc12

>  <Name>  (870) 
nan

>  <Pocket>  (870) 
nan

>  <ATP_Site>  (870) 
nan

>  <Peripheral>  (870) 
nan

>  <Num_H_Atoms_ProtBoundConf>  (870) 
nan

>  <Num_Resolved_Atoms>  (870) 
nan

>  <Num_Not_Resolved_Atoms>  (870) 
nan

$$$$
CHEMBL3668541
     RDKit          3D

  0  0  0  0  0  0  0  0  0  0999 V3000
M  V30 BEGIN CTAB
M  V30 COUNTS 65 69 0 0 0
M  V30 BEGIN ATOM
M  V30 1 C 4.198170 -0.408754 4.915897 0
M  V30 2 O 3.926742 0.609021 4.003646 0
M  V30 3 C 3.267970 1.774605 4.380375 0
M  V30 4 C 2.863238 1.941367 5.704668 0
M  V30 5 C 2.202719 3.087994 6.125592 0
M  V30 6 C 1.950181 4.073161 5.197806 0
M  V30 7 F 1.309836 5.195451 5.587067 0
M  V30 8 C 2.329963 3.955889 3.876920 0
M  V30 9 C 2.995615 2.792574 3.468745 0
M  V30 10 C 3.449476 2.540026 2.116433 0
M  V30 11 C 4.707692 2.937894 1.729561 0
M  V30 12 C 5.181009 2.719117 0.449602 0
M  V30 13 N 4.376433 2.098243 -0.430893 0
M  V30 14 C 3.132462 1.679804 -0.125558 0
M  V30 15 N 2.130482 1.046192 -0.794892 0
M  V30 16 C 1.079126 0.878175 0.032770 0
M  V30 17 C -0.182735 0.216843 -0.404923 0
M  V30 18 C -0.538625 -0.959940 0.429362 0
M  V30 19 C -2.029309 -1.099711 0.589220 0
M  V30 20 N -2.759645 -0.762471 -0.598543 0
M  V30 21 C -2.875444 -1.803442 -1.565186 0
M  V30 22 C -3.738345 -2.919882 -1.115022 0
M  V30 23 O -4.317881 -2.926210 0.024817 0
M  V30 24 N -4.170540 -4.138384 -1.633778 0
M  V30 25 C -5.035940 -4.691525 -0.588294 0
M  V30 26 C -3.974176 -4.901609 -2.832464 0
M  V30 27 C -3.903242 -4.198227 -4.135996 0
M  V30 28 C -2.447511 -4.541385 -4.343560 0
M  V30 29 O -1.580183 -3.486766 -4.480200 0
M  V30 30 C -2.472370 -5.191099 -2.966950 0
M  V30 31 C -2.484546 0.541315 -1.103791 0
M  V30 32 C -1.317326 1.205073 -0.399552 0
M  V30 33 C 1.352995 1.397698 1.283422 0
M  V30 34 C 2.651708 1.900170 1.168572 0
M  V30 35 H 3.287267 -0.929139 5.296673 0
M  V30 36 H 4.878465 -1.134643 4.392030 0
M  V30 37 H 4.784966 0.050046 5.758282 0
M  V30 38 H 3.064306 1.161639 6.433688 0
M  V30 39 H 1.911207 3.170197 7.155612 0
M  V30 40 H 2.156964 4.695279 3.113952 0
M  V30 41 H 5.406404 3.441087 2.379269 0
M  V30 42 H 6.149546 2.992594 0.049697 0
M  V30 43 H 2.294525 0.789770 -1.795333 0
M  V30 44 H -0.047677 -0.066734 -1.484550 0
M  V30 45 H -0.096680 -1.860751 -0.088951 0
M  V30 46 H -0.029772 -0.889684 1.411451 0
M  V30 47 H -2.244974 -2.162637 0.808249 0
M  V30 48 H -2.394254 -0.526022 1.458309 0
M  V30 49 H -3.433493 -1.345269 -2.434300 0
M  V30 50 H -1.908894 -2.243632 -1.873270 0
M  V30 51 H -4.374954 -4.927713 0.269015 0
M  V30 52 H -5.437941 -5.690277 -0.906747 0
M  V30 53 H -5.883716 -4.021233 -0.337973 0
M  V30 54 H -4.546275 -5.877752 -2.843636 0
M  V30 55 H -4.513581 -4.720218 -4.928647 0
M  V30 56 H -4.156531 -3.125518 -4.181099 0
M  V30 57 H -2.253237 -5.281773 -5.167035 0
M  V30 58 H -0.909784 -3.393548 -3.747784 0
M  V30 59 H -2.253425 -6.272932 -3.018778 0
M  V30 60 H -1.828705 -4.656885 -2.236994 0
M  V30 61 H -2.229152 0.463307 -2.178020 0
M  V30 62 H -3.412573 1.175797 -1.056561 0
M  V30 63 H -1.638264 1.494839 0.599735 0
M  V30 64 H -1.007814 2.111896 -0.956207 0
M  V30 65 H 0.708987 1.410899 2.149843 0
M  V30 END ATOM
M  V30 BEGIN BOND
M  V30 1 1 1 2
M  V30 2 1 2 3
M  V30 3 2 3 4
M  V30 4 1 4 5
M  V30 5 2 5 6
M  V30 6 1 6 7
M  V30 7 1 6 8
M  V30 8 2 8 9
M  V30 9 1 9 10
M  V30 10 2 10 11
M  V30 11 1 11 12
M  V30 12 2 12 13
M  V30 13 1 13 14
M  V30 14 1 14 15
M  V30 15 1 15 16
M  V30 16 1 16 17
M  V30 17 1 17 18
M  V30 18 1 18 19
M  V30 19 1 19 20
M  V30 20 1 20 21
M  V30 21 1 21 22
M  V30 22 2 22 23
M  V30 23 1 22 24
M  V30 24 1 24 25
M  V30 25 1 24 26
M  V30 26 1 26 27
M  V30 27 1 27 28
M  V30 28 1 28 29
M  V30 29 1 28 30
M  V30 30 1 20 31
M  V30 31 1 31 32
M  V30 32 2 16 33
M  V30 33 1 33 34
M  V30 34 1 9 3
M  V30 35 1 34 10
M  V30 36 2 34 14
M  V30 37 1 32 17
M  V30 38 1 30 26
M  V30 39 1 1 35
M  V30 40 1 1 36
M  V30 41 1 1 37
M  V30 42 1 4 38
M  V30 43 1 5 39
M  V30 44 1 8 40
M  V30 45 1 11 41
M  V30 46 1 12 42
M  V30 47 1 15 43
M  V30 48 1 17 44
M  V30 49 1 18 45
M  V30 50 1 18 46
M  V30 51 1 19 47
M  V30 52 1 19 48
M  V30 53 1 21 49
M  V30 54 1 21 50
M  V30 55 1 25 51
M  V30 56 1 25 52
M  V30 57 1 25 53
M  V30 58 1 26 54
M  V30 59 1 27 55
M  V30 60 1 27 56
M  V30 61 1 28 57
M  V30 62 1 29 58
M  V30 63 1 30 59
M  V30 64 1 30 60
M  V30 65 1 31 61
M  V30 66 1 31 62
M  V30 67 1 32 63
M  V30 68 1 32 64
M  V30 69 1 33 65
M  V30 END BOND
M  V30 END CTAB
M  END
>  <Dataset>  (871) 
ChEMBL_Kinases

>  <Ligand_Instance>  (871) 
nan

>  <PDB_ID>  (871) 
nan

>  <Standardized_SMILES>  (871) 
COc1ccc(F)cc1-c1ccnc2[nH]c(C3CCN(CC(=O)N(C)C4CC(O)C4)CC3)cc12

>  <Name>  (871) 
nan

>  <Pocket>  (871) 
nan

>  <ATP_Site>  (871) 
nan

>  <Peripheral>  (871) 
nan

>  <Num_H_Atoms_ProtBoundConf>  (871) 
nan

>  <Num_Resolved_Atoms>  (871) 
nan

>  <Num_Not_Resolved_Atoms>  (871) 
nan

$$$$
CHEMBL3668540
     RDKit          3D

  0  0  0  0  0  0  0  0  0  0999 V3000
M  V30 BEGIN CTAB
M  V30 COUNTS 58 61 0 0 0
M  V30 BEGIN ATOM
M  V30 1 C 1.358632 1.646509 5.704922 0
M  V30 2 O 1.649964 1.889996 4.355541 0
M  V30 3 C 2.773089 1.242663 3.810588 0
M  V30 4 C 3.566372 0.395602 4.567658 0
M  V30 5 C 4.648708 -0.191444 3.934781 0
M  V30 6 C 4.930376 0.057837 2.592298 0
M  V30 7 F 6.029692 -0.598075 2.125914 0
M  V30 8 C 4.114359 0.904315 1.885767 0
M  V30 9 C 3.039905 1.498094 2.481962 0
M  V30 10 C 2.254902 2.375125 1.619084 0
M  V30 11 C 2.526418 3.740651 1.483747 0
M  V30 12 C 3.631789 4.257749 2.245118 0
M  V30 13 N 4.517339 4.686004 2.870021 0
M  V30 14 C 1.756876 4.538760 0.652982 0
M  V30 15 N 0.726326 4.022599 -0.047331 0
M  V30 16 C 0.410349 2.702603 0.040043 0
M  V30 17 N -0.549865 1.934192 -0.537512 0
M  V30 18 C -0.442626 0.664257 -0.120292 0
M  V30 19 C -1.269487 -0.517429 -0.482487 0
M  V30 20 C -2.709892 -0.295360 -0.051811 0
M  V30 21 C -3.666820 -0.998304 -0.972914 0
M  V30 22 N -3.178161 -2.154536 -1.605718 0
M  V30 23 C -3.406317 -3.393466 -0.941340 0
M  V30 24 C -2.888431 -4.569426 -1.619555 0
M  V30 25 O -3.191211 -5.560358 -0.867917 0
M  V30 26 N -2.325051 -5.593623 -2.411497 0
M  V30 27 C -2.466736 -6.941197 -1.876062 0
M  V30 28 C -1.652862 -5.353064 -3.662936 0
M  V30 29 C -1.946122 -2.036910 -2.303494 0
M  V30 30 C -1.180335 -0.775369 -1.964755 0
M  V30 31 C 0.631425 0.634431 0.757075 0
M  V30 32 C 1.177877 1.904761 0.869202 0
M  V30 33 H 1.224281 0.536285 5.853573 0
M  V30 34 H 2.237096 1.985849 6.321078 0
M  V30 35 H 0.461178 2.206938 6.000044 0
M  V30 36 H 3.310925 0.230659 5.605995 0
M  V30 37 H 5.237528 -0.846436 4.574213 0
M  V30 38 H 4.421985 1.026161 0.858246 0
M  V30 39 H 1.987588 5.608581 0.561339 0
M  V30 40 H -1.267478 2.263711 -1.204754 0
M  V30 41 H -0.918854 -1.410910 0.033418 0
M  V30 42 H -2.853809 0.822191 -0.077093 0
M  V30 43 H -2.793578 -0.589307 1.006985 0
M  V30 44 H -3.915249 -0.240200 -1.772784 0
M  V30 45 H -4.633130 -1.230238 -0.504881 0
M  V30 46 H -4.518491 -3.496155 -0.836523 0
M  V30 47 H -3.002556 -3.285899 0.085538 0
M  V30 48 H -2.042346 -7.693334 -2.548648 0
M  V30 49 H -3.558843 -7.200102 -1.763883 0
M  V30 50 H -1.991034 -7.037987 -0.881637 0
M  V30 51 H -2.044421 -4.422675 -4.119538 0
M  V30 52 H -1.806747 -6.224402 -4.332421 0
M  V30 53 H -0.559273 -5.207393 -3.528913 0
M  V30 54 H -2.157917 -1.996935 -3.392912 0
M  V30 55 H -1.322684 -2.918482 -2.122068 0
M  V30 56 H -0.105864 -0.923931 -2.209525 0
M  V30 57 H -1.531742 0.098241 -2.538114 0
M  V30 58 H 1.017563 -0.209667 1.289446 0
M  V30 END ATOM
M  V30 BEGIN BOND
M  V30 1 1 1 2
M  V30 2 1 2 3
M  V30 3 2 3 4
M  V30 4 1 4 5
M  V30 5 2 5 6
M  V30 6 1 6 7
M  V30 7 1 6 8
M  V30 8 2 8 9
M  V30 9 1 9 10
M  V30 10 2 10 11
M  V30 11 1 11 12
M  V30 12 3 12 13
M  V30 13 1 11 14
M  V30 14 2 14 15
M  V30 15 1 15 16
M  V30 16 1 16 17
M  V30 17 1 17 18
M  V30 18 1 18 19
M  V30 19 1 19 20
M  V30 20 1 20 21
M  V30 21 1 21 22
M  V30 22 1 22 23
M  V30 23 1 23 24
M  V30 24 2 24 25
M  V30 25 1 24 26
M  V30 26 1 26 27
M  V30 27 1 26 28
M  V30 28 1 22 29
M  V30 29 1 29 30
M  V30 30 2 18 31
M  V30 31 1 31 32
M  V30 32 1 9 3
M  V30 33 1 32 10
M  V30 34 2 32 16
M  V30 35 1 30 19
M  V30 36 1 1 33
M  V30 37 1 1 34
M  V30 38 1 1 35
M  V30 39 1 4 36
M  V30 40 1 5 37
M  V30 41 1 8 38
M  V30 42 1 14 39
M  V30 43 1 17 40
M  V30 44 1 19 41
M  V30 45 1 20 42
M  V30 46 1 20 43
M  V30 47 1 21 44
M  V30 48 1 21 45
M  V30 49 1 23 46
M  V30 50 1 23 47
M  V30 51 1 27 48
M  V30 52 1 27 49
M  V30 53 1 27 50
M  V30 54 1 28 51
M  V30 55 1 28 52
M  V30 56 1 28 53
M  V30 57 1 29 54
M  V30 58 1 29 55
M  V30 59 1 30 56
M  V30 60 1 30 57
M  V30 61 1 31 58
M  V30 END BOND
M  V30 END CTAB
M  END
>  <Dataset>  (872) 
ChEMBL_Kinases

>  <Ligand_Instance>  (872) 
nan

>  <PDB_ID>  (872) 
nan

>  <Standardized_SMILES>  (872) 
COc1ccc(F)cc1-c1c(C#N)cnc2[nH]c(C3CCN(CC(=O)N(C)C)CC3)cc12

>  <Name>  (872) 
nan

>  <Pocket>  (872) 
nan

>  <ATP_Site>  (872) 
nan

>  <Peripheral>  (872) 
nan

>  <Num_H_Atoms_ProtBoundConf>  (872) 
nan

>  <Num_Resolved_Atoms>  (872) 
nan

>  <Num_Not_Resolved_Atoms>  (872) 
nan

$$$$
CHEMBL3668539
     RDKit          3D

  0  0  0  0  0  0  0  0  0  0999 V3000
M  V30 BEGIN CTAB
M  V30 COUNTS 59 63 0 0 0
M  V30 BEGIN ATOM
M  V30 1 C 3.260238 0.896250 5.216255 0
M  V30 2 O 2.576845 0.049879 4.555684 0
M  V30 3 C 2.473081 -0.717528 3.557897 0
M  V30 4 C 2.568280 -0.184988 2.167286 0
M  V30 5 S 4.107327 0.470418 1.698029 0
M  V30 6 O 5.185392 -0.593424 1.828418 0
M  V30 7 O 4.533802 1.629095 2.496862 0
M  V30 8 N 4.021232 1.000459 0.035697 0
M  V30 9 C 3.037194 2.031924 -0.093047 0
M  V30 10 C 2.259031 1.750179 -1.353051 0
M  V30 11 C 1.015682 0.972795 -1.112570 0
M  V30 12 C 0.944092 -0.035914 -1.958762 0
M  V30 13 C -0.152031 -0.999855 -1.995331 0
M  V30 14 C -1.248887 -0.969187 -1.144024 0
M  V30 15 C -2.064690 -2.038353 -1.484997 0
M  V30 16 C -3.281356 -2.518804 -0.999666 0
M  V30 17 C -3.893242 -1.790862 0.109426 0
M  V30 18 C -4.760736 -0.759833 -0.265559 0
M  V30 19 C -5.386228 -0.015735 0.734241 0
M  V30 20 F -6.222990 0.978761 0.374043 0
M  V30 21 C -5.146902 -0.299517 2.051260 0
M  V30 22 C -4.291029 -1.316726 2.441858 0
M  V30 23 C -3.662323 -2.064632 1.463735 0
M  V30 24 O -2.779402 -3.114112 1.678713 0
M  V30 25 C -2.415731 -3.545701 2.978235 0
M  V30 26 C -3.901143 -3.638195 -1.532708 0
M  V30 27 C -3.220512 -4.243341 -2.583851 0
M  V30 28 N -2.043681 -3.787450 -3.061163 0
M  V30 29 C -1.440679 -2.687981 -2.533281 0
M  V30 30 N -0.282964 -2.046624 -2.830793 0
M  V30 31 C 2.134870 -0.036757 -2.854118 0
M  V30 32 C 3.130244 0.726668 -2.046100 0
M  V30 33 C 3.641825 -0.076256 -0.854913 0
M  V30 34 H 3.530342 1.906028 4.781192 0
M  V30 35 H 2.736887 1.194980 6.205877 0
M  V30 36 H 4.276195 0.521773 5.604813 0
M  V30 37 H 1.475002 -1.327293 3.621671 0
M  V30 38 H 3.210831 -1.633009 3.586392 0
M  V30 39 H 1.717544 0.534929 1.976594 0
M  V30 40 H 2.343609 -1.051012 1.466569 0
M  V30 41 H 3.545313 3.019200 -0.246436 0
M  V30 42 H 2.409307 2.136800 0.799126 0
M  V30 43 H 2.097410 2.652811 -1.968490 0
M  V30 44 H 0.326689 1.284895 -0.316503 0
M  V30 45 H -1.507410 -0.290734 -0.344584 0
M  V30 46 H -4.953047 -0.531788 -1.304862 0
M  V30 47 H -5.625611 0.269958 2.863095 0
M  V30 48 H -4.063801 -1.586317 3.478098 0
M  V30 49 H -1.478249 -4.112129 2.966088 0
M  V30 50 H -3.219935 -4.187889 3.353196 0
M  V30 51 H -2.326127 -2.642800 3.645930 0
M  V30 52 H -4.832914 -4.005834 -1.160734 0
M  V30 53 H -3.668232 -5.122975 -3.032255 0
M  V30 54 H 0.362350 -2.351991 -3.587964 0
M  V30 55 H 1.909118 0.525440 -3.762853 0
M  V30 56 H 2.500473 -1.065109 -3.048462 0
M  V30 57 H 3.940877 1.176174 -2.631717 0
M  V30 58 H 2.764695 -0.646370 -0.488129 0
M  V30 59 H 4.502945 -0.707329 -1.129809 0
M  V30 END ATOM
M  V30 BEGIN BOND
M  V30 1 1 1 2
M  V30 2 1 2 3
M  V30 3 1 3 4
M  V30 4 1 4 5
M  V30 5 2 5 6
M  V30 6 2 5 7
M  V30 7 1 5 8
M  V30 8 1 8 9
M  V30 9 1 9 10
M  V30 10 1 10 11
M  V30 11 2 11 12
M  V30 12 1 12 13
M  V30 13 2 13 14
M  V30 14 1 14 15
M  V30 15 2 15 16
M  V30 16 1 16 17
M  V30 17 2 17 18
M  V30 18 1 18 19
M  V30 19 1 19 20
M  V30 20 2 19 21
M  V30 21 1 21 22
M  V30 22 2 22 23
M  V30 23 1 23 24
M  V30 24 1 24 25
M  V30 25 1 16 26
M  V30 26 2 26 27
M  V30 27 1 27 28
M  V30 28 2 28 29
M  V30 29 1 29 30
M  V30 30 1 12 31
M  V30 31 1 31 32
M  V30 32 1 32 33
M  V30 33 1 33 8
M  V30 34 1 32 10
M  V30 35 1 30 13
M  V30 36 1 29 15
M  V30 37 1 23 17
M  V30 38 1 1 34
M  V30 39 1 1 35
M  V30 40 1 1 36
M  V30 41 1 3 37
M  V30 42 1 3 38
M  V30 43 1 4 39
M  V30 44 1 4 40
M  V30 45 1 9 41
M  V30 46 1 9 42
M  V30 47 1 10 43
M  V30 48 1 11 44
M  V30 49 1 14 45
M  V30 50 1 18 46
M  V30 51 1 21 47
M  V30 52 1 22 48
M  V30 53 1 25 49
M  V30 54 1 25 50
M  V30 55 1 25 51
M  V30 56 1 26 52
M  V30 57 1 27 53
M  V30 58 1 30 54
M  V30 59 1 31 55
M  V30 60 1 31 56
M  V30 61 1 32 57
M  V30 62 1 33 58
M  V30 63 1 33 59
M  V30 END BOND
M  V30 END CTAB
M  END
>  <Dataset>  (873) 
ChEMBL_Kinases

>  <Ligand_Instance>  (873) 
nan

>  <PDB_ID>  (873) 
nan

>  <Standardized_SMILES>  (873) 
COCCS(=O)(=O)N1CC2C=C(c3cc4c(-c5cc(F)ccc5OC)ccnc4[nH]3)CC2C1

>  <Name>  (873) 
nan

>  <Pocket>  (873) 
nan

>  <ATP_Site>  (873) 
nan

>  <Peripheral>  (873) 
nan

>  <Num_H_Atoms_ProtBoundConf>  (873) 
nan

>  <Num_Resolved_Atoms>  (873) 
nan

>  <Num_Not_Resolved_Atoms>  (873) 
nan

$$$$
CHEMBL3668538
     RDKit          3D

  0  0  0  0  0  0  0  0  0  0999 V3000
M  V30 BEGIN CTAB
M  V30 COUNTS 61 64 0 0 0
M  V30 BEGIN ATOM
M  V30 1 C 1.434538 0.963991 5.892796 0
M  V30 2 O 1.963261 1.337153 4.644021 0
M  V30 3 C 3.072230 0.742887 4.057476 0
M  V30 4 C 3.847611 -0.285759 4.550549 0
M  V30 5 C 4.926166 -0.768013 3.839101 0
M  V30 6 C 5.258591 -0.220997 2.594447 0
M  V30 7 F 6.327635 -0.730988 1.936074 0
M  V30 8 C 4.463330 0.821959 2.106598 0
M  V30 9 C 3.380068 1.298254 2.833158 0
M  V30 10 C 2.727340 2.373696 2.099613 0
M  V30 11 C 3.083995 3.695472 2.260411 0
M  V30 12 C 2.365645 4.587929 1.489128 0
M  V30 13 N 1.393697 4.251298 0.639853 0
M  V30 14 C 1.022242 2.979279 0.458953 0
M  V30 15 N 0.097311 2.336526 -0.313325 0
M  V30 16 C 0.212827 1.035052 -0.045836 0
M  V30 17 C -0.581620 -0.021070 -0.654649 0
M  V30 18 C -1.524331 0.116046 -1.546613 0
M  V30 19 C -2.369483 -0.904662 -2.206902 0
M  V30 20 N -1.865989 -2.244891 -2.114399 0
M  V30 21 C -2.725515 -3.091142 -1.338410 0
M  V30 22 C -4.021837 -3.331238 -2.053745 0
M  V30 23 O -4.023499 -2.729759 -3.153053 0
M  V30 24 N -5.058070 -4.136378 -1.507343 0
M  V30 25 C -4.855017 -4.741997 -0.203652 0
M  V30 26 C -6.231528 -4.241103 -2.389266 0
M  V30 27 C -0.522479 -2.261799 -1.658873 0
M  V30 28 C 0.432166 -1.588509 -2.613230 0
M  V30 29 C -0.003074 -3.656191 -1.380580 0
M  V30 30 C -0.441928 -1.476168 -0.353697 0
M  V30 31 C 1.191362 0.769507 0.888596 0
M  V30 32 C 1.706282 2.032452 1.205936 0
M  V30 33 H 1.310758 -0.152779 5.986717 0
M  V30 34 H 0.395028 1.372863 5.947761 0
M  V30 35 H 1.978839 1.355492 6.759124 0
M  V30 36 H 3.528811 -0.652687 5.511311 0
M  V30 37 H 5.511333 -1.577426 4.259255 0
M  V30 38 H 4.819899 1.158782 1.140414 0
M  V30 39 H 3.869464 3.973794 2.945907 0
M  V30 40 H 2.650325 5.645001 1.616975 0
M  V30 41 H -0.534926 2.836766 -0.957500 0
M  V30 42 H -1.753521 1.136171 -1.882779 0
M  V30 43 H -3.420629 -0.853096 -1.792036 0
M  V30 44 H -2.525448 -0.642517 -3.293201 0
M  V30 45 H -3.013591 -2.615858 -0.355544 0
M  V30 46 H -2.234925 -4.035041 -1.058838 0
M  V30 47 H -4.611491 -4.016062 0.590475 0
M  V30 48 H -5.772785 -5.300950 0.100984 0
M  V30 49 H -3.969298 -5.438197 -0.274856 0
M  V30 50 H -6.493374 -3.227874 -2.699749 0
M  V30 51 H -5.831357 -4.742215 -3.314207 0
M  V30 52 H -7.015961 -4.822648 -1.896151 0
M  V30 53 H 0.697713 -0.551376 -2.311403 0
M  V30 54 H 1.376913 -2.160594 -2.628293 0
M  V30 55 H -0.022098 -1.574380 -3.646127 0
M  V30 56 H -0.495793 -4.361656 -2.056737 0
M  V30 57 H 1.064780 -3.671800 -1.599669 0
M  V30 58 H -0.195066 -3.978251 -0.342386 0
M  V30 59 H 0.604976 -1.629019 0.021529 0
M  V30 60 H -1.121073 -1.843211 0.414831 0
M  V30 61 H 1.492758 -0.202687 1.286486 0
M  V30 END ATOM
M  V30 BEGIN BOND
M  V30 1 1 1 2
M  V30 2 1 2 3
M  V30 3 2 3 4
M  V30 4 1 4 5
M  V30 5 2 5 6
M  V30 6 1 6 7
M  V30 7 1 6 8
M  V30 8 2 8 9
M  V30 9 1 9 10
M  V30 10 2 10 11
M  V30 11 1 11 12
M  V30 12 2 12 13
M  V30 13 1 13 14
M  V30 14 1 14 15
M  V30 15 1 15 16
M  V30 16 1 16 17
M  V30 17 2 17 18
M  V30 18 1 18 19
M  V30 19 1 19 20
M  V30 20 1 20 21
M  V30 21 1 21 22
M  V30 22 2 22 23
M  V30 23 1 22 24
M  V30 24 1 24 25
M  V30 25 1 24 26
M  V30 26 1 20 27
M  V30 27 1 27 28
M  V30 28 1 27 29
M  V30 29 1 27 30
M  V30 30 2 16 31
M  V30 31 1 31 32
M  V30 32 1 9 3
M  V30 33 1 32 10
M  V30 34 2 32 14
M  V30 35 1 30 17
M  V30 36 1 1 33
M  V30 37 1 1 34
M  V30 38 1 1 35
M  V30 39 1 4 36
M  V30 40 1 5 37
M  V30 41 1 8 38
M  V30 42 1 11 39
M  V30 43 1 12 40
M  V30 44 1 15 41
M  V30 45 1 18 42
M  V30 46 1 19 43
M  V30 47 1 19 44
M  V30 48 1 21 45
M  V30 49 1 21 46
M  V30 50 1 25 47
M  V30 51 1 25 48
M  V30 52 1 25 49
M  V30 53 1 26 50
M  V30 54 1 26 51
M  V30 55 1 26 52
M  V30 56 1 28 53
M  V30 57 1 28 54
M  V30 58 1 28 55
M  V30 59 1 29 56
M  V30 60 1 29 57
M  V30 61 1 29 58
M  V30 62 1 30 59
M  V30 63 1 30 60
M  V30 64 1 31 61
M  V30 END BOND
M  V30 END CTAB
M  END
>  <Dataset>  (874) 
ChEMBL_Kinases

>  <Ligand_Instance>  (874) 
nan

>  <PDB_ID>  (874) 
nan

>  <Standardized_SMILES>  (874) 
COc1ccc(F)cc1-c1ccnc2[nH]c(C3=CCN(CC(=O)N(C)C)C(C)(C)C3)cc12

>  <Name>  (874) 
nan

>  <Pocket>  (874) 
nan

>  <ATP_Site>  (874) 
nan

>  <Peripheral>  (874) 
nan

>  <Num_H_Atoms_ProtBoundConf>  (874) 
nan

>  <Num_Resolved_Atoms>  (874) 
nan

>  <Num_Not_Resolved_Atoms>  (874) 
nan

$$$$
CHEMBL3668537
     RDKit          3D

  0  0  0  0  0  0  0  0  0  0999 V3000
M  V30 BEGIN CTAB
M  V30 COUNTS 54 57 0 0 0
M  V30 BEGIN ATOM
M  V30 1 C 3.324596 1.363912 -3.492262 0
M  V30 2 O 2.992035 1.603396 -2.154742 0
M  V30 3 C 3.777844 1.275226 -1.072274 0
M  V30 4 C 5.003828 0.657915 -1.262829 0
M  V30 5 C 5.808494 0.321110 -0.167144 0
M  V30 6 C 5.371196 0.609254 1.114134 0
M  V30 7 F 6.151247 0.283364 2.186913 0
M  V30 8 C 4.143736 1.224571 1.255862 0
M  V30 9 C 3.327858 1.569408 0.204696 0
M  V30 10 C 2.035673 2.221054 0.423284 0
M  V30 11 C 2.016298 3.601484 0.456719 0
M  V30 12 C 0.791463 4.208867 0.663493 0
M  V30 13 N -0.336936 3.504876 0.826172 0
M  V30 14 C -0.280443 2.161287 0.787682 0
M  V30 15 N -1.256301 1.242946 0.921497 0
M  V30 16 C -0.714960 0.015184 0.808984 0
M  V30 17 C -1.466455 -1.228649 0.899775 0
M  V30 18 C -0.929790 -2.414889 0.789803 0
M  V30 19 C -1.545972 -3.759844 0.857163 0
M  V30 20 N -2.943183 -3.680810 1.150427 0
M  V30 21 S -3.240404 -3.870323 2.821028 0
M  V30 22 C -2.696376 -5.462866 3.385311 0
M  V30 23 O -4.659857 -3.696326 3.198729 0
M  V30 24 O -2.451784 -2.854953 3.636367 0
M  V30 25 C -3.512501 -2.514619 0.566598 0
M  V30 26 C -5.009661 -2.434862 0.714728 0
M  V30 27 C -3.218968 -2.575200 -0.923543 0
M  V30 28 C -2.940648 -1.229146 1.130340 0
M  V30 29 C 0.641701 0.085944 0.596385 0
M  V30 30 C 0.893993 1.455975 0.586726 0
M  V30 31 H 3.650009 0.284758 -3.560554 0
M  V30 32 H 4.143291 1.953756 -3.900247 0
M  V30 33 H 2.379885 1.403237 -4.092511 0
M  V30 34 H 5.375379 0.418586 -2.254125 0
M  V30 35 H 6.762782 -0.155833 -0.251719 0
M  V30 36 H 3.838007 1.433667 2.288603 0
M  V30 37 H 2.902198 4.184128 0.329644 0
M  V30 38 H 0.768581 5.290104 0.690971 0
M  V30 39 H -2.260793 1.472414 1.085131 0
M  V30 40 H 0.136294 -2.498691 0.620829 0
M  V30 41 H -0.996933 -4.364192 1.617359 0
M  V30 42 H -1.358533 -4.242044 -0.129034 0
M  V30 43 H -2.913711 -5.543434 4.466654 0
M  V30 44 H -3.286888 -6.219377 2.809824 0
M  V30 45 H -1.615002 -5.563308 3.169468 0
M  V30 46 H -5.267632 -1.959230 1.682293 0
M  V30 47 H -5.491619 -3.431745 0.654654 0
M  V30 48 H -5.364173 -1.736105 -0.076107 0
M  V30 49 H -4.100710 -2.270810 -1.525265 0
M  V30 50 H -2.943941 -3.599514 -1.239067 0
M  V30 51 H -2.391294 -1.878108 -1.188714 0
M  V30 52 H -3.162752 -1.146956 2.211770 0
M  V30 53 H -3.363713 -0.340326 0.625715 0
M  V30 54 H 1.376505 -0.697713 0.463106 0
M  V30 END ATOM
M  V30 BEGIN BOND
M  V30 1 1 1 2
M  V30 2 1 2 3
M  V30 3 2 3 4
M  V30 4 1 4 5
M  V30 5 2 5 6
M  V30 6 1 6 7
M  V30 7 1 6 8
M  V30 8 2 8 9
M  V30 9 1 9 10
M  V30 10 2 10 11
M  V30 11 1 11 12
M  V30 12 2 12 13
M  V30 13 1 13 14
M  V30 14 1 14 15
M  V30 15 1 15 16
M  V30 16 1 16 17
M  V30 17 2 17 18
M  V30 18 1 18 19
M  V30 19 1 19 20
M  V30 20 1 20 21
M  V30 21 1 21 22
M  V30 22 2 21 23
M  V30 23 2 21 24
M  V30 24 1 20 25
M  V30 25 1 25 26
M  V30 26 1 25 27
M  V30 27 1 25 28
M  V30 28 2 16 29
M  V30 29 1 29 30
M  V30 30 1 9 3
M  V30 31 1 30 10
M  V30 32 2 30 14
M  V30 33 1 28 17
M  V30 34 1 1 31
M  V30 35 1 1 32
M  V30 36 1 1 33
M  V30 37 1 4 34
M  V30 38 1 5 35
M  V30 39 1 8 36
M  V30 40 1 11 37
M  V30 41 1 12 38
M  V30 42 1 15 39
M  V30 43 1 18 40
M  V30 44 1 19 41
M  V30 45 1 19 42
M  V30 46 1 22 43
M  V30 47 1 22 44
M  V30 48 1 22 45
M  V30 49 1 26 46
M  V30 50 1 26 47
M  V30 51 1 26 48
M  V30 52 1 27 49
M  V30 53 1 27 50
M  V30 54 1 27 51
M  V30 55 1 28 52
M  V30 56 1 28 53
M  V30 57 1 29 54
M  V30 END BOND
M  V30 END CTAB
M  END
>  <Dataset>  (875) 
ChEMBL_Kinases

>  <Ligand_Instance>  (875) 
nan

>  <PDB_ID>  (875) 
nan

>  <Standardized_SMILES>  (875) 
COc1ccc(F)cc1-c1ccnc2[nH]c(C3=CCN(S(C)(=O)=O)C(C)(C)C3)cc12

>  <Name>  (875) 
nan

>  <Pocket>  (875) 
nan

>  <ATP_Site>  (875) 
nan

>  <Peripheral>  (875) 
nan

>  <Num_H_Atoms_ProtBoundConf>  (875) 
nan

>  <Num_Resolved_Atoms>  (875) 
nan

>  <Num_Not_Resolved_Atoms>  (875) 
nan

$$$$
CHEMBL3668536
     RDKit          3D

  0  0  0  0  0  0  0  0  0  0999 V3000
M  V30 BEGIN CTAB
M  V30 COUNTS 54 57 0 0 0
M  V30 BEGIN ATOM
M  V30 1 C 2.725301 1.052660 5.201741 0
M  V30 2 O 2.471527 1.516675 3.888273 0
M  V30 3 C 3.403794 1.397238 2.862406 0
M  V30 4 C 4.610108 0.809420 3.134208 0
M  V30 5 C 5.574567 0.660989 2.164703 0
M  V30 6 C 5.297984 1.126106 0.883046 0
M  V30 7 F 6.280248 0.953490 -0.025220 0
M  V30 8 C 4.093115 1.724391 0.570333 0
M  V30 9 C 3.156933 1.850548 1.577586 0
M  V30 10 C 1.878147 2.481229 1.261873 0
M  V30 11 C 1.789697 3.842980 1.420276 0
M  V30 12 C 0.562709 4.405052 1.111449 0
M  V30 13 N -0.474639 3.673243 0.685308 0
M  V30 14 C -0.416782 2.340057 0.521199 0
M  V30 15 N -1.262165 1.372138 0.123127 0
M  V30 16 C -0.682670 0.157587 0.139224 0
M  V30 17 C -1.282640 -1.127083 -0.224983 0
M  V30 18 C -2.563381 -1.096432 -0.623245 0
M  V30 19 C -3.117771 -2.456132 -0.983301 0
M  V30 20 C -3.568741 -3.155689 0.279102 0
M  V30 21 C -4.335585 -2.160884 -1.802682 0
M  V30 22 N -2.162061 -3.277224 -1.597998 0
M  V30 23 S -2.622635 -4.543889 -2.577782 0
M  V30 24 C -3.573772 -5.716931 -1.637517 0
M  V30 25 O -3.470435 -4.183336 -3.754177 0
M  V30 26 O -1.438232 -5.309117 -3.122798 0
M  V30 27 C -0.944225 -3.482954 -0.938001 0
M  V30 28 C -0.425227 -2.341436 -0.122322 0
M  V30 29 C 0.602737 0.405129 0.577103 0
M  V30 30 C 0.794485 1.749053 0.821124 0
M  V30 31 H 3.029076 -0.014500 5.196600 0
M  V30 32 H 1.783541 1.161497 5.776597 0
M  V30 33 H 3.505577 1.706103 5.643578 0
M  V30 34 H 4.796801 0.455855 4.145477 0
M  V30 35 H 6.517528 0.191992 2.412281 0
M  V30 36 H 3.916892 2.071634 -0.434147 0
M  V30 37 H 2.585434 4.501954 1.760498 0
M  V30 38 H 0.358667 5.481161 1.194448 0
M  V30 39 H -2.240273 1.606296 -0.152319 0
M  V30 40 H -3.102124 -0.168060 -0.665660 0
M  V30 41 H -4.654563 -3.338587 0.201408 0
M  V30 42 H -3.116097 -4.168215 0.403061 0
M  V30 43 H -3.389227 -2.517297 1.171289 0
M  V30 44 H -4.104262 -1.737579 -2.802270 0
M  V30 45 H -5.078908 -2.964999 -1.828946 0
M  V30 46 H -4.869313 -1.314157 -1.277186 0
M  V30 47 H -4.484708 -5.223352 -1.262261 0
M  V30 48 H -3.909834 -6.532029 -2.331510 0
M  V30 49 H -2.973942 -6.208408 -0.841893 0
M  V30 50 H -0.154249 -3.847959 -1.624453 0
M  V30 51 H -1.089421 -4.343085 -0.218991 0
M  V30 52 H -0.259376 -2.599353 0.944270 0
M  V30 53 H 0.560241 -2.028787 -0.524667 0
M  V30 54 H 1.363109 -0.360455 0.711438 0
M  V30 END ATOM
M  V30 BEGIN BOND
M  V30 1 1 1 2
M  V30 2 1 2 3
M  V30 3 2 3 4
M  V30 4 1 4 5
M  V30 5 2 5 6
M  V30 6 1 6 7
M  V30 7 1 6 8
M  V30 8 2 8 9
M  V30 9 1 9 10
M  V30 10 2 10 11
M  V30 11 1 11 12
M  V30 12 2 12 13
M  V30 13 1 13 14
M  V30 14 1 14 15
M  V30 15 1 15 16
M  V30 16 1 16 17
M  V30 17 2 17 18
M  V30 18 1 18 19
M  V30 19 1 19 20
M  V30 20 1 19 21
M  V30 21 1 19 22
M  V30 22 1 22 23
M  V30 23 1 23 24
M  V30 24 2 23 25
M  V30 25 2 23 26
M  V30 26 1 22 27
M  V30 27 1 27 28
M  V30 28 2 16 29
M  V30 29 1 29 30
M  V30 30 1 9 3
M  V30 31 1 30 10
M  V30 32 2 30 14
M  V30 33 1 28 17
M  V30 34 1 1 31
M  V30 35 1 1 32
M  V30 36 1 1 33
M  V30 37 1 4 34
M  V30 38 1 5 35
M  V30 39 1 8 36
M  V30 40 1 11 37
M  V30 41 1 12 38
M  V30 42 1 15 39
M  V30 43 1 18 40
M  V30 44 1 20 41
M  V30 45 1 20 42
M  V30 46 1 20 43
M  V30 47 1 21 44
M  V30 48 1 21 45
M  V30 49 1 21 46
M  V30 50 1 24 47
M  V30 51 1 24 48
M  V30 52 1 24 49
M  V30 53 1 27 50
M  V30 54 1 27 51
M  V30 55 1 28 52
M  V30 56 1 28 53
M  V30 57 1 29 54
M  V30 END BOND
M  V30 END CTAB
M  END
>  <Dataset>  (876) 
ChEMBL_Kinases

>  <Ligand_Instance>  (876) 
nan

>  <PDB_ID>  (876) 
nan

>  <Standardized_SMILES>  (876) 
COc1ccc(F)cc1-c1ccnc2[nH]c(C3=CC(C)(C)N(S(C)(=O)=O)CC3)cc12

>  <Name>  (876) 
nan

>  <Pocket>  (876) 
nan

>  <ATP_Site>  (876) 
nan

>  <Peripheral>  (876) 
nan

>  <Num_H_Atoms_ProtBoundConf>  (876) 
nan

>  <Num_Resolved_Atoms>  (876) 
nan

>  <Num_Not_Resolved_Atoms>  (876) 
nan

$$$$
CHEMBL3668535
     RDKit          3D

  0  0  0  0  0  0  0  0  0  0999 V3000
M  V30 BEGIN CTAB
M  V30 COUNTS 59 62 0 0 0
M  V30 BEGIN ATOM
M  V30 1 C 1.249698 0.804649 5.445468 0
M  V30 2 O 2.005682 0.967519 4.286222 0
M  V30 3 C 3.104588 0.219835 3.900432 0
M  V30 4 C 3.730596 -0.837965 4.518204 0
M  V30 5 C 4.835258 -1.430366 3.916509 0
M  V30 6 C 5.346341 -1.005876 2.711607 0
M  V30 7 F 6.441345 -1.650075 2.203306 0
M  V30 8 C 4.714768 0.058309 2.092444 0
M  V30 9 C 3.614251 0.657531 2.678843 0
M  V30 10 C 3.097439 1.766753 1.862584 0
M  V30 11 C 3.647009 3.015987 2.107459 0
M  V30 12 C 3.133338 4.028275 1.322302 0
M  V30 13 N 2.171606 3.829445 0.386443 0
M  V30 14 C 1.674122 2.596355 0.191893 0
M  V30 15 N 0.730213 2.141155 -0.662543 0
M  V30 16 C 0.540331 0.805558 -0.518109 0
M  V30 17 C -0.405199 -0.062635 -1.249838 0
M  V30 18 C -1.166601 0.573710 -2.109125 0
M  V30 19 C -2.124323 -0.241726 -2.866432 0
M  V30 20 N -2.568384 -1.381148 -2.133700 0
M  V30 21 C -3.249048 -0.961598 -0.920056 0
M  V30 22 C -4.020641 -2.087949 -0.346923 0
M  V30 23 O -4.589175 -1.779632 0.757979 0
M  V30 24 N -4.403084 -3.467030 -0.559454 0
M  V30 25 C -5.229638 -3.995082 0.505288 0
M  V30 26 C -4.200559 -4.506673 -1.588610 0
M  V30 27 C -1.431016 -2.234973 -1.742096 0 CFG=1
M  V30 28 C -0.835113 -2.858637 -2.959283 0
M  V30 29 O 0.258789 -3.676354 -2.652944 0
M  V30 30 C -0.390172 -1.501184 -0.950505 0
M  V30 31 C 1.418875 0.428669 0.479640 0
M  V30 32 C 2.119003 1.519790 0.921814 0
M  V30 33 H 1.726805 0.233179 6.257045 0
M  V30 34 H 0.864052 1.805717 5.761521 0
M  V30 35 H 0.312950 0.258246 5.123616 0
M  V30 36 H 3.261726 -1.097968 5.452818 0
M  V30 37 H 5.266921 -2.253481 4.469630 0
M  V30 38 H 5.164228 0.342574 1.152094 0
M  V30 39 H 4.409906 3.210213 2.840919 0
M  V30 40 H 3.464579 5.053355 1.402882 0
M  V30 41 H 0.247436 2.763355 -1.315279 0
M  V30 42 H -1.121040 1.642922 -2.284436 0
M  V30 43 H -1.741443 -0.511744 -3.882770 0
M  V30 44 H -3.008452 0.434985 -3.079997 0
M  V30 45 H -3.931226 -0.108912 -1.082475 0
M  V30 46 H -2.508183 -0.669463 -0.129918 0
M  V30 47 H -5.968015 -4.758310 0.150628 0
M  V30 48 H -5.825408 -3.188544 1.003288 0
M  V30 49 H -4.566158 -4.417786 1.314935 0
M  V30 50 H -5.176732 -4.893171 -1.880045 0
M  V30 51 H -3.749498 -4.023669 -2.506247 0
M  V30 52 H -3.496079 -5.250429 -1.221105 0
M  V30 53 H -1.854833 -3.086342 -1.139722 0
M  V30 54 H -0.523188 -2.142013 -3.735450 0
M  V30 55 H -1.568989 -3.544913 -3.475622 0
M  V30 56 H 0.047830 -4.378915 -2.000956 0
M  V30 57 H -0.467562 -1.708345 0.144732 0
M  V30 58 H 0.638439 -1.890564 -1.225322 0
M  V30 59 H 1.550507 -0.569552 0.865968 0
M  V30 END ATOM
M  V30 BEGIN BOND
M  V30 1 1 1 2
M  V30 2 1 2 3
M  V30 3 2 3 4
M  V30 4 1 4 5
M  V30 5 2 5 6
M  V30 6 1 6 7
M  V30 7 1 6 8
M  V30 8 2 8 9
M  V30 9 1 9 10
M  V30 10 2 10 11
M  V30 11 1 11 12
M  V30 12 2 12 13
M  V30 13 1 13 14
M  V30 14 1 14 15
M  V30 15 1 15 16
M  V30 16 1 16 17
M  V30 17 2 17 18
M  V30 18 1 18 19
M  V30 19 1 19 20
M  V30 20 1 20 21
M  V30 21 1 21 22
M  V30 22 2 22 23
M  V30 23 1 22 24
M  V30 24 1 24 25
M  V30 25 1 24 26
M  V30 26 1 20 27
M  V30 27 1 27 28
M  V30 28 1 28 29
M  V30 29 1 27 30
M  V30 30 2 16 31
M  V30 31 1 31 32
M  V30 32 1 9 3
M  V30 33 1 32 10
M  V30 34 2 32 14
M  V30 35 1 30 17
M  V30 36 1 1 33
M  V30 37 1 1 34
M  V30 38 1 1 35
M  V30 39 1 4 36
M  V30 40 1 5 37
M  V30 41 1 8 38
M  V30 42 1 11 39
M  V30 43 1 12 40
M  V30 44 1 15 41
M  V30 45 1 18 42
M  V30 46 1 19 43
M  V30 47 1 19 44
M  V30 48 1 21 45
M  V30 49 1 21 46
M  V30 50 1 25 47
M  V30 51 1 25 48
M  V30 52 1 25 49
M  V30 53 1 26 50
M  V30 54 1 26 51
M  V30 55 1 26 52
M  V30 56 1 27 53 CFG=1
M  V30 57 1 28 54
M  V30 58 1 28 55
M  V30 59 1 29 56
M  V30 60 1 30 57
M  V30 61 1 30 58
M  V30 62 1 31 59
M  V30 END BOND
M  V30 END CTAB
M  END
>  <Dataset>  (877) 
ChEMBL_Kinases

>  <Ligand_Instance>  (877) 
nan

>  <PDB_ID>  (877) 
nan

>  <Standardized_SMILES>  (877) 
COc1ccc(F)cc1-c1ccnc2[nH]c(C3=CCN(CC(=O)N(C)C)[C@@H](CO)C3)cc12

>  <Name>  (877) 
nan

>  <Pocket>  (877) 
nan

>  <ATP_Site>  (877) 
nan

>  <Peripheral>  (877) 
nan

>  <Num_H_Atoms_ProtBoundConf>  (877) 
nan

>  <Num_Resolved_Atoms>  (877) 
nan

>  <Num_Not_Resolved_Atoms>  (877) 
nan

$$$$
CHEMBL3668534
     RDKit          3D

  0  0  0  0  0  0  0  0  0  0999 V3000
M  V30 BEGIN CTAB
M  V30 COUNTS 59 62 0 0 0
M  V30 BEGIN ATOM
M  V30 1 C 2.237769 1.632684 5.678680 0
M  V30 2 O 2.594204 1.350639 4.362356 0
M  V30 3 C 3.139868 0.196321 3.870176 0
M  V30 4 C 3.460020 -0.944894 4.551338 0
M  V30 5 C 4.012586 -2.056024 3.930624 0
M  V30 6 C 4.246321 -1.995668 2.560699 0
M  V30 7 F 4.788720 -3.102053 1.998066 0
M  V30 8 C 3.922392 -0.833281 1.854043 0
M  V30 9 C 3.365704 0.269898 2.513436 0
M  V30 10 C 3.130310 1.327300 1.536017 0
M  V30 11 C 4.117559 2.260415 1.305740 0
M  V30 12 C 3.835093 3.244573 0.358094 0
M  V30 13 N 2.664752 3.291168 -0.301855 0
M  V30 14 C 1.687873 2.394879 -0.095627 0
M  V30 15 N 0.454661 2.136245 -0.544359 0
M  V30 16 C -0.092382 1.054536 0.038422 0
M  V30 17 C -1.430376 0.482151 -0.216411 0
M  V30 18 C -1.778017 -0.589038 0.476296 0
M  V30 19 C -3.156403 -0.961083 0.033373 0 CFG=2
M  V30 20 C -3.639883 -2.177996 0.779266 0
M  V30 21 O -4.975266 -2.461920 0.494222 0
M  V30 22 N -3.213465 -1.024309 -1.350477 0
M  V30 23 C -3.305599 -2.181443 -2.093606 0
M  V30 24 C -2.145591 -3.074009 -2.101629 0
M  V30 25 O -1.141618 -2.704433 -1.417930 0
M  V30 26 N -1.530818 -4.269503 -2.542842 0
M  V30 27 C -0.205873 -4.277078 -1.936198 0
M  V30 28 C -2.249739 -5.171830 -3.423747 0
M  V30 29 C -3.215832 0.254051 -1.959848 0
M  V30 30 C -2.284244 1.173032 -1.246733 0
M  V30 31 C 0.853426 0.587111 0.921582 0
M  V30 32 C 1.941383 1.410114 0.836614 0
M  V30 33 H 2.308757 0.723705 6.285562 0
M  V30 34 H 2.763395 2.505014 6.129074 0
M  V30 35 H 1.148317 1.930067 5.649449 0
M  V30 36 H 3.258810 -0.939278 5.612303 0
M  V30 37 H 4.253222 -2.947205 4.511279 0
M  V30 38 H 4.164870 -0.948762 0.799248 0
M  V30 39 H 5.069551 2.275211 1.799796 0
M  V30 40 H 4.534089 4.036743 0.084592 0
M  V30 41 H -0.024929 2.712830 -1.270079 0
M  V30 42 H -1.121165 -1.028630 1.196850 0
M  V30 43 H -3.822258 -0.125306 0.389917 0
M  V30 44 H -3.062512 -3.085674 0.508386 0
M  V30 45 H -3.635183 -1.995754 1.883759 0
M  V30 46 H -5.492580 -1.700468 0.858303 0
M  V30 47 H -4.217049 -2.761019 -1.752992 0
M  V30 48 H -3.597697 -1.899791 -3.150634 0
M  V30 49 H 0.258658 -5.260434 -2.211718 0
M  V30 50 H -0.239607 -4.294283 -0.825375 0
M  V30 51 H 0.410934 -3.464649 -2.334838 0
M  V30 52 H -3.086109 -5.664724 -2.886227 0
M  V30 53 H -1.581537 -6.000756 -3.776315 0
M  V30 54 H -2.709898 -4.613470 -4.262977 0
M  V30 55 H -2.943214 0.237459 -3.040400 0
M  V30 56 H -4.273169 0.650829 -1.848851 0
M  V30 57 H -2.878327 1.984777 -0.773346 0
M  V30 58 H -1.640146 1.693308 -1.987912 0
M  V30 59 H 0.736112 -0.275231 1.554913 0
M  V30 END ATOM
M  V30 BEGIN BOND
M  V30 1 1 1 2
M  V30 2 1 2 3
M  V30 3 2 3 4
M  V30 4 1 4 5
M  V30 5 2 5 6
M  V30 6 1 6 7
M  V30 7 1 6 8
M  V30 8 2 8 9
M  V30 9 1 9 10
M  V30 10 2 10 11
M  V30 11 1 11 12
M  V30 12 2 12 13
M  V30 13 1 13 14
M  V30 14 1 14 15
M  V30 15 1 15 16
M  V30 16 1 16 17
M  V30 17 2 17 18
M  V30 18 1 18 19
M  V30 19 1 19 20
M  V30 20 1 20 21
M  V30 21 1 19 22
M  V30 22 1 22 23
M  V30 23 1 23 24
M  V30 24 2 24 25
M  V30 25 1 24 26
M  V30 26 1 26 27
M  V30 27 1 26 28
M  V30 28 1 22 29
M  V30 29 1 29 30
M  V30 30 2 16 31
M  V30 31 1 31 32
M  V30 32 1 9 3
M  V30 33 1 32 10
M  V30 34 2 32 14
M  V30 35 1 30 17
M  V30 36 1 1 33
M  V30 37 1 1 34
M  V30 38 1 1 35
M  V30 39 1 4 36
M  V30 40 1 5 37
M  V30 41 1 8 38
M  V30 42 1 11 39
M  V30 43 1 12 40
M  V30 44 1 15 41
M  V30 45 1 18 42
M  V30 46 1 19 43 CFG=1
M  V30 47 1 20 44
M  V30 48 1 20 45
M  V30 49 1 21 46
M  V30 50 1 23 47
M  V30 51 1 23 48
M  V30 52 1 27 49
M  V30 53 1 27 50
M  V30 54 1 27 51
M  V30 55 1 28 52
M  V30 56 1 28 53
M  V30 57 1 28 54
M  V30 58 1 29 55
M  V30 59 1 29 56
M  V30 60 1 30 57
M  V30 61 1 30 58
M  V30 62 1 31 59
M  V30 END BOND
M  V30 END CTAB
M  END
>  <Dataset>  (878) 
ChEMBL_Kinases

>  <Ligand_Instance>  (878) 
nan

>  <PDB_ID>  (878) 
nan

>  <Standardized_SMILES>  (878) 
COc1ccc(F)cc1-c1ccnc2[nH]c(C3=C[C@H](CO)N(CC(=O)N(C)C)CC3)cc12

>  <Name>  (878) 
nan

>  <Pocket>  (878) 
nan

>  <ATP_Site>  (878) 
nan

>  <Peripheral>  (878) 
nan

>  <Num_H_Atoms_ProtBoundConf>  (878) 
nan

>  <Num_Resolved_Atoms>  (878) 
nan

>  <Num_Not_Resolved_Atoms>  (878) 
nan

$$$$
CHEMBL3668533
     RDKit          3D

  0  0  0  0  0  0  0  0  0  0999 V3000
M  V30 BEGIN CTAB
M  V30 COUNTS 64 68 0 0 0
M  V30 BEGIN ATOM
M  V30 1 C 1.368499 2.012285 6.230024 0
M  V30 2 O 1.782813 2.082300 4.884830 0
M  V30 3 C 2.587772 1.164789 4.263935 0
M  V30 4 C 3.135753 0.024757 4.814088 0
M  V30 5 C 3.940440 -0.850496 4.114374 0
M  V30 6 C 4.205152 -0.553615 2.779719 0
M  V30 7 F 4.993969 -1.410226 2.087895 0
M  V30 8 C 3.663447 0.592141 2.200464 0
M  V30 9 C 2.849584 1.465512 2.930947 0
M  V30 10 C 2.403636 2.580522 2.130493 0
M  V30 11 C 3.126965 3.752638 2.051915 0
M  V30 12 F 4.291404 3.914996 2.723278 0
M  V30 13 C 2.566132 4.719594 1.244800 0
M  V30 14 N 1.416696 4.602103 0.561740 0
M  V30 15 C 0.697480 3.467350 0.625627 0
M  V30 16 N -0.471218 3.012484 0.086011 0
M  V30 17 C -0.755302 1.760791 0.482278 0
M  V30 18 C -1.928938 1.066583 0.047161 0
M  V30 19 C -2.262478 -0.145583 0.398789 0
M  V30 20 C -3.523253 -0.672359 -0.172492 0
M  V30 21 N -3.436858 -0.598334 -1.614821 0
M  V30 22 C -2.376146 -1.494481 -2.066650 0
M  V30 23 C -2.818299 -2.878173 -1.813026 0
M  V30 24 O -3.781598 -3.535359 -1.352016 0
M  V30 25 N -2.024466 -4.014267 -2.127921 0
M  V30 26 C -2.506974 -5.366799 -1.860089 0
M  V30 27 C -2.162872 -6.054960 -3.180763 0
M  V30 28 C -0.742882 -5.567485 -3.370451 0
M  V30 29 C -0.712368 -4.205839 -2.708495 0 CFG=2
M  V30 30 C 0.382365 -4.256546 -1.670889 0
M  V30 31 O 0.492533 -3.119495 -0.906924 0
M  V30 32 C -3.192386 0.747241 -2.033544 0
M  V30 33 C -2.941879 1.639156 -0.867225 0
M  V30 34 C 0.277681 1.437814 1.294756 0
M  V30 35 C 0.438078 0.185711 1.976179 0
M  V30 36 N 0.586622 -0.821064 2.531720 0
M  V30 37 C 1.218503 2.453612 1.429114 0
M  V30 38 H 0.415298 1.443219 6.235422 0
M  V30 39 H 2.062474 1.421604 6.867353 0
M  V30 40 H 1.149655 3.010452 6.657493 0
M  V30 41 H 2.890095 -0.157464 5.872759 0
M  V30 42 H 4.347195 -1.732255 4.588066 0
M  V30 43 H 3.942397 0.719467 1.145765 0
M  V30 44 H 3.110166 5.667906 1.154272 0
M  V30 45 H -0.962634 3.695094 -0.545291 0
M  V30 46 H -1.668286 -0.740962 1.063236 0
M  V30 47 H -3.693899 -1.731863 0.122312 0
M  V30 48 H -4.372474 -0.107664 0.209216 0
M  V30 49 H -2.312824 -1.366029 -3.169520 0
M  V30 50 H -1.418572 -1.271990 -1.595683 0
M  V30 51 H -1.842321 -5.775680 -1.076141 0
M  V30 52 H -3.570073 -5.425054 -1.632799 0
M  V30 53 H -2.777345 -5.612312 -3.999025 0
M  V30 54 H -2.237603 -7.148703 -3.125749 0
M  V30 55 H -0.106426 -6.321818 -2.828272 0
M  V30 56 H -0.443320 -5.532671 -4.431898 0
M  V30 57 H -0.474351 -3.451588 -3.468065 0
M  V30 58 H 1.345616 -4.477358 -2.163099 0
M  V30 59 H 0.199792 -5.102810 -0.959778 0
M  V30 60 H -0.229174 -3.072260 -0.211140 0
M  V30 61 H -4.154479 1.109906 -2.502372 0
M  V30 62 H -2.355909 0.818894 -2.771030 0
M  V30 63 H -2.540903 2.634819 -1.187544 0
M  V30 64 H -3.879233 1.784441 -0.259602 0
M  V30 END ATOM
M  V30 BEGIN BOND
M  V30 1 1 1 2
M  V30 2 1 2 3
M  V30 3 2 3 4
M  V30 4 1 4 5
M  V30 5 2 5 6
M  V30 6 1 6 7
M  V30 7 1 6 8
M  V30 8 2 8 9
M  V30 9 1 9 10
M  V30 10 2 10 11
M  V30 11 1 11 12
M  V30 12 1 11 13
M  V30 13 2 13 14
M  V30 14 1 14 15
M  V30 15 1 15 16
M  V30 16 1 16 17
M  V30 17 1 17 18
M  V30 18 2 18 19
M  V30 19 1 19 20
M  V30 20 1 20 21
M  V30 21 1 21 22
M  V30 22 1 22 23
M  V30 23 2 23 24
M  V30 24 1 23 25
M  V30 25 1 25 26
M  V30 26 1 26 27
M  V30 27 1 27 28
M  V30 28 1 28 29
M  V30 29 1 29 30
M  V30 30 1 30 31
M  V30 31 1 21 32
M  V30 32 1 32 33
M  V30 33 2 17 34
M  V30 34 1 34 35
M  V30 35 3 35 36
M  V30 36 1 34 37
M  V30 37 1 9 3
M  V30 38 1 37 10
M  V30 39 2 37 15
M  V30 40 1 33 18
M  V30 41 1 29 25
M  V30 42 1 1 38
M  V30 43 1 1 39
M  V30 44 1 1 40
M  V30 45 1 4 41
M  V30 46 1 5 42
M  V30 47 1 8 43
M  V30 48 1 13 44
M  V30 49 1 16 45
M  V30 50 1 19 46
M  V30 51 1 20 47
M  V30 52 1 20 48
M  V30 53 1 22 49
M  V30 54 1 22 50
M  V30 55 1 26 51
M  V30 56 1 26 52
M  V30 57 1 27 53
M  V30 58 1 27 54
M  V30 59 1 28 55
M  V30 60 1 28 56
M  V30 61 1 29 57 CFG=3
M  V30 62 1 30 58
M  V30 63 1 30 59
M  V30 64 1 31 60
M  V30 65 1 32 61
M  V30 66 1 32 62
M  V30 67 1 33 63
M  V30 68 1 33 64
M  V30 END BOND
M  V30 END CTAB
M  END
>  <Dataset>  (879) 
ChEMBL_Kinases

>  <Ligand_Instance>  (879) 
nan

>  <PDB_ID>  (879) 
nan

>  <Standardized_SMILES>  (879) 
COc1ccc(F)cc1-c1c(F)cnc2[nH]c(C3=CCN(CC(=O)N4CCC[C@@H]4CO)CC3)c(C#N)c12

>  <Name>  (879) 
nan

>  <Pocket>  (879) 
nan

>  <ATP_Site>  (879) 
nan

>  <Peripheral>  (879) 
nan

>  <Num_H_Atoms_ProtBoundConf>  (879) 
nan

>  <Num_Resolved_Atoms>  (879) 
nan

>  <Num_Not_Resolved_Atoms>  (879) 
nan

$$$$
CHEMBL3668532
     RDKit          3D

  0  0  0  0  0  0  0  0  0  0999 V3000
M  V30 BEGIN CTAB
M  V30 COUNTS 58 62 0 0 0
M  V30 BEGIN ATOM
M  V30 1 C 2.989357 -0.537744 4.150165 0
M  V30 2 O 2.820959 0.440129 3.169919 0
M  V30 3 C 3.528160 0.525681 1.982412 0
M  V30 4 C 4.472589 -0.457269 1.783315 0
M  V30 5 C 5.258568 -0.509402 0.650143 0
M  V30 6 C 5.047734 0.494838 -0.297376 0
M  V30 7 F 5.763444 0.545210 -1.454411 0
M  V30 8 C 4.113895 1.485954 -0.123866 0
M  V30 9 C 3.341819 1.513574 1.018453 0
M  V30 10 C 2.296161 2.479731 1.370492 0
M  V30 11 C 2.619515 3.612346 2.078138 0
M  V30 12 F 3.899585 3.827517 2.446717 0
M  V30 13 C 1.572112 4.461095 2.361767 0
M  V30 14 N 0.287569 4.233307 1.986019 0
M  V30 15 C -0.056341 3.121239 1.286357 0
M  V30 16 N -1.180990 2.591305 0.768692 0
M  V30 17 C -0.917565 1.419842 0.150377 0
M  V30 18 C -1.867749 0.537452 -0.523593 0
M  V30 19 C -3.180122 0.818727 -0.549846 0
M  V30 20 C -4.247918 0.003803 -1.199446 0
M  V30 21 N -3.689737 -1.357451 -1.251609 0
M  V30 22 C -3.579515 -1.819488 0.089562 0
M  V30 23 C -2.926631 -3.106105 0.294928 0
M  V30 24 O -2.919320 -3.391630 1.541822 0
M  V30 25 N -2.279465 -4.213555 -0.262741 0
M  V30 26 C -1.769455 -5.341443 0.484585 0
M  V30 27 C -1.999765 -6.179949 -0.755845 0
M  V30 28 O -3.314546 -6.649914 -0.868568 0
M  V30 29 C -1.792686 -4.860525 -1.464295 0
M  V30 30 C -2.504135 -1.293335 -2.027021 0
M  V30 31 C -1.390974 -0.683611 -1.206389 0
M  V30 32 C 0.434885 1.184858 0.275381 0
M  V30 33 C 1.207689 0.062435 -0.205505 0
M  V30 34 N 1.848684 -0.840486 -0.609601 0
M  V30 35 C 0.971422 2.257305 0.990300 0
M  V30 36 H 2.061548 -0.511785 4.785835 0
M  V30 37 H 3.834944 -0.273494 4.839580 0
M  V30 38 H 3.086766 -1.565535 3.798397 0
M  V30 39 H 4.672271 -1.259533 2.488418 0
M  V30 40 H 6.017519 -1.242780 0.417285 0
M  V30 41 H 3.913211 2.283922 -0.821067 0
M  V30 42 H 1.814317 5.360926 2.923422 0
M  V30 43 H -2.095868 3.070596 0.867013 0
M  V30 44 H -3.526635 1.714616 -0.061335 0
M  V30 45 H -4.482407 0.399322 -2.209787 0
M  V30 46 H -5.144130 -0.028165 -0.553840 0
M  V30 47 H -3.194918 -1.031268 0.807529 0
M  V30 48 H -4.644216 -1.954264 0.450696 0
M  V30 49 H -2.373658 -5.715699 1.321980 0
M  V30 50 H -0.684526 -5.287097 0.717234 0
M  V30 51 H -1.232352 -6.939633 -0.948233 0
M  V30 52 H -3.483687 -7.418168 -0.288160 0
M  V30 53 H -0.700374 -4.698167 -1.657343 0
M  V30 54 H -2.431172 -4.770805 -2.358412 0
M  V30 55 H -2.698069 -0.543556 -2.845633 0
M  V30 56 H -2.192079 -2.204214 -2.541409 0
M  V30 57 H -1.079209 -1.405235 -0.459477 0
M  V30 58 H -0.549899 -0.392280 -1.864860 0
M  V30 END ATOM
M  V30 BEGIN BOND
M  V30 1 1 1 2
M  V30 2 1 2 3
M  V30 3 2 3 4
M  V30 4 1 4 5
M  V30 5 2 5 6
M  V30 6 1 6 7
M  V30 7 1 6 8
M  V30 8 2 8 9
M  V30 9 1 9 10
M  V30 10 2 10 11
M  V30 11 1 11 12
M  V30 12 1 11 13
M  V30 13 2 13 14
M  V30 14 1 14 15
M  V30 15 1 15 16
M  V30 16 1 16 17
M  V30 17 1 17 18
M  V30 18 2 18 19
M  V30 19 1 19 20
M  V30 20 1 20 21
M  V30 21 1 21 22
M  V30 22 1 22 23
M  V30 23 2 23 24
M  V30 24 1 23 25
M  V30 25 1 25 26
M  V30 26 1 26 27
M  V30 27 1 27 28
M  V30 28 1 27 29
M  V30 29 1 21 30
M  V30 30 1 30 31
M  V30 31 2 17 32
M  V30 32 1 32 33
M  V30 33 3 33 34
M  V30 34 1 32 35
M  V30 35 1 9 3
M  V30 36 1 35 10
M  V30 37 2 35 15
M  V30 38 1 31 18
M  V30 39 1 29 25
M  V30 40 1 1 36
M  V30 41 1 1 37
M  V30 42 1 1 38
M  V30 43 1 4 39
M  V30 44 1 5 40
M  V30 45 1 8 41
M  V30 46 1 13 42
M  V30 47 1 16 43
M  V30 48 1 19 44
M  V30 49 1 20 45
M  V30 50 1 20 46
M  V30 51 1 22 47
M  V30 52 1 22 48
M  V30 53 1 26 49
M  V30 54 1 26 50
M  V30 55 1 27 51
M  V30 56 1 28 52
M  V30 57 1 29 53
M  V30 58 1 29 54
M  V30 59 1 30 55
M  V30 60 1 30 56
M  V30 61 1 31 57
M  V30 62 1 31 58
M  V30 END BOND
M  V30 END CTAB
M  END
>  <Dataset>  (880) 
ChEMBL_Kinases

>  <Ligand_Instance>  (880) 
nan

>  <PDB_ID>  (880) 
nan

>  <Standardized_SMILES>  (880) 
COc1ccc(F)cc1-c1c(F)cnc2[nH]c(C3=CCN(CC(=O)N4CC(O)C4)CC3)c(C#N)c12

>  <Name>  (880) 
nan

>  <Pocket>  (880) 
nan

>  <ATP_Site>  (880) 
nan

>  <Peripheral>  (880) 
nan

>  <Num_H_Atoms_ProtBoundConf>  (880) 
nan

>  <Num_Resolved_Atoms>  (880) 
nan

>  <Num_Not_Resolved_Atoms>  (880) 
nan

$$$$
CHEMBL3668531
     RDKit          3D

  0  0  0  0  0  0  0  0  0  0999 V3000
M  V30 BEGIN CTAB
M  V30 COUNTS 50 53 0 0 0
M  V30 BEGIN ATOM
M  V30 1 C 4.131673 -1.598791 5.932417 0
M  V30 2 N 4.251846 -1.595147 4.482699 0
M  V30 3 C 3.408502 -2.446521 3.710222 0
M  V30 4 O 2.613833 -3.142185 4.394859 0
M  V30 5 N 3.533745 -2.436461 2.282440 0
M  V30 6 C 4.398374 -1.693672 1.350196 0
M  V30 7 C 3.474849 -0.727742 0.694273 0
M  V30 8 C 2.231183 -1.122403 0.468598 0
M  V30 9 C 1.332448 -0.169300 -0.174793 0
M  V30 10 N 1.681196 1.089328 -0.556905 0
M  V30 11 C 0.620050 1.705453 -1.118984 0
M  V30 12 N 0.444939 2.928649 -1.646824 0
M  V30 13 C -0.728893 3.322382 -2.156923 0
M  V30 14 C -1.804144 2.491043 -2.161751 0
M  V30 15 F -3.042102 2.783794 -2.652205 0
M  V30 16 C -1.710341 1.217808 -1.639253 0
M  V30 17 C -2.819132 0.265575 -1.607396 0
M  V30 18 C -2.990724 -0.595412 -2.691847 0
M  V30 19 C -4.044028 -1.496893 -2.656887 0
M  V30 20 F -4.278923 -2.361924 -3.662680 0
M  V30 21 C -4.883833 -1.516327 -1.561468 0
M  V30 22 C -4.683904 -0.649980 -0.506792 0
M  V30 23 C -3.653814 0.267940 -0.485559 0
M  V30 24 O -3.419442 1.156261 0.556501 0
M  V30 25 C -4.273802 1.147083 1.687128 0
M  V30 26 C -0.467808 0.850909 -1.118650 0
M  V30 27 C 0.005749 -0.303263 -0.526721 0
M  V30 28 C -0.789526 -1.467811 -0.317011 0
M  V30 29 N -1.449525 -2.411027 -0.161431 0
M  V30 30 C 1.665998 -2.439492 0.807306 0
M  V30 31 C 2.649973 -3.323194 1.545610 0
M  V30 32 H 3.907711 -0.582203 6.305869 0
M  V30 33 H 3.409591 -2.337122 6.293602 0
M  V30 34 H 5.168612 -1.819378 6.302305 0
M  V30 35 H 4.962966 -0.957789 4.066575 0
M  V30 36 H 5.191350 -1.161303 1.924499 0
M  V30 37 H 4.855554 -2.403712 0.643881 0
M  V30 38 H 3.853669 0.249546 0.430563 0
M  V30 39 H 2.607877 1.590871 -0.469366 0
M  V30 40 H -0.895365 4.298919 -2.586426 0
M  V30 41 H -2.328359 -0.566525 -3.535086 0
M  V30 42 H -5.727613 -2.208039 -1.487007 0
M  V30 43 H -5.357938 -0.687981 0.338197 0
M  V30 44 H -4.469633 0.088024 2.006862 0
M  V30 45 H -5.274783 1.588531 1.478993 0
M  V30 46 H -3.832720 1.666012 2.550351 0
M  V30 47 H 1.295492 -2.958622 -0.102916 0
M  V30 48 H 0.831525 -2.256108 1.527792 0
M  V30 49 H 3.214581 -3.904257 0.769373 0
M  V30 50 H 2.084589 -4.008982 2.203036 0
M  V30 END ATOM
M  V30 BEGIN BOND
M  V30 1 1 1 2
M  V30 2 1 2 3
M  V30 3 2 3 4
M  V30 4 1 3 5
M  V30 5 1 5 6
M  V30 6 1 6 7
M  V30 7 2 7 8
M  V30 8 1 8 9
M  V30 9 1 9 10
M  V30 10 1 10 11
M  V30 11 2 11 12
M  V30 12 1 12 13
M  V30 13 2 13 14
M  V30 14 1 14 15
M  V30 15 1 14 16
M  V30 16 1 16 17
M  V30 17 2 17 18
M  V30 18 1 18 19
M  V30 19 1 19 20
M  V30 20 2 19 21
M  V30 21 1 21 22
M  V30 22 2 22 23
M  V30 23 1 23 24
M  V30 24 1 24 25
M  V30 25 2 16 26
M  V30 26 1 26 27
M  V30 27 1 27 28
M  V30 28 3 28 29
M  V30 29 1 8 30
M  V30 30 1 30 31
M  V30 31 1 31 5
M  V30 32 2 27 9
M  V30 33 1 26 11
M  V30 34 1 23 17
M  V30 35 1 1 32
M  V30 36 1 1 33
M  V30 37 1 1 34
M  V30 38 1 2 35
M  V30 39 1 6 36
M  V30 40 1 6 37
M  V30 41 1 7 38
M  V30 42 1 10 39
M  V30 43 1 13 40
M  V30 44 1 18 41
M  V30 45 1 21 42
M  V30 46 1 22 43
M  V30 47 1 25 44
M  V30 48 1 25 45
M  V30 49 1 25 46
M  V30 50 1 30 47
M  V30 51 1 30 48
M  V30 52 1 31 49
M  V30 53 1 31 50
M  V30 END BOND
M  V30 END CTAB
M  END
>  <Dataset>  (881) 
ChEMBL_Kinases

>  <Ligand_Instance>  (881) 
nan

>  <PDB_ID>  (881) 
nan

>  <Standardized_SMILES>  (881) 
CNC(=O)N1CC=C(c2[nH]c3ncc(F)c(-c4cc(F)ccc4OC)c3c2C#N)CC1

>  <Name>  (881) 
nan

>  <Pocket>  (881) 
nan

>  <ATP_Site>  (881) 
nan

>  <Peripheral>  (881) 
nan

>  <Num_H_Atoms_ProtBoundConf>  (881) 
nan

>  <Num_Resolved_Atoms>  (881) 
nan

>  <Num_Not_Resolved_Atoms>  (881) 
nan

$$$$
CHEMBL3668530
     RDKit          3D

  0  0  0  0  0  0  0  0  0  0999 V3000
M  V30 BEGIN CTAB
M  V30 COUNTS 49 52 0 0 0
M  V30 BEGIN ATOM
M  V30 1 C 2.394309 1.769252 -3.275132 0
M  V30 2 O 2.330796 1.832696 -1.880739 0
M  V30 3 C 3.281562 1.381516 -0.992791 0
M  V30 4 C 4.455197 0.789807 -1.413063 0
M  V30 5 C 5.430484 0.326394 -0.528490 0
M  V30 6 C 5.205524 0.469108 0.829673 0
M  V30 7 F 6.103457 0.045251 1.766713 0
M  V30 8 C 4.039152 1.057758 1.273773 0
M  V30 9 C 3.082977 1.511538 0.382445 0
M  V30 10 C 1.817490 2.148704 0.798711 0
M  V30 11 C 1.760361 3.509244 0.966824 0
M  V30 12 F 2.818808 4.310857 0.768250 0
M  V30 13 C 0.532467 3.973758 1.353517 0
M  V30 14 N -0.553021 3.220539 1.564896 0
M  V30 15 C -0.508001 1.878700 1.402200 0
M  V30 16 N -1.432491 0.919953 1.546708 0
M  V30 17 C -0.858796 -0.257411 1.258359 0
M  V30 18 C -1.558716 -1.529669 1.306070 0
M  V30 19 C -1.141522 -2.754061 1.057755 0
M  V30 20 C -1.922572 -4.000726 1.130319 0
M  V30 21 N -3.297070 -3.874915 0.781429 0
M  V30 22 S -4.317363 -5.004983 1.560460 0
M  V30 23 C -4.309012 -4.849985 3.321844 0
M  V30 24 O -3.892678 -6.394917 1.182445 0
M  V30 25 O -5.729130 -4.846166 1.074911 0
M  V30 26 C -3.771495 -2.537974 0.805276 0
M  V30 27 C -3.000842 -1.588062 1.687507 0
M  V30 28 C 0.451623 -0.004870 0.929524 0
M  V30 29 C 1.464358 -0.943406 0.548212 0
M  V30 30 N 2.290928 -1.682001 0.241277 0
M  V30 31 C 0.695691 1.366756 1.016762 0
M  V30 32 H 3.445735 1.845046 -3.631067 0
M  V30 33 H 1.994288 0.824711 -3.694507 0
M  V30 34 H 1.892709 2.669581 -3.735082 0
M  V30 35 H 4.670427 0.658648 -2.477423 0
M  V30 36 H 6.350050 -0.137655 -0.875216 0
M  V30 37 H 3.823175 1.188889 2.321355 0
M  V30 38 H 0.379924 5.042342 1.514924 0
M  V30 39 H -2.412694 1.158556 1.840938 0
M  V30 40 H -0.110413 -2.824541 0.772723 0
M  V30 41 H -1.483480 -4.731621 0.392122 0
M  V30 42 H -1.819996 -4.510947 2.115222 0
M  V30 43 H -3.273783 -4.744952 3.724703 0
M  V30 44 H -4.709853 -5.795444 3.742174 0
M  V30 45 H -4.974007 -4.037621 3.676346 0
M  V30 46 H -4.834406 -2.438748 1.047785 0
M  V30 47 H -3.666340 -2.142793 -0.238350 0
M  V30 48 H -3.415764 -0.574254 1.513850 0
M  V30 49 H -3.125148 -1.799332 2.769455 0
M  V30 END ATOM
M  V30 BEGIN BOND
M  V30 1 1 1 2
M  V30 2 1 2 3
M  V30 3 2 3 4
M  V30 4 1 4 5
M  V30 5 2 5 6
M  V30 6 1 6 7
M  V30 7 1 6 8
M  V30 8 2 8 9
M  V30 9 1 9 10
M  V30 10 2 10 11
M  V30 11 1 11 12
M  V30 12 1 11 13
M  V30 13 2 13 14
M  V30 14 1 14 15
M  V30 15 1 15 16
M  V30 16 1 16 17
M  V30 17 1 17 18
M  V30 18 2 18 19
M  V30 19 1 19 20
M  V30 20 1 20 21
M  V30 21 1 21 22
M  V30 22 1 22 23
M  V30 23 2 22 24
M  V30 24 2 22 25
M  V30 25 1 21 26
M  V30 26 1 26 27
M  V30 27 2 17 28
M  V30 28 1 28 29
M  V30 29 3 29 30
M  V30 30 1 28 31
M  V30 31 1 9 3
M  V30 32 1 31 10
M  V30 33 2 31 15
M  V30 34 1 27 18
M  V30 35 1 1 32
M  V30 36 1 1 33
M  V30 37 1 1 34
M  V30 38 1 4 35
M  V30 39 1 5 36
M  V30 40 1 8 37
M  V30 41 1 13 38
M  V30 42 1 16 39
M  V30 43 1 19 40
M  V30 44 1 20 41
M  V30 45 1 20 42
M  V30 46 1 23 43
M  V30 47 1 23 44
M  V30 48 1 23 45
M  V30 49 1 26 46
M  V30 50 1 26 47
M  V30 51 1 27 48
M  V30 52 1 27 49
M  V30 END BOND
M  V30 END CTAB
M  END
>  <Dataset>  (882) 
ChEMBL_Kinases

>  <Ligand_Instance>  (882) 
nan

>  <PDB_ID>  (882) 
nan

>  <Standardized_SMILES>  (882) 
COc1ccc(F)cc1-c1c(F)cnc2[nH]c(C3=CCN(S(C)(=O)=O)CC3)c(C#N)c12

>  <Name>  (882) 
nan

>  <Pocket>  (882) 
nan

>  <ATP_Site>  (882) 
nan

>  <Peripheral>  (882) 
nan

>  <Num_H_Atoms_ProtBoundConf>  (882) 
nan

>  <Num_Resolved_Atoms>  (882) 
nan

>  <Num_Not_Resolved_Atoms>  (882) 
nan

$$$$
CHEMBL3668529
     RDKit          3D

  0  0  0  0  0  0  0  0  0  0999 V3000
M  V30 BEGIN CTAB
M  V30 COUNTS 56 59 0 0 0
M  V30 BEGIN ATOM
M  V30 1 C 3.845853 -0.398290 4.196589 0
M  V30 2 O 3.429067 0.440980 3.172306 0
M  V30 3 C 2.847213 1.706799 3.382961 0
M  V30 4 C 2.663076 2.177004 4.660543 0
M  V30 5 C 2.088794 3.427327 4.877546 0
M  V30 6 C 1.710333 4.179115 3.764489 0
M  V30 7 F 1.145213 5.412145 3.989769 0
M  V30 8 C 1.894637 3.707584 2.474952 0
M  V30 9 C 2.473600 2.447897 2.266198 0
M  V30 10 C 2.645027 2.001548 0.909698 0
M  V30 11 C 3.861086 2.354517 0.330483 0
M  V30 12 F 4.849072 3.062207 0.947097 0
M  V30 13 C 4.080615 1.945138 -0.991881 0
M  V30 14 N 3.185476 1.241669 -1.707084 0
M  V30 15 C 2.008597 0.895474 -1.157479 0
M  V30 16 N 0.912871 0.217278 -1.558925 0
M  V30 17 C -0.010986 0.160588 -0.572429 0
M  V30 18 C -1.290853 -0.492485 -0.681965 0
M  V30 19 C -1.565251 -1.069167 -1.843191 0
M  V30 20 C -2.889664 -1.773722 -2.029567 0
M  V30 21 N -3.263035 -2.361850 -0.798147 0
M  V30 22 C -2.449377 -3.385307 -0.263320 0
M  V30 23 C -2.411427 -4.681220 -0.902425 0
M  V30 24 O -1.576210 -5.399749 -0.232745 0
M  V30 25 N -3.007264 -5.357443 -2.007489 0
M  V30 26 C -3.994785 -5.009285 -3.018282 0
M  V30 27 C -2.607782 -6.741443 -2.309103 0
M  V30 28 C -3.449141 -1.330296 0.202155 0
M  V30 29 C -2.239041 -0.503753 0.472788 0
M  V30 30 C 0.486742 0.825514 0.527370 0
M  V30 31 C -0.139758 1.027178 1.810600 0
M  V30 32 N -0.640991 1.181677 2.841213 0
M  V30 33 C 1.743254 1.275681 0.145644 0
M  V30 34 H 3.789255 -1.452904 3.821957 0
M  V30 35 H 4.924059 -0.226591 4.430505 0
M  V30 36 H 3.227773 -0.369743 5.113136 0
M  V30 37 H 2.950996 1.607670 5.533045 0
M  V30 38 H 1.951155 3.783516 5.893072 0
M  V30 39 H 1.590340 4.314855 1.607024 0
M  V30 40 H 4.980234 2.155431 -1.551301 0
M  V30 41 H 0.910080 -0.162851 -2.533701 0
M  V30 42 H -0.901420 -1.078715 -2.697145 0
M  V30 43 H -2.912612 -2.361139 -2.930421 0
M  V30 44 H -3.606370 -0.920013 -2.208327 0
M  V30 45 H -1.382699 -3.013646 -0.132179 0
M  V30 46 H -2.780243 -3.525191 0.811871 0
M  V30 47 H -4.535935 -4.077151 -2.738214 0
M  V30 48 H -3.482761 -4.824513 -3.979205 0
M  V30 49 H -4.770120 -5.802498 -3.149446 0
M  V30 50 H -3.453660 -7.425216 -2.398363 0
M  V30 51 H -1.834755 -7.074213 -1.581896 0
M  V30 52 H -2.085072 -6.672602 -3.291702 0
M  V30 53 H -4.300475 -0.694263 -0.111601 0
M  V30 54 H -3.786817 -1.772285 1.183089 0
M  V30 55 H -1.704756 -0.939432 1.362085 0
M  V30 56 H -2.497654 0.542320 0.772194 0
M  V30 END ATOM
M  V30 BEGIN BOND
M  V30 1 1 1 2
M  V30 2 1 2 3
M  V30 3 2 3 4
M  V30 4 1 4 5
M  V30 5 2 5 6
M  V30 6 1 6 7
M  V30 7 1 6 8
M  V30 8 2 8 9
M  V30 9 1 9 10
M  V30 10 2 10 11
M  V30 11 1 11 12
M  V30 12 1 11 13
M  V30 13 2 13 14
M  V30 14 1 14 15
M  V30 15 1 15 16
M  V30 16 1 16 17
M  V30 17 1 17 18
M  V30 18 2 18 19
M  V30 19 1 19 20
M  V30 20 1 20 21
M  V30 21 1 21 22
M  V30 22 1 22 23
M  V30 23 2 23 24
M  V30 24 1 23 25
M  V30 25 1 25 26
M  V30 26 1 25 27
M  V30 27 1 21 28
M  V30 28 1 28 29
M  V30 29 2 17 30
M  V30 30 1 30 31
M  V30 31 3 31 32
M  V30 32 1 30 33
M  V30 33 1 9 3
M  V30 34 1 33 10
M  V30 35 2 33 15
M  V30 36 1 29 18
M  V30 37 1 1 34
M  V30 38 1 1 35
M  V30 39 1 1 36
M  V30 40 1 4 37
M  V30 41 1 5 38
M  V30 42 1 8 39
M  V30 43 1 13 40
M  V30 44 1 16 41
M  V30 45 1 19 42
M  V30 46 1 20 43
M  V30 47 1 20 44
M  V30 48 1 22 45
M  V30 49 1 22 46
M  V30 50 1 26 47
M  V30 51 1 26 48
M  V30 52 1 26 49
M  V30 53 1 27 50
M  V30 54 1 27 51
M  V30 55 1 27 52
M  V30 56 1 28 53
M  V30 57 1 28 54
M  V30 58 1 29 55
M  V30 59 1 29 56
M  V30 END BOND
M  V30 END CTAB
M  END
>  <Dataset>  (883) 
ChEMBL_Kinases

>  <Ligand_Instance>  (883) 
nan

>  <PDB_ID>  (883) 
nan

>  <Standardized_SMILES>  (883) 
COc1ccc(F)cc1-c1c(F)cnc2[nH]c(C3=CCN(CC(=O)N(C)C)CC3)c(C#N)c12

>  <Name>  (883) 
nan

>  <Pocket>  (883) 
nan

>  <ATP_Site>  (883) 
nan

>  <Peripheral>  (883) 
nan

>  <Num_H_Atoms_ProtBoundConf>  (883) 
nan

>  <Num_Resolved_Atoms>  (883) 
nan

>  <Num_Not_Resolved_Atoms>  (883) 
nan

$$$$
CHEMBL3668544
     RDKit          3D

  0  0  0  0  0  0  0  0  0  0999 V3000
M  V30 BEGIN CTAB
M  V30 COUNTS 46 49 0 0 0
M  V30 BEGIN ATOM
M  V30 1 C 1.657098 -0.654034 -4.130769 0
M  V30 2 O 1.847968 -0.069410 -2.842940 0
M  V30 3 C 2.755313 -0.647865 -2.003095 0
M  V30 4 C 3.510592 -1.754733 -2.287677 0
M  V30 5 C 4.431849 -2.339524 -1.431016 0
M  V30 6 C 4.567122 -1.721816 -0.198593 0
M  V30 7 F 5.478777 -2.300576 0.648962 0
M  V30 8 C 3.841269 -0.603400 0.160856 0
M  V30 9 C 2.935755 -0.076984 -0.757185 0
M  V30 10 C 2.222821 1.110177 -0.264440 0
M  V30 11 C 2.765017 2.369679 -0.488674 0
M  V30 12 F 3.951549 2.481294 -1.163467 0
M  V30 13 C 2.108729 3.473799 -0.034246 0
M  V30 14 N 0.929626 3.311621 0.632765 0
M  V30 15 C 0.402587 2.102671 0.851798 0
M  V30 16 N -0.733661 1.692986 1.476881 0
M  V30 17 C -0.805264 0.342620 1.424044 0
M  V30 18 C -1.891066 -0.444538 1.993769 0
M  V30 19 C -2.902247 0.139322 2.616706 0
M  V30 20 C -4.082598 -0.498379 3.251333 0
M  V30 21 C -3.713450 -1.922521 3.569902 0
M  V30 22 C -2.801447 -2.018068 4.720366 0
M  V30 23 O -1.657645 -2.544755 4.573200 0
M  V30 24 O -2.065459 -2.033024 5.891613 0
M  V30 25 C -3.120188 -2.572465 2.350344 0
M  V30 26 C -1.867590 -1.927643 1.875768 0
M  V30 27 C 0.290507 -0.143840 0.759842 0
M  V30 28 C 1.039560 0.959818 0.405811 0
M  V30 29 H 2.587653 -0.789684 -4.693006 0
M  V30 30 H 1.203296 -1.676029 -4.062007 0
M  V30 31 H 0.960105 -0.017430 -4.709863 0
M  V30 32 H 3.364020 -2.202115 -3.273904 0
M  V30 33 H 4.985101 -3.215672 -1.741961 0
M  V30 34 H 4.042781 -0.223780 1.146728 0
M  V30 35 H 2.499938 4.461712 -0.190509 0
M  V30 36 H -1.392870 2.392434 1.904668 0
M  V30 37 H -2.873428 1.218504 2.675810 0
M  V30 38 H -4.348694 0.055577 4.175274 0
M  V30 39 H -4.967142 -0.467188 2.584763 0
M  V30 40 H -4.668667 -2.486172 3.770308 0
M  V30 41 H -2.546860 -1.878377 6.781915 0
M  V30 42 H -2.876518 -3.627857 2.630232 0
M  V30 43 H -3.906030 -2.647702 1.582541 0
M  V30 44 H -1.790437 -2.160090 0.773624 0
M  V30 45 H -0.962007 -2.310890 2.354300 0
M  V30 46 H 0.482531 -1.182121 0.577129 0
M  V30 END ATOM
M  V30 BEGIN BOND
M  V30 1 1 1 2
M  V30 2 1 2 3
M  V30 3 2 3 4
M  V30 4 1 4 5
M  V30 5 2 5 6
M  V30 6 1 6 7
M  V30 7 1 6 8
M  V30 8 2 8 9
M  V30 9 1 9 10
M  V30 10 2 10 11
M  V30 11 1 11 12
M  V30 12 1 11 13
M  V30 13 2 13 14
M  V30 14 1 14 15
M  V30 15 1 15 16
M  V30 16 1 16 17
M  V30 17 1 17 18
M  V30 18 2 18 19
M  V30 19 1 19 20
M  V30 20 1 20 21
M  V30 21 1 21 22
M  V30 22 2 22 23
M  V30 23 1 22 24
M  V30 24 1 21 25
M  V30 25 1 25 26
M  V30 26 2 17 27
M  V30 27 1 27 28
M  V30 28 1 9 3
M  V30 29 1 28 10
M  V30 30 2 28 15
M  V30 31 1 26 18
M  V30 32 1 1 29
M  V30 33 1 1 30
M  V30 34 1 1 31
M  V30 35 1 4 32
M  V30 36 1 5 33
M  V30 37 1 8 34
M  V30 38 1 13 35
M  V30 39 1 16 36
M  V30 40 1 19 37
M  V30 41 1 20 38
M  V30 42 1 20 39
M  V30 43 1 21 40
M  V30 44 1 24 41
M  V30 45 1 25 42
M  V30 46 1 25 43
M  V30 47 1 26 44
M  V30 48 1 26 45
M  V30 49 1 27 46
M  V30 END BOND
M  V30 END CTAB
M  END
>  <Dataset>  (884) 
ChEMBL_Kinases

>  <Ligand_Instance>  (884) 
nan

>  <PDB_ID>  (884) 
nan

>  <Standardized_SMILES>  (884) 
COc1ccc(F)cc1-c1c(F)cnc2[nH]c(C3=CCC(C(=O)O)CC3)cc12

>  <Name>  (884) 
nan

>  <Pocket>  (884) 
nan

>  <ATP_Site>  (884) 
nan

>  <Peripheral>  (884) 
nan

>  <Num_H_Atoms_ProtBoundConf>  (884) 
nan

>  <Num_Resolved_Atoms>  (884) 
nan

>  <Num_Not_Resolved_Atoms>  (884) 
nan

$$$$
CHEMBL3669603
     RDKit          3D

  0  0  0  0  0  0  0  0  0  0999 V3000
M  V30 BEGIN CTAB
M  V30 COUNTS 56 60 0 0 0
M  V30 BEGIN ATOM
M  V30 1 C 1.105077 -1.835239 4.442384 0
M  V30 2 C 1.435072 -2.335783 3.056567 0
M  V30 3 C 1.514777 -3.831580 2.986956 0
M  V30 4 C 2.661793 -1.642080 2.607450 0
M  V30 5 N 3.992717 -1.738364 2.539603 0
M  V30 6 N 4.522433 -0.674876 1.978277 0
M  V30 7 C 3.494925 0.167543 1.658059 0
M  V30 8 N 3.768055 1.406974 1.032605 0
M  V30 9 C 2.926633 2.485216 0.665629 0
M  V30 10 C 3.345623 3.614849 0.018700 0
M  V30 11 C 2.532251 4.645873 -0.322333 0
M  V30 12 C 1.188928 4.617901 -0.028113 0
M  V30 13 C 0.773243 3.491415 0.616456 0
M  V30 14 C -0.649982 3.338196 0.986310 0
M  V30 15 F -0.835163 3.034939 2.303178 0
M  V30 16 F -1.135261 2.256029 0.257194 0
M  V30 17 F -1.399785 4.426217 0.607806 0
M  V30 18 N 1.614898 2.517979 0.923154 0
M  V30 19 C 2.312869 -0.424522 2.046090 0
M  V30 20 C 0.837023 -0.316467 2.110191 0
M  V30 21 N 0.455747 -1.748749 2.166814 0
M  V30 22 C -0.635619 -2.403676 1.494979 0
M  V30 23 O -0.930924 -3.630909 1.554487 0
M  V30 24 N -1.486394 -1.619260 0.673948 0
M  V30 25 C -2.602609 -2.199145 -0.039018 0
M  V30 26 C -3.900965 -1.501246 -0.149827 0
M  V30 27 C -3.054626 -1.525013 -1.350024 0 CFG=2
M  V30 28 C -3.270967 -2.456420 -2.467237 0
M  V30 29 C -2.799068 -2.243370 -3.743192 0
M  V30 30 C -2.974458 -3.082752 -4.820745 0
M  V30 31 C -3.697789 -4.262882 -4.607465 0
M  V30 32 C -4.189176 -4.516537 -3.344144 0
M  V30 33 C -3.986861 -3.635406 -2.279672 0
M  V30 34 H 0.020571 -1.548912 4.508819 0
M  V30 35 H 1.362692 -2.565125 5.219833 0
M  V30 36 H 1.642288 -0.882007 4.680652 0
M  V30 37 H 1.959012 -4.201347 2.049520 0
M  V30 38 H 0.545088 -4.270391 3.250816 0
M  V30 39 H 2.224478 -4.144031 3.794373 0
M  V30 40 H 5.543714 -0.660365 1.882946 0
M  V30 41 H 4.768591 1.626659 0.764431 0
M  V30 42 H 4.412536 3.705705 -0.247970 0
M  V30 43 H 2.952143 5.504916 -0.835981 0
M  V30 44 H 0.552394 5.442889 -0.303399 0
M  V30 45 H 0.382217 0.135816 1.204140 0
M  V30 46 H 0.543431 0.155141 3.057236 0
M  V30 47 H -1.390310 -0.590867 0.514651 0
M  V30 48 H -2.698793 -3.297529 0.061301 0
M  V30 49 H -4.850079 -2.090268 -0.118830 0
M  V30 50 H -4.034520 -0.522208 0.353031 0
M  V30 51 H -2.479789 -0.608341 -1.627599 0
M  V30 52 H -2.233601 -1.307455 -3.879495 0
M  V30 53 H -2.550961 -2.806760 -5.793136 0
M  V30 54 H -3.813765 -4.894829 -5.476261 0
M  V30 55 H -4.755306 -5.451697 -3.201125 0
M  V30 56 H -4.410942 -3.913712 -1.310174 0
M  V30 END ATOM
M  V30 BEGIN BOND
M  V30 1 1 1 2
M  V30 2 1 2 3
M  V30 3 1 2 4
M  V30 4 2 4 5
M  V30 5 1 5 6
M  V30 6 1 6 7
M  V30 7 1 7 8
M  V30 8 1 8 9
M  V30 9 2 9 10
M  V30 10 1 10 11
M  V30 11 2 11 12
M  V30 12 1 12 13
M  V30 13 1 13 14
M  V30 14 1 14 15
M  V30 15 1 14 16
M  V30 16 1 14 17
M  V30 17 2 13 18
M  V30 18 2 7 19
M  V30 19 1 19 20
M  V30 20 1 20 21
M  V30 21 1 21 22
M  V30 22 2 22 23
M  V30 23 1 22 24
M  V30 24 1 24 25
M  V30 25 1 25 26
M  V30 26 1 26 27
M  V30 27 1 27 28
M  V30 28 2 28 29
M  V30 29 1 29 30
M  V30 30 2 30 31
M  V30 31 1 31 32
M  V30 32 2 32 33
M  V30 33 1 21 2
M  V30 34 1 27 25
M  V30 35 1 33 28
M  V30 36 1 19 4
M  V30 37 1 18 9
M  V30 38 1 1 34
M  V30 39 1 1 35
M  V30 40 1 1 36
M  V30 41 1 3 37
M  V30 42 1 3 38
M  V30 43 1 3 39
M  V30 44 1 6 40
M  V30 45 1 8 41
M  V30 46 1 10 42
M  V30 47 1 11 43
M  V30 48 1 12 44
M  V30 49 1 20 45
M  V30 50 1 20 46
M  V30 51 1 24 47
M  V30 52 1 25 48
M  V30 53 1 26 49
M  V30 54 1 26 50
M  V30 55 1 27 51 CFG=3
M  V30 56 1 29 52
M  V30 57 1 30 53
M  V30 58 1 31 54
M  V30 59 1 32 55
M  V30 60 1 33 56
M  V30 END BOND
M  V30 END CTAB
M  END
>  <Dataset>  (885) 
ChEMBL_Kinases

>  <Ligand_Instance>  (885) 
nan

>  <PDB_ID>  (885) 
nan

>  <Standardized_SMILES>  (885) 
CC1(C)c2n[nH]c(Nc3cccc(C(F)(F)F)n3)c2CN1C(=O)NC1C[C@@H]1c1ccccc1

>  <Name>  (885) 
nan

>  <Pocket>  (885) 
nan

>  <ATP_Site>  (885) 
nan

>  <Peripheral>  (885) 
nan

>  <Num_H_Atoms_ProtBoundConf>  (885) 
nan

>  <Num_Resolved_Atoms>  (885) 
nan

>  <Num_Not_Resolved_Atoms>  (885) 
nan

$$$$
CHEMBL3669602
     RDKit          3D

  0  0  0  0  0  0  0  0  0  0999 V3000
M  V30 BEGIN CTAB
M  V30 COUNTS 59 63 0 0 0
M  V30 BEGIN ATOM
M  V30 1 C 3.730446 -1.838457 -3.299995 0
M  V30 2 C 3.769964 -1.109682 -1.999858 0
M  V30 3 C 3.976785 -1.831179 -0.842731 0
M  V30 4 C 4.007584 -1.106480 0.349913 0
M  V30 5 C 4.228346 -1.856655 1.618484 0
M  V30 6 F 4.838077 -3.059497 1.381901 0
M  V30 7 F 4.956173 -1.053605 2.461089 0
M  V30 8 F 2.968027 -2.047258 2.178424 0
M  V30 9 C 3.834288 0.259009 0.313312 0
M  V30 10 C 3.629385 0.931948 -0.883239 0
M  V30 11 N 3.475510 2.333846 -0.700436 0
M  V30 12 C 2.204172 2.944805 -0.445695 0
M  V30 13 N 1.942094 4.256214 -0.267547 0
M  V30 14 N 0.655449 4.435011 -0.053000 0
M  V30 15 C -0.006771 3.250152 -0.077164 0
M  V30 16 C 0.986219 2.313422 -0.327026 0
M  V30 17 C 0.391316 0.977021 -0.377264 0
M  V30 18 N -1.011741 1.188757 0.013192 0
M  V30 19 C -1.948777 0.142627 0.312317 0
M  V30 20 O -3.145171 0.412302 0.643010 0
M  V30 21 N -1.534788 -1.215618 0.237942 0
M  V30 22 C -2.367956 -2.379917 0.510931 0
M  V30 23 C -2.231984 -3.610603 -0.294887 0
M  V30 24 C -1.696901 -3.616536 1.062667 0 CFG=2
M  V30 25 C -2.417410 -4.263075 2.195023 0
M  V30 26 C -1.676978 -4.776218 3.262817 0
M  V30 27 C -2.374282 -5.373388 4.305137 0
M  V30 28 C -3.748764 -5.480887 4.332368 0
M  V30 29 C -4.460721 -4.968632 3.270038 0
M  V30 30 C -3.812424 -4.362989 2.205322 0
M  V30 31 C -1.333986 2.608741 0.057847 0
M  V30 32 C -2.000000 3.023944 1.329542 0
M  V30 33 C -2.169723 2.883312 -1.175398 0
M  V30 34 N 3.599714 0.223715 -2.044656 0
M  V30 35 H 4.778879 -2.089415 -3.632334 0
M  V30 36 H 3.268386 -1.258749 -4.112100 0
M  V30 37 H 3.172643 -2.804134 -3.215768 0
M  V30 38 H 4.110535 -2.901380 -0.832878 0
M  V30 39 H 3.875576 0.731100 1.298777 0
M  V30 40 H 4.307354 2.959153 -0.749729 0
M  V30 41 H 0.252395 5.376594 0.107419 0
M  V30 42 H 0.786667 0.285027 0.393742 0
M  V30 43 H 0.378316 0.588823 -1.397175 0
M  V30 44 H -0.553130 -1.443248 -0.033045 0
M  V30 45 H -3.408573 -2.136580 0.806136 0
M  V30 46 H -3.150518 -4.166996 -0.598425 0
M  V30 47 H -1.507623 -3.575643 -1.147039 0
M  V30 48 H -0.606021 -3.613283 1.222682 0
M  V30 49 H -0.583307 -4.707748 3.272899 0
M  V30 50 H -1.749731 -5.761153 5.120179 0
M  V30 51 H -4.259321 -5.959519 5.174186 0
M  V30 52 H -5.542296 -5.036712 3.260257 0
M  V30 53 H -4.400809 -3.971992 1.388642 0
M  V30 54 H -1.720399 4.077030 1.610495 0
M  V30 55 H -1.865136 2.336605 2.173959 0
M  V30 56 H -3.113003 3.070960 1.143017 0
M  V30 57 H -3.092190 2.260128 -1.152205 0
M  V30 58 H -2.400274 3.960520 -1.296846 0
M  V30 59 H -1.564720 2.531527 -2.047674 0
M  V30 END ATOM
M  V30 BEGIN BOND
M  V30 1 1 1 2
M  V30 2 2 2 3
M  V30 3 1 3 4
M  V30 4 1 4 5
M  V30 5 1 5 6
M  V30 6 1 5 7
M  V30 7 1 5 8
M  V30 8 2 4 9
M  V30 9 1 9 10
M  V30 10 1 10 11
M  V30 11 1 11 12
M  V30 12 2 12 13
M  V30 13 1 13 14
M  V30 14 1 14 15
M  V30 15 2 15 16
M  V30 16 1 16 17
M  V30 17 1 17 18
M  V30 18 1 18 19
M  V30 19 2 19 20
M  V30 20 1 19 21
M  V30 21 1 21 22
M  V30 22 1 22 23
M  V30 23 1 23 24
M  V30 24 1 24 25
M  V30 25 2 25 26
M  V30 26 1 26 27
M  V30 27 2 27 28
M  V30 28 1 28 29
M  V30 29 2 29 30
M  V30 30 1 18 31
M  V30 31 1 31 32
M  V30 32 1 31 33
M  V30 33 2 10 34
M  V30 34 1 34 2
M  V30 35 1 16 12
M  V30 36 1 24 22
M  V30 37 1 30 25
M  V30 38 1 31 15
M  V30 39 1 1 35
M  V30 40 1 1 36
M  V30 41 1 1 37
M  V30 42 1 3 38
M  V30 43 1 9 39
M  V30 44 1 11 40
M  V30 45 1 14 41
M  V30 46 1 17 42
M  V30 47 1 17 43
M  V30 48 1 21 44
M  V30 49 1 22 45
M  V30 50 1 23 46
M  V30 51 1 23 47
M  V30 52 1 24 48 CFG=3
M  V30 53 1 26 49
M  V30 54 1 27 50
M  V30 55 1 28 51
M  V30 56 1 29 52
M  V30 57 1 30 53
M  V30 58 1 32 54
M  V30 59 1 32 55
M  V30 60 1 32 56
M  V30 61 1 33 57
M  V30 62 1 33 58
M  V30 63 1 33 59
M  V30 END BOND
M  V30 END CTAB
M  END
>  <Dataset>  (886) 
ChEMBL_Kinases

>  <Ligand_Instance>  (886) 
nan

>  <PDB_ID>  (886) 
nan

>  <Standardized_SMILES>  (886) 
Cc1cc(C(F)(F)F)cc(Nc2n[nH]c3c2CN(C(=O)NC2C[C@@H]2c2ccccc2)C3(C)C)n1

>  <Name>  (886) 
nan

>  <Pocket>  (886) 
nan

>  <ATP_Site>  (886) 
nan

>  <Peripheral>  (886) 
nan

>  <Num_H_Atoms_ProtBoundConf>  (886) 
nan

>  <Num_Resolved_Atoms>  (886) 
nan

>  <Num_Not_Resolved_Atoms>  (886) 
nan

$$$$
CHEMBL3669601
     RDKit          3D

  0  0  0  0  0  0  0  0  0  0999 V3000
M  V30 BEGIN CTAB
M  V30 COUNTS 56 60 0 0 0
M  V30 BEGIN ATOM
M  V30 1 C 0.050124 0.158658 3.906107 0
M  V30 2 C 0.544525 -1.224246 3.571589 0
M  V30 3 C 0.392955 -2.179918 4.730478 0
M  V30 4 C 1.938667 -1.164506 3.081361 0
M  V30 5 N 3.258403 -1.262009 3.312228 0
M  V30 6 N 3.955535 -1.045469 2.212543 0
M  V30 7 C 3.148541 -0.789410 1.174503 0
M  V30 8 N 3.298161 -0.482586 -0.201971 0
M  V30 9 C 2.963458 0.748891 -0.817045 0
M  V30 10 C 2.401179 1.778345 -0.092321 0
M  V30 11 C 2.070250 2.968572 -0.712163 0
M  V30 12 C 1.474460 3.991590 0.162866 0
M  V30 13 F 2.026003 3.934207 1.409720 0
M  V30 14 F 1.725744 5.227492 -0.398461 0
M  V30 15 F 0.095605 3.806818 0.299395 0
M  V30 16 C 2.316603 3.098051 -2.068233 0
M  V30 17 C 2.879004 2.051621 -2.761054 0
M  V30 18 N 3.199428 0.887517 -2.138165 0
M  V30 19 C 1.869388 -0.866555 1.737447 0
M  V30 20 C 0.401741 -0.733398 1.422800 0
M  V30 21 N -0.176784 -1.645964 2.386344 0
M  V30 22 C -1.165169 -2.633891 2.142714 0
M  V30 23 O -1.628953 -3.391186 3.042694 0
M  V30 24 N -1.668787 -2.792202 0.830644 0
M  V30 25 C -2.663636 -3.751860 0.490272 0
M  V30 26 C -2.257830 -4.664829 -0.701831 0
M  V30 27 C -3.391523 -3.712100 -0.801595 0 CFG=2
M  V30 28 C -3.312375 -2.525325 -1.680108 0
M  V30 29 C -4.428440 -1.744306 -1.892795 0
M  V30 30 C -4.375582 -0.642093 -2.712296 0
M  V30 31 C -3.223537 -0.247555 -3.367040 0
M  V30 32 C -2.084900 -1.018661 -3.169470 0
M  V30 33 C -2.172869 -2.117834 -2.341129 0
M  V30 34 H -0.979795 0.315184 3.533946 0
M  V30 35 H -0.024598 0.285326 5.013430 0
M  V30 36 H 0.765366 0.937298 3.546423 0
M  V30 37 H 0.882644 -3.146805 4.508919 0
M  V30 38 H -0.646690 -2.277259 5.043912 0
M  V30 39 H 0.960271 -1.728492 5.573240 0
M  V30 40 H 3.651935 -1.483775 4.257659 0
M  V30 41 H 3.690970 -1.277825 -0.732582 0
M  V30 42 H 2.249292 1.570092 0.971979 0
M  V30 43 H 2.046180 4.034646 -2.515107 0
M  V30 44 H 3.075009 2.142055 -3.822829 0
M  V30 45 H 0.193768 -0.955069 0.379748 0
M  V30 46 H 0.116285 0.302857 1.708721 0
M  V30 47 H -1.335101 -2.203381 0.044924 0
M  V30 48 H -3.111388 -4.291445 1.354526 0
M  V30 49 H -1.340455 -4.417151 -1.234165 0
M  V30 50 H -2.460304 -5.758117 -0.529622 0
M  V30 51 H -4.408423 -4.148423 -0.739188 0
M  V30 52 H -5.383891 -1.955593 -1.433871 0
M  V30 53 H -5.214423 0.029990 -2.934483 0
M  V30 54 H -3.148691 0.606086 -4.013454 0
M  V30 55 H -1.163773 -0.734600 -3.668517 0
M  V30 56 H -1.250075 -2.667320 -2.248790 0
M  V30 END ATOM
M  V30 BEGIN BOND
M  V30 1 1 1 2
M  V30 2 1 2 3
M  V30 3 1 2 4
M  V30 4 1 4 5
M  V30 5 1 5 6
M  V30 6 2 6 7
M  V30 7 1 7 8
M  V30 8 1 8 9
M  V30 9 2 9 10
M  V30 10 1 10 11
M  V30 11 1 11 12
M  V30 12 1 12 13
M  V30 13 1 12 14
M  V30 14 1 12 15
M  V30 15 2 11 16
M  V30 16 1 16 17
M  V30 17 2 17 18
M  V30 18 1 7 19
M  V30 19 1 19 20
M  V30 20 1 20 21
M  V30 21 1 21 22
M  V30 22 2 22 23
M  V30 23 1 22 24
M  V30 24 1 24 25
M  V30 25 1 25 26
M  V30 26 1 26 27
M  V30 27 1 27 28
M  V30 28 2 28 29
M  V30 29 1 29 30
M  V30 30 2 30 31
M  V30 31 1 31 32
M  V30 32 2 32 33
M  V30 33 1 21 2
M  V30 34 1 27 25
M  V30 35 1 33 28
M  V30 36 2 19 4
M  V30 37 1 18 9
M  V30 38 1 1 34
M  V30 39 1 1 35
M  V30 40 1 1 36
M  V30 41 1 3 37
M  V30 42 1 3 38
M  V30 43 1 3 39
M  V30 44 1 5 40
M  V30 45 1 8 41
M  V30 46 1 10 42
M  V30 47 1 16 43
M  V30 48 1 17 44
M  V30 49 1 20 45
M  V30 50 1 20 46
M  V30 51 1 24 47
M  V30 52 1 25 48
M  V30 53 1 26 49
M  V30 54 1 26 50
M  V30 55 1 27 51 CFG=1
M  V30 56 1 29 52
M  V30 57 1 30 53
M  V30 58 1 31 54
M  V30 59 1 32 55
M  V30 60 1 33 56
M  V30 END BOND
M  V30 END CTAB
M  END
>  <Dataset>  (887) 
ChEMBL_Kinases

>  <Ligand_Instance>  (887) 
nan

>  <PDB_ID>  (887) 
nan

>  <Standardized_SMILES>  (887) 
CC1(C)c2[nH]nc(Nc3cc(C(F)(F)F)ccn3)c2CN1C(=O)NC1C[C@@H]1c1ccccc1

>  <Name>  (887) 
nan

>  <Pocket>  (887) 
nan

>  <ATP_Site>  (887) 
nan

>  <Peripheral>  (887) 
nan

>  <Num_H_Atoms_ProtBoundConf>  (887) 
nan

>  <Num_Resolved_Atoms>  (887) 
nan

>  <Num_Not_Resolved_Atoms>  (887) 
nan

$$$$
CHEMBL3669600
     RDKit          3D

  0  0  0  0  0  0  0  0  0  0999 V3000
M  V30 BEGIN CTAB
M  V30 COUNTS 58 62 0 0 0
M  V30 BEGIN ATOM
M  V30 1 C 3.136371 -2.047544 3.711464 0
M  V30 2 C 3.569226 -1.515713 2.398034 0
M  V30 3 C 3.842707 -2.388123 1.355323 0
M  V30 4 C 4.253617 -1.946938 0.092787 0
M  V30 5 C 4.508018 -3.002682 -0.913327 0
M  V30 6 N 4.372139 -0.620984 -0.063161 0
M  V30 7 C 4.113791 0.242333 0.929151 0
M  V30 8 N 4.257995 1.655439 0.698217 0
M  V30 9 C 3.146291 2.416618 0.261071 0
M  V30 10 N 3.081969 3.732166 -0.006538 0
M  V30 11 N 1.852591 4.104141 -0.396747 0
M  V30 12 C 1.084441 2.980602 -0.381878 0
M  V30 13 C 1.873056 1.925890 0.023882 0
M  V30 14 C 1.077835 0.691809 0.051288 0
M  V30 15 N -0.219999 1.089736 -0.452845 0
M  V30 16 C -1.326755 0.214386 -0.739116 0
M  V30 17 O -2.440884 0.650013 -1.179129 0
M  V30 18 N -1.178425 -1.202438 -0.524170 0
M  V30 19 C -2.262608 -2.080812 -0.802573 0
M  V30 20 C -2.134568 -3.488458 -1.175468 0
M  V30 21 C -2.452784 -3.205895 0.238714 0 CFG=2
M  V30 22 C -3.817497 -3.280853 0.790530 0
M  V30 23 C -3.945901 -3.636304 2.137430 0
M  V30 24 C -5.173424 -3.748577 2.799281 0
M  V30 25 C -6.299159 -3.485571 2.046448 0
M  V30 26 C -6.225743 -3.131369 0.715818 0
M  V30 27 C -4.984849 -3.030407 0.093046 0
M  V30 28 C -0.288743 2.523287 -0.648750 0
M  V30 29 C -1.222961 3.071629 0.419452 0
M  V30 30 C -0.741204 2.900093 -2.025775 0
M  V30 31 N 3.716146 -0.206477 2.146966 0
M  V30 32 H 2.065190 -2.375065 3.587753 0
M  V30 33 H 3.699199 -2.946228 4.028499 0
M  V30 34 H 3.235797 -1.286357 4.494362 0
M  V30 35 H 3.722459 -3.442964 1.563764 0
M  V30 36 H 3.714894 -3.748616 -0.958786 0
M  V30 37 H 5.449650 -3.568509 -0.652009 0
M  V30 38 H 4.666911 -2.590307 -1.930356 0
M  V30 39 H 5.178254 2.147509 0.846442 0
M  V30 40 H 3.866775 4.400743 0.069707 0
M  V30 41 H 1.501077 -0.137225 -0.538433 0
M  V30 42 H 0.904868 0.312323 1.080150 0
M  V30 43 H -0.266043 -1.610396 -0.157807 0
M  V30 44 H -3.175058 -1.563406 -1.173858 0
M  V30 45 H -2.956867 -3.964958 -1.747979 0
M  V30 46 H -1.178393 -3.984347 -1.394740 0
M  V30 47 H -1.663110 -3.406178 0.961289 0
M  V30 48 H -3.063933 -3.850777 2.758112 0
M  V30 49 H -5.188994 -4.030691 3.848539 0
M  V30 50 H -7.236308 -3.582025 2.591302 0
M  V30 51 H -7.122704 -2.932249 0.155852 0
M  V30 52 H -4.862401 -2.758131 -0.942046 0
M  V30 53 H -2.107106 2.429386 0.541588 0
M  V30 54 H -1.516557 4.114546 0.149133 0
M  V30 55 H -0.655254 3.065839 1.372470 0
M  V30 56 H -1.478819 3.731152 -2.041484 0
M  V30 57 H -1.103455 2.051455 -2.639794 0
M  V30 58 H 0.143845 3.308627 -2.583834 0
M  V30 END ATOM
M  V30 BEGIN BOND
M  V30 1 1 1 2
M  V30 2 2 2 3
M  V30 3 1 3 4
M  V30 4 1 4 5
M  V30 5 2 4 6
M  V30 6 1 6 7
M  V30 7 1 7 8
M  V30 8 1 8 9
M  V30 9 1 9 10
M  V30 10 1 10 11
M  V30 11 2 11 12
M  V30 12 1 12 13
M  V30 13 1 13 14
M  V30 14 1 14 15
M  V30 15 1 15 16
M  V30 16 2 16 17
M  V30 17 1 16 18
M  V30 18 1 18 19
M  V30 19 1 19 20
M  V30 20 1 20 21
M  V30 21 1 21 22
M  V30 22 2 22 23
M  V30 23 1 23 24
M  V30 24 2 24 25
M  V30 25 1 25 26
M  V30 26 2 26 27
M  V30 27 1 15 28
M  V30 28 1 28 29
M  V30 29 1 28 30
M  V30 30 2 7 31
M  V30 31 1 31 2
M  V30 32 2 13 9
M  V30 33 1 21 19
M  V30 34 1 27 22
M  V30 35 1 28 12
M  V30 36 1 1 32
M  V30 37 1 1 33
M  V30 38 1 1 34
M  V30 39 1 3 35
M  V30 40 1 5 36
M  V30 41 1 5 37
M  V30 42 1 5 38
M  V30 43 1 8 39
M  V30 44 1 10 40
M  V30 45 1 14 41
M  V30 46 1 14 42
M  V30 47 1 18 43
M  V30 48 1 19 44
M  V30 49 1 20 45
M  V30 50 1 20 46
M  V30 51 1 21 47 CFG=1
M  V30 52 1 23 48
M  V30 53 1 24 49
M  V30 54 1 25 50
M  V30 55 1 26 51
M  V30 56 1 27 52
M  V30 57 1 29 53
M  V30 58 1 29 54
M  V30 59 1 29 55
M  V30 60 1 30 56
M  V30 61 1 30 57
M  V30 62 1 30 58
M  V30 END BOND
M  V30 END CTAB
M  END
>  <Dataset>  (888) 
ChEMBL_Kinases

>  <Ligand_Instance>  (888) 
nan

>  <PDB_ID>  (888) 
nan

>  <Standardized_SMILES>  (888) 
Cc1cc(C)nc(Nc2[nH]nc3c2CN(C(=O)NC2C[C@@H]2c2ccccc2)C3(C)C)n1

>  <Name>  (888) 
nan

>  <Pocket>  (888) 
nan

>  <ATP_Site>  (888) 
nan

>  <Peripheral>  (888) 
nan

>  <Num_H_Atoms_ProtBoundConf>  (888) 
nan

>  <Num_Resolved_Atoms>  (888) 
nan

>  <Num_Not_Resolved_Atoms>  (888) 
nan

$$$$
CHEMBL3669599
     RDKit          3D

  0  0  0  0  0  0  0  0  0  0999 V3000
M  V30 BEGIN CTAB
M  V30 COUNTS 75 80 0 0 0
M  V30 BEGIN ATOM
M  V30 1 C 3.346236 -2.578425 5.166340 0
M  V30 2 N 2.386559 -2.132397 4.156186 0
M  V30 3 C 0.996083 -2.567507 4.348983 0
M  V30 4 C 2.755717 -1.325993 3.045240 0
M  V30 5 N 2.702747 0.024429 3.233571 0
M  V30 6 C 3.048146 0.809978 2.197361 0
M  V30 7 N 3.088531 2.225861 2.086627 0
M  V30 8 C 1.924522 2.868126 1.594709 0
M  V30 9 N 1.736628 4.203018 1.407383 0
M  V30 10 N 0.552459 4.504729 0.933937 0
M  V30 11 C -0.113323 3.345121 0.783607 0
M  V30 12 C 0.728117 2.316726 1.191180 0
M  V30 13 C 0.087524 0.985062 1.065755 0
M  V30 14 N -1.234385 1.352679 0.594917 0
M  V30 15 C -2.078854 0.215494 0.487043 0
M  V30 16 O -1.438104 -0.808519 0.840911 0
M  V30 17 N -3.437944 0.163629 0.056762 0
M  V30 18 C -4.128018 -1.112515 0.019855 0
M  V30 19 C -5.569896 -1.230741 0.295577 0
M  V30 20 C -5.048098 -1.335082 -1.125618 0 CFG=2
M  V30 21 C -5.082246 -2.691765 -1.774873 0
M  V30 22 C -5.390577 -2.929595 -3.095686 0
M  V30 23 C -5.387244 -4.225091 -3.572349 0
M  V30 24 C -5.073725 -5.288921 -2.723451 0
M  V30 25 C -4.759878 -5.064382 -1.385638 0
M  V30 26 C -4.770570 -3.750443 -0.931204 0
M  V30 27 C -1.434707 2.777984 0.332183 0
M  V30 28 C -2.589759 3.349733 1.101151 0
M  V30 29 C -1.563211 2.954087 -1.154054 0
M  V30 30 N 3.421847 0.235456 1.047735 0
M  V30 31 C 3.471321 -1.100077 0.869981 0
M  V30 32 N 3.862623 -1.740837 -0.336566 0
M  V30 33 C 3.912362 -3.155982 -0.677762 0
M  V30 34 C 2.978944 -3.226319 -1.870620 0
M  V30 35 C 3.459703 -1.996333 -2.652449 0
M  V30 36 C 4.344147 -1.252730 -1.640403 0 CFG=1
M  V30 37 C 4.041300 0.207320 -1.717570 0
M  V30 38 O 4.451647 0.798773 -2.920248 0
M  V30 39 N 3.137633 -1.904795 1.870090 0
M  V30 40 H 3.300886 -1.845099 5.987631 0
M  V30 41 H 3.119101 -3.591385 5.554066 0
M  V30 42 H 4.358593 -2.594904 4.667954 0
M  V30 43 H 0.742071 -2.660578 5.434355 0
M  V30 44 H 0.293760 -1.792070 3.929882 0
M  V30 45 H 0.819261 -3.557638 3.890645 0
M  V30 46 H 3.908121 2.818080 2.340168 0
M  V30 47 H 2.494904 4.909934 1.631867 0
M  V30 48 H 0.570405 0.334223 0.305351 0
M  V30 49 H 0.087931 0.418398 2.011146 0
M  V30 50 H -3.837070 1.090629 -0.206351 0
M  V30 51 H -3.483601 -1.941634 0.380537 0
M  V30 52 H -6.121322 -0.314897 0.616191 0
M  V30 53 H -5.978419 -2.136891 0.770577 0
M  V30 54 H -5.298673 -0.454568 -1.752644 0
M  V30 55 H -5.623855 -2.087592 -3.708178 0
M  V30 56 H -5.633920 -4.414192 -4.627040 0
M  V30 57 H -5.068810 -6.319642 -3.095073 0
M  V30 58 H -4.519379 -5.918508 -0.750117 0
M  V30 59 H -4.514824 -3.681031 0.117426 0
M  V30 60 H -3.441684 3.482194 0.417574 0
M  V30 61 H -2.824409 2.735026 1.978275 0
M  V30 62 H -2.267939 4.369167 1.460024 0
M  V30 63 H -2.096459 2.054597 -1.573773 0
M  V30 64 H -0.545720 2.960691 -1.588695 0
M  V30 65 H -2.126586 3.885790 -1.393327 0
M  V30 66 H 4.899547 -3.517060 -0.961581 0
M  V30 67 H 3.519171 -3.726814 0.187443 0
M  V30 68 H 3.157270 -4.113230 -2.492011 0
M  V30 69 H 1.917857 -3.127781 -1.607446 0
M  V30 70 H 2.602617 -1.345282 -2.947252 0
M  V30 71 H 4.009291 -2.265566 -3.555265 0
M  V30 72 H 5.390774 -1.521743 -1.770566 0
M  V30 73 H 4.649141 0.711683 -0.935194 0
M  V30 74 H 2.965089 0.367476 -1.638862 0
M  V30 75 H 4.398737 1.789342 -2.725478 0
M  V30 END ATOM
M  V30 BEGIN BOND
M  V30 1 1 1 2
M  V30 2 1 2 3
M  V30 3 1 2 4
M  V30 4 2 4 5
M  V30 5 1 5 6
M  V30 6 1 6 7
M  V30 7 1 7 8
M  V30 8 1 8 9
M  V30 9 1 9 10
M  V30 10 2 10 11
M  V30 11 1 11 12
M  V30 12 1 12 13
M  V30 13 1 13 14
M  V30 14 1 14 15
M  V30 15 2 15 16
M  V30 16 1 15 17
M  V30 17 1 17 18
M  V30 18 1 18 19
M  V30 19 1 19 20
M  V30 20 1 20 21
M  V30 21 2 21 22
M  V30 22 1 22 23
M  V30 23 2 23 24
M  V30 24 1 24 25
M  V30 25 2 25 26
M  V30 26 1 14 27
M  V30 27 1 27 28
M  V30 28 1 27 29
M  V30 29 2 6 30
M  V30 30 1 30 31
M  V30 31 1 31 32
M  V30 32 1 32 33
M  V30 33 1 33 34
M  V30 34 1 34 35
M  V30 35 1 35 36
M  V30 36 1 36 37
M  V30 37 1 37 38
M  V30 38 2 31 39
M  V30 39 1 39 4
M  V30 40 2 12 8
M  V30 41 1 20 18
M  V30 42 1 26 21
M  V30 43 1 36 32
M  V30 44 1 27 11
M  V30 45 1 1 40
M  V30 46 1 1 41
M  V30 47 1 1 42
M  V30 48 1 3 43
M  V30 49 1 3 44
M  V30 50 1 3 45
M  V30 51 1 7 46
M  V30 52 1 9 47
M  V30 53 1 13 48
M  V30 54 1 13 49
M  V30 55 1 17 50
M  V30 56 1 18 51
M  V30 57 1 19 52
M  V30 58 1 19 53
M  V30 59 1 20 54 CFG=3
M  V30 60 1 22 55
M  V30 61 1 23 56
M  V30 62 1 24 57
M  V30 63 1 25 58
M  V30 64 1 26 59
M  V30 65 1 28 60
M  V30 66 1 28 61
M  V30 67 1 28 62
M  V30 68 1 29 63
M  V30 69 1 29 64
M  V30 70 1 29 65
M  V30 71 1 33 66
M  V30 72 1 33 67
M  V30 73 1 34 68
M  V30 74 1 34 69
M  V30 75 1 35 70
M  V30 76 1 35 71
M  V30 77 1 36 72 CFG=3
M  V30 78 1 37 73
M  V30 79 1 37 74
M  V30 80 1 38 75
M  V30 END BOND
M  V30 END CTAB
M  END
>  <Dataset>  (889) 
ChEMBL_Kinases

>  <Ligand_Instance>  (889) 
nan

>  <PDB_ID>  (889) 
nan

>  <Standardized_SMILES>  (889) 
CN(C)c1nc(Nc2[nH]nc3c2CN(C(=O)NC2C[C@@H]2c2ccccc2)C3(C)C)nc(N2CCC[C@H]2CO)n1

>  <Name>  (889) 
nan

>  <Pocket>  (889) 
nan

>  <ATP_Site>  (889) 
nan

>  <Peripheral>  (889) 
nan

>  <Num_H_Atoms_ProtBoundConf>  (889) 
nan

>  <Num_Resolved_Atoms>  (889) 
nan

>  <Num_Not_Resolved_Atoms>  (889) 
nan

$$$$
CHEMBL3669598
     RDKit          3D

  0  0  0  0  0  0  0  0  0  0999 V3000
M  V30 BEGIN CTAB
M  V30 COUNTS 75 80 0 0 0
M  V30 BEGIN ATOM
M  V30 1 C 3.098902 -5.812594 -1.379392 0
M  V30 2 N 2.195695 -4.737055 -1.003958 0
M  V30 3 C 0.950436 -5.040253 -0.333932 0
M  V30 4 C 2.468953 -3.363332 -1.262253 0
M  V30 5 N 1.640302 -2.373261 -0.920366 0
M  V30 6 C 1.926113 -1.074846 -1.178550 0
M  V30 7 N 0.959119 -0.129037 -0.760084 0
M  V30 8 C 0.928918 0.586546 0.465776 0
M  V30 9 N 1.822434 0.519891 1.466850 0
M  V30 10 N 1.418438 1.348093 2.426697 0
M  V30 11 C 0.262241 1.951153 2.046245 0
M  V30 12 C -0.070474 1.476615 0.790328 0
M  V30 13 C -1.337014 2.163708 0.433235 0
M  V30 14 N -1.955696 2.235196 1.771724 0
M  V30 15 C -3.203991 1.799805 2.350495 0
M  V30 16 O -3.689893 1.895756 3.507269 0
M  V30 17 N -4.082797 1.116375 1.438006 0
M  V30 18 C -5.396319 0.607815 1.864880 0
M  V30 19 C -6.325789 0.176923 0.820687 0
M  V30 20 C -5.585511 -0.898273 1.523549 0 CFG=2
M  V30 21 C -6.283050 -1.726545 2.542411 0
M  V30 22 C -5.853238 -3.007969 2.797406 0
M  V30 23 C -6.495419 -3.804044 3.750466 0
M  V30 24 C -7.566681 -3.321949 4.449487 0
M  V30 25 C -8.011382 -2.034383 4.204410 0
M  V30 26 C -7.354595 -1.255012 3.246864 0
M  V30 27 C -0.839019 2.924634 2.386595 0
M  V30 28 C -0.947945 3.000046 3.890209 0
M  V30 29 C -0.490079 4.226701 1.756448 0
M  V30 30 N 3.094166 -0.844805 -1.799333 0
M  V30 31 C 3.939480 -1.822119 -2.150542 0
M  V30 32 N 5.171177 -1.534633 -2.796635 0
M  V30 33 C 6.064968 -2.565421 -3.353831 0
M  V30 34 C 6.051049 -2.118698 -4.827385 0
M  V30 35 C 6.057865 -0.585288 -4.669056 0
M  V30 36 C 5.989414 -0.392911 -3.151179 0 CFG=1
M  V30 37 C 5.409726 0.885610 -2.748944 0
M  V30 38 N 4.526935 1.843059 -2.194127 0
M  V30 39 O 6.229117 1.752975 -3.161009 0
M  V30 40 N 3.610512 -3.079004 -1.873873 0
M  V30 41 H 3.226653 -6.475840 -0.481825 0
M  V30 42 H 4.097318 -5.463451 -1.637718 0
M  V30 43 H 2.634773 -6.480675 -2.154283 0
M  V30 44 H 1.099120 -4.838164 0.761185 0
M  V30 45 H 0.119047 -4.414429 -0.731060 0
M  V30 46 H 0.677824 -6.121607 -0.401841 0
M  V30 47 H 0.236742 -0.018491 -1.501912 0
M  V30 48 H 2.698713 -0.075877 1.510190 0
M  V30 49 H -1.958226 1.554571 -0.256021 0
M  V30 50 H -1.196472 3.165344 -0.007437 0
M  V30 51 H -3.802626 0.962651 0.431616 0
M  V30 52 H -5.674738 0.839457 2.910833 0
M  V30 53 H -6.008868 0.371302 -0.234857 0
M  V30 54 H -7.417115 0.313418 0.965633 0
M  V30 55 H -4.739270 -1.411385 1.017685 0
M  V30 56 H -5.013081 -3.471808 2.291664 0
M  V30 57 H -6.177266 -4.825206 3.975193 0
M  V30 58 H -8.055802 -3.947732 5.185222 0
M  V30 59 H -8.873257 -1.688123 4.787432 0
M  V30 60 H -7.719551 -0.259062 3.075698 0
M  V30 61 H -1.947040 3.242502 4.266760 0
M  V30 62 H -0.666214 2.001012 4.320055 0
M  V30 63 H -0.164987 3.706327 4.267359 0
M  V30 64 H 0.294893 4.133971 0.980974 0
M  V30 65 H -0.168440 4.931536 2.567423 0
M  V30 66 H -1.439388 4.671352 1.347130 0
M  V30 67 H 5.644547 -3.575578 -3.238899 0
M  V30 68 H 7.096742 -2.434173 -3.006980 0
M  V30 69 H 5.086452 -2.436653 -5.264126 0
M  V30 70 H 6.939948 -2.440506 -5.366507 0
M  V30 71 H 7.029717 -0.185103 -4.984215 0
M  V30 72 H 5.174443 -0.129886 -5.138978 0
M  V30 73 H 7.001962 -0.565224 -2.722243 0
M  V30 74 H 4.218507 1.865546 -1.179842 0
M  V30 75 H 4.573982 1.429397 -1.218045 0
M  V30 END ATOM
M  V30 BEGIN BOND
M  V30 1 1 1 2
M  V30 2 1 2 3
M  V30 3 1 2 4
M  V30 4 2 4 5
M  V30 5 1 5 6
M  V30 6 1 6 7
M  V30 7 1 7 8
M  V30 8 1 8 9
M  V30 9 1 9 10
M  V30 10 2 10 11
M  V30 11 1 11 12
M  V30 12 1 12 13
M  V30 13 1 13 14
M  V30 14 1 14 15
M  V30 15 2 15 16
M  V30 16 1 15 17
M  V30 17 1 17 18
M  V30 18 1 18 19
M  V30 19 1 19 20
M  V30 20 1 20 21
M  V30 21 2 21 22
M  V30 22 1 22 23
M  V30 23 2 23 24
M  V30 24 1 24 25
M  V30 25 2 25 26
M  V30 26 1 14 27
M  V30 27 1 27 28
M  V30 28 1 27 29
M  V30 29 2 6 30
M  V30 30 1 30 31
M  V30 31 1 31 32
M  V30 32 1 32 33
M  V30 33 1 33 34
M  V30 34 1 34 35
M  V30 35 1 35 36
M  V30 36 1 36 37
M  V30 37 1 37 38
M  V30 38 2 37 39
M  V30 39 2 31 40
M  V30 40 1 40 4
M  V30 41 2 12 8
M  V30 42 1 20 18
M  V30 43 1 26 21
M  V30 44 1 36 32
M  V30 45 1 27 11
M  V30 46 1 1 41
M  V30 47 1 1 42
M  V30 48 1 1 43
M  V30 49 1 3 44
M  V30 50 1 3 45
M  V30 51 1 3 46
M  V30 52 1 7 47
M  V30 53 1 9 48
M  V30 54 1 13 49
M  V30 55 1 13 50
M  V30 56 1 17 51
M  V30 57 1 18 52
M  V30 58 1 19 53
M  V30 59 1 19 54
M  V30 60 1 20 55 CFG=3
M  V30 61 1 22 56
M  V30 62 1 23 57
M  V30 63 1 24 58
M  V30 64 1 25 59
M  V30 65 1 26 60
M  V30 66 1 28 61
M  V30 67 1 28 62
M  V30 68 1 28 63
M  V30 69 1 29 64
M  V30 70 1 29 65
M  V30 71 1 29 66
M  V30 72 1 33 67
M  V30 73 1 33 68
M  V30 74 1 34 69
M  V30 75 1 34 70
M  V30 76 1 35 71
M  V30 77 1 35 72
M  V30 78 1 36 73 CFG=1
M  V30 79 1 38 74
M  V30 80 1 38 75
M  V30 END BOND
M  V30 END CTAB
M  END
>  <Dataset>  (890) 
ChEMBL_Kinases

>  <Ligand_Instance>  (890) 
nan

>  <PDB_ID>  (890) 
nan

>  <Standardized_SMILES>  (890) 
CN(C)c1nc(Nc2[nH]nc3c2CN(C(=O)NC2C[C@@H]2c2ccccc2)C3(C)C)nc(N2CCC[C@H]2C(N)=O)n1

>  <Name>  (890) 
nan

>  <Pocket>  (890) 
nan

>  <ATP_Site>  (890) 
nan

>  <Peripheral>  (890) 
nan

>  <Num_H_Atoms_ProtBoundConf>  (890) 
nan

>  <Num_Resolved_Atoms>  (890) 
nan

>  <Num_Not_Resolved_Atoms>  (890) 
nan

$$$$
CHEMBL3669597
     RDKit          3D

  0  0  0  0  0  0  0  0  0  0999 V3000
M  V30 BEGIN CTAB
M  V30 COUNTS 71 76 0 0 0
M  V30 BEGIN ATOM
M  V30 1 C 6.390960 -0.394586 4.803047 0
M  V30 2 O 5.034451 -0.044476 4.559136 0
M  V30 3 C 4.512724 -0.054578 3.260674 0
M  V30 4 N 3.205584 0.287406 3.070044 0
M  V30 5 C 2.659063 0.289824 1.840964 0
M  V30 6 N 1.314725 0.602597 1.505063 0
M  V30 7 C 0.277518 0.883253 2.421028 0
M  V30 8 N 0.309796 0.920030 3.761384 0
M  V30 9 N -0.893802 1.208335 4.279021 0
M  V30 10 C -1.753359 1.366834 3.253147 0
M  V30 11 C -1.018547 1.165356 2.102706 0
M  V30 12 C -1.914087 1.339433 0.931714 0
M  V30 13 N -3.221064 1.081939 1.463294 0
M  V30 14 C -4.309384 0.432762 0.823883 0
M  V30 15 O -5.381434 0.319443 1.457808 0
M  V30 16 N -4.170206 -0.061703 -0.478883 0
M  V30 17 C -5.161952 -0.750269 -1.297682 0
M  V30 18 C -4.996009 -0.680739 -2.793361 0
M  V30 19 C -4.726439 -1.974045 -2.014027 0
M  V30 20 C -5.679620 -3.046671 -2.388867 0
M  V30 21 C -6.506723 -3.659992 -1.482535 0
M  V30 22 C -7.378499 -4.642018 -1.881384 0
M  V30 23 C -7.500804 -5.089017 -3.187409 0
M  V30 24 C -6.661029 -4.468252 -4.122908 0
M  V30 25 C -5.787791 -3.482661 -3.712494 0
M  V30 26 C -3.136311 1.643186 2.797562 0
M  V30 27 C -4.078347 0.915231 3.739887 0
M  V30 28 C -3.409916 3.107434 2.716267 0
M  V30 29 N 3.513230 -0.064335 0.879794 0
M  V30 30 C 4.771214 -0.408070 0.945188 0
M  V30 31 N 5.533294 -0.766686 -0.200983 0
M  V30 32 C 6.934437 -1.210351 -0.245084 0
M  V30 33 C 7.380667 -0.574768 -1.556328 0
M  V30 34 C 6.197880 -0.691946 -2.469609 0
M  V30 35 C 5.017251 -0.746769 -1.562616 0 CFG=1
M  V30 36 C 4.092916 -1.821901 -1.836999 0
M  V30 37 N 3.200561 -2.843205 -2.131939 0
M  V30 38 O 4.433020 -2.052235 -0.624316 0
M  V30 39 N 5.264539 -0.393192 2.203691 0
M  V30 40 H 6.733715 0.068918 5.779445 0
M  V30 41 H 6.992578 0.048181 3.971345 0
M  V30 42 H 6.561579 -1.480849 4.777450 0
M  V30 43 H 1.083163 0.622614 0.465041 0
M  V30 44 H 1.213772 0.736282 4.284494 0
M  V30 45 H -1.938701 2.433843 0.621936 0
M  V30 46 H -1.625122 0.778813 0.044762 0
M  V30 47 H -3.243680 0.062217 -0.939747 0
M  V30 48 H -6.180599 -0.822475 -0.861850 0
M  V30 49 H -4.107022 -0.148142 -3.203909 0
M  V30 50 H -5.883125 -0.582625 -3.411279 0
M  V30 51 H -3.662656 -2.322657 -2.025593 0
M  V30 52 H -6.468561 -3.368125 -0.451762 0
M  V30 53 H -8.053360 -5.147585 -1.185142 0
M  V30 54 H -8.135622 -5.837733 -3.606205 0
M  V30 55 H -6.662388 -4.734734 -5.190436 0
M  V30 56 H -5.123341 -2.986665 -4.439134 0
M  V30 57 H -3.943717 -0.173679 3.513593 0
M  V30 58 H -5.108384 1.262800 3.705010 0
M  V30 59 H -3.679108 1.060250 4.769868 0
M  V30 60 H -3.673667 3.400889 1.678226 0
M  V30 61 H -2.496816 3.656045 3.029289 0
M  V30 62 H -4.220337 3.350358 3.436882 0
M  V30 63 H 7.010590 -2.309867 -0.304075 0
M  V30 64 H 7.530626 -0.762193 0.565279 0
M  V30 65 H 8.253183 -1.050041 -2.006942 0
M  V30 66 H 7.585920 0.514214 -1.419795 0
M  V30 67 H 6.244865 -1.605719 -3.113995 0
M  V30 68 H 6.081011 0.176599 -3.163516 0
M  V30 69 H 4.498365 0.273594 -1.617050 0
M  V30 70 H 3.118394 -2.261882 -3.003641 0
M  V30 71 H 2.577209 -3.620676 -2.256823 0
M  V30 END ATOM
M  V30 BEGIN BOND
M  V30 1 1 1 2
M  V30 2 1 2 3
M  V30 3 2 3 4
M  V30 4 1 4 5
M  V30 5 1 5 6
M  V30 6 1 6 7
M  V30 7 1 7 8
M  V30 8 1 8 9
M  V30 9 2 9 10
M  V30 10 1 10 11
M  V30 11 1 11 12
M  V30 12 1 12 13
M  V30 13 1 13 14
M  V30 14 2 14 15
M  V30 15 1 14 16
M  V30 16 1 16 17
M  V30 17 1 17 18
M  V30 18 1 18 19
M  V30 19 1 19 20
M  V30 20 2 20 21
M  V30 21 1 21 22
M  V30 22 2 22 23
M  V30 23 1 23 24
M  V30 24 2 24 25
M  V30 25 1 13 26
M  V30 26 1 26 27
M  V30 27 1 26 28
M  V30 28 2 5 29
M  V30 29 1 29 30
M  V30 30 1 30 31
M  V30 31 1 31 32
M  V30 32 1 32 33
M  V30 33 1 33 34
M  V30 34 1 34 35
M  V30 35 1 35 36
M  V30 36 1 36 37
M  V30 37 2 36 38
M  V30 38 2 30 39
M  V30 39 1 39 3
M  V30 40 2 11 7
M  V30 41 1 19 17
M  V30 42 1 25 20
M  V30 43 1 35 31
M  V30 44 1 26 10
M  V30 45 1 1 40
M  V30 46 1 1 41
M  V30 47 1 1 42
M  V30 48 1 6 43
M  V30 49 1 8 44
M  V30 50 1 12 45
M  V30 51 1 12 46
M  V30 52 1 16 47
M  V30 53 1 17 48
M  V30 54 1 18 49
M  V30 55 1 18 50
M  V30 56 1 19 51
M  V30 57 1 21 52
M  V30 58 1 22 53
M  V30 59 1 23 54
M  V30 60 1 24 55
M  V30 61 1 25 56
M  V30 62 1 27 57
M  V30 63 1 27 58
M  V30 64 1 27 59
M  V30 65 1 28 60
M  V30 66 1 28 61
M  V30 67 1 28 62
M  V30 68 1 32 63
M  V30 69 1 32 64
M  V30 70 1 33 65
M  V30 71 1 33 66
M  V30 72 1 34 67
M  V30 73 1 34 68
M  V30 74 1 35 69 CFG=1
M  V30 75 1 37 70
M  V30 76 1 37 71
M  V30 END BOND
M  V30 END CTAB
M  END
>  <Dataset>  (891) 
ChEMBL_Kinases

>  <Ligand_Instance>  (891) 
nan

>  <PDB_ID>  (891) 
nan

>  <Standardized_SMILES>  (891) 
COc1nc(Nc2[nH]nc3c2CN(C(=O)NC2CC2c2ccccc2)C3(C)C)nc(N2CCC[C@H]2C(N)=O)n1

>  <Name>  (891) 
nan

>  <Pocket>  (891) 
nan

>  <ATP_Site>  (891) 
nan

>  <Peripheral>  (891) 
nan

>  <Num_H_Atoms_ProtBoundConf>  (891) 
nan

>  <Num_Resolved_Atoms>  (891) 
nan

>  <Num_Not_Resolved_Atoms>  (891) 
nan

$$$$
CHEMBL3669596
     RDKit          3D

  0  0  0  0  0  0  0  0  0  0999 V3000
M  V30 BEGIN CTAB
M  V30 COUNTS 67 72 0 0 0
M  V30 BEGIN ATOM
M  V30 1 C 6.411530 3.174316 4.931799 0
M  V30 2 O 6.052989 2.606753 3.673078 0
M  V30 3 C 4.701517 2.483241 3.381143 0
M  V30 4 N 4.359688 1.948991 2.196561 0
M  V30 5 C 3.042242 1.816975 1.887159 0
M  V30 6 N 2.477444 1.266179 0.678992 0
M  V30 7 C 2.223428 -0.147962 0.717290 0
M  V30 8 N 2.443554 -1.020982 1.713258 0
M  V30 9 N 2.081721 -2.247594 1.384342 0
M  V30 10 C 1.596920 -2.233877 0.129798 0
M  V30 11 C 1.683252 -0.925237 -0.292100 0
M  V30 12 C 1.144174 -0.946161 -1.674766 0
M  V30 13 N 0.123302 -1.969293 -1.582493 0
M  V30 14 C -1.205266 -1.639217 -2.019065 0
M  V30 15 O -1.019276 -0.436792 -2.375312 0
M  V30 16 N -2.419524 -2.372927 -2.071483 0
M  V30 17 C -3.588573 -1.733310 -2.569787 0
M  V30 18 C -4.938799 -1.886948 -2.016842 0
M  V30 19 C -4.615706 -2.405299 -3.401662 0
M  V30 20 C -4.640525 -3.852494 -3.650495 0
M  V30 21 C -4.406078 -4.839849 -2.702914 0
M  V30 22 C -4.435826 -6.189074 -2.992016 0
M  V30 23 C -4.703477 -6.630794 -4.250989 0
M  V30 24 C -4.947762 -5.718933 -5.248857 0
M  V30 25 C -4.906360 -4.397995 -4.911380 0
M  V30 26 C 0.999334 -2.990096 -1.024465 0
M  V30 27 C 2.111356 -3.400332 -1.924222 0
M  V30 28 C 0.150603 -4.137197 -0.519138 0
M  V30 29 N 2.107802 2.222054 2.768092 0
M  V30 30 C 2.430763 2.759110 3.958444 0
M  V30 31 N 1.377975 3.156401 4.823692 0
M  V30 32 C -0.032894 3.066289 4.518444 0
M  V30 33 C -0.503522 4.465831 4.829646 0
M  V30 34 C 0.204998 4.759534 6.131235 0
M  V30 35 C 1.299891 3.718723 6.151541 0
M  V30 36 N 3.735129 2.883619 4.251774 0
M  V30 37 H 5.887960 2.571602 5.728240 0
M  V30 38 H 6.110933 4.239888 5.006671 0
M  V30 39 H 7.498076 3.036666 5.046828 0
M  V30 40 H 2.239224 1.774505 -0.200424 0
M  V30 41 H 2.145458 -3.117279 1.974214 0
M  V30 42 H 1.933736 -1.352064 -2.360746 0
M  V30 43 H 0.797913 0.039790 -1.977395 0
M  V30 44 H -2.167715 -3.310636 -1.698709 0
M  V30 45 H -3.375684 -0.665222 -2.886143 0
M  V30 46 H -5.639145 -1.027566 -1.962848 0
M  V30 47 H -5.202987 -2.661878 -1.273300 0
M  V30 48 H -5.031019 -1.832892 -4.287720 0
M  V30 49 H -4.195317 -4.532443 -1.689064 0
M  V30 50 H -4.242665 -6.915411 -2.203278 0
M  V30 51 H -4.729790 -7.674909 -4.491294 0
M  V30 52 H -5.165221 -6.017676 -6.262727 0
M  V30 53 H -5.103418 -3.679462 -5.720095 0
M  V30 54 H 3.072842 -2.916271 -1.728010 0
M  V30 55 H 1.751490 -3.280899 -2.980377 0
M  V30 56 H 2.203278 -4.521156 -1.814302 0
M  V30 57 H -0.641551 -3.675779 0.103077 0
M  V30 58 H -0.241821 -4.693592 -1.378748 0
M  V30 59 H 0.742072 -4.775709 0.176983 0
M  V30 60 H -0.233496 2.768603 3.470001 0
M  V30 61 H -0.499021 2.370851 5.247978 0
M  V30 62 H -1.606814 4.524351 4.936904 0
M  V30 63 H -0.116331 5.143517 4.052435 0
M  V30 64 H 0.612136 5.792480 6.158996 0
M  V30 65 H -0.524122 4.584723 6.971867 0
M  V30 66 H 2.287061 4.181972 6.368593 0
M  V30 67 H 1.048674 2.916030 6.878866 0
M  V30 END ATOM
M  V30 BEGIN BOND
M  V30 1 1 1 2
M  V30 2 1 2 3
M  V30 3 2 3 4
M  V30 4 1 4 5
M  V30 5 1 5 6
M  V30 6 1 6 7
M  V30 7 2 7 8
M  V30 8 1 8 9
M  V30 9 1 9 10
M  V30 10 2 10 11
M  V30 11 1 11 12
M  V30 12 1 12 13
M  V30 13 1 13 14
M  V30 14 2 14 15
M  V30 15 1 14 16
M  V30 16 1 16 17
M  V30 17 1 17 18
M  V30 18 1 18 19
M  V30 19 1 19 20
M  V30 20 2 20 21
M  V30 21 1 21 22
M  V30 22 2 22 23
M  V30 23 1 23 24
M  V30 24 2 24 25
M  V30 25 1 13 26
M  V30 26 1 26 27
M  V30 27 1 26 28
M  V30 28 2 5 29
M  V30 29 1 29 30
M  V30 30 1 30 31
M  V30 31 1 31 32
M  V30 32 1 32 33
M  V30 33 1 33 34
M  V30 34 1 34 35
M  V30 35 2 30 36
M  V30 36 1 36 3
M  V30 37 1 11 7
M  V30 38 1 19 17
M  V30 39 1 25 20
M  V30 40 1 35 31
M  V30 41 1 26 10
M  V30 42 1 1 37
M  V30 43 1 1 38
M  V30 44 1 1 39
M  V30 45 1 6 40
M  V30 46 1 9 41
M  V30 47 1 12 42
M  V30 48 1 12 43
M  V30 49 1 16 44
M  V30 50 1 17 45
M  V30 51 1 18 46
M  V30 52 1 18 47
M  V30 53 1 19 48
M  V30 54 1 21 49
M  V30 55 1 22 50
M  V30 56 1 23 51
M  V30 57 1 24 52
M  V30 58 1 25 53
M  V30 59 1 27 54
M  V30 60 1 27 55
M  V30 61 1 27 56
M  V30 62 1 28 57
M  V30 63 1 28 58
M  V30 64 1 28 59
M  V30 65 1 32 60
M  V30 66 1 32 61
M  V30 67 1 33 62
M  V30 68 1 33 63
M  V30 69 1 34 64
M  V30 70 1 34 65
M  V30 71 1 35 66
M  V30 72 1 35 67
M  V30 END BOND
M  V30 END CTAB
M  END
>  <Dataset>  (892) 
ChEMBL_Kinases

>  <Ligand_Instance>  (892) 
nan

>  <PDB_ID>  (892) 
nan

>  <Standardized_SMILES>  (892) 
COc1nc(Nc2n[nH]c3c2CN(C(=O)NC2CC2c2ccccc2)C3(C)C)nc(N2CCCC2)n1

>  <Name>  (892) 
nan

>  <Pocket>  (892) 
nan

>  <ATP_Site>  (892) 
nan

>  <Peripheral>  (892) 
nan

>  <Num_H_Atoms_ProtBoundConf>  (892) 
nan

>  <Num_Resolved_Atoms>  (892) 
nan

>  <Num_Not_Resolved_Atoms>  (892) 
nan

$$$$
CHEMBL3669595
     RDKit          3D

  0  0  0  0  0  0  0  0  0  0999 V3000
M  V30 BEGIN CTAB
M  V30 COUNTS 64 69 0 0 0
M  V30 BEGIN ATOM
M  V30 1 C 2.878038 0.514161 6.404499 0
M  V30 2 O 2.444999 1.759432 5.945833 0
M  V30 3 C 1.947057 2.011086 4.681539 0
M  V30 4 N 1.798300 1.102271 3.689673 0
M  V30 5 C 1.303421 1.436770 2.486135 0
M  V30 6 N 1.158866 0.465177 1.458094 0
M  V30 7 C 0.644655 0.791838 0.199300 0
M  V30 8 N 0.240923 2.022094 -0.178203 0
M  V30 9 N -0.190279 2.010882 -1.423933 0
M  V30 10 C -0.098763 0.760238 -1.956112 0
M  V30 11 C 0.426389 0.016222 -0.920442 0
M  V30 12 C 0.546762 -1.361797 -1.445867 0
M  V30 13 N -0.643760 -1.417769 -2.310644 0
M  V30 14 C -1.776375 -2.312375 -2.380594 0
M  V30 15 O -2.599392 -2.023104 -3.287405 0
M  V30 16 N -1.886996 -3.386717 -1.486826 0
M  V30 17 C -3.063076 -4.210649 -1.655106 0
M  V30 18 C -3.919631 -4.572712 -0.457874 0
M  V30 19 C -3.154128 -5.606393 -1.194197 0
M  V30 20 C -2.109457 -6.308430 -0.448179 0
M  V30 21 C -1.764005 -7.602414 -0.853233 0
M  V30 22 C -0.799158 -8.387274 -0.231835 0
M  V30 23 C -0.126403 -7.870093 0.861056 0
M  V30 24 C -0.433155 -6.603368 1.293891 0
M  V30 25 C -1.394543 -5.871076 0.643975 0
M  V30 26 C -0.261843 -0.240335 -3.058593 0
M  V30 27 C -1.378931 0.245759 -3.955517 0
M  V30 28 C 1.041951 -0.354127 -3.773843 0
M  V30 29 N 0.939725 2.731476 2.257361 0
M  V30 30 C 1.074483 3.665908 3.224909 0
M  V30 31 N 0.708924 5.024884 3.034679 0
M  V30 32 C 0.116570 5.945094 2.022712 0
M  V30 33 C 0.563673 6.395794 3.408440 0
M  V30 34 C 1.764475 7.326120 3.315396 0
M  V30 35 N 1.572754 3.272727 4.400935 0
M  V30 36 H 2.426260 0.374833 7.421798 0
M  V30 37 H 2.469184 -0.308805 5.786193 0
M  V30 38 H 3.969131 0.399436 6.415345 0
M  V30 39 H 1.446605 -0.516726 1.657379 0
M  V30 40 H -0.572659 2.796508 -2.023710 0
M  V30 41 H 1.472699 -1.536609 -2.023860 0
M  V30 42 H 0.494334 -2.127176 -0.658591 0
M  V30 43 H -1.121053 -3.472212 -0.812321 0
M  V30 44 H -3.721967 -3.926374 -2.530172 0
M  V30 45 H -5.021732 -4.515568 -0.512934 0
M  V30 46 H -3.531594 -4.162729 0.514030 0
M  V30 47 H -3.757177 -6.295156 -1.839057 0
M  V30 48 H -2.263164 -8.069649 -1.714871 0
M  V30 49 H -0.588374 -9.381311 -0.605444 0
M  V30 50 H 0.604744 -8.522507 1.296220 0
M  V30 51 H 0.083499 -6.205705 2.133131 0
M  V30 52 H -1.624753 -4.882349 1.005599 0
M  V30 53 H -1.531442 -0.532150 -4.735596 0
M  V30 54 H -1.122134 1.178861 -4.456477 0
M  V30 55 H -2.313547 0.292397 -3.367363 0
M  V30 56 H 0.939728 0.244658 -4.720400 0
M  V30 57 H 1.302888 -1.393545 -4.053337 0
M  V30 58 H 1.907805 0.100702 -3.238084 0
M  V30 59 H 0.757725 6.083142 1.154542 0
M  V30 60 H -0.984503 5.906628 1.914998 0
M  V30 61 H -0.195627 6.721493 4.131788 0
M  V30 62 H 1.897495 7.961647 4.199924 0
M  V30 63 H 1.531482 8.038399 2.473993 0
M  V30 64 H 2.684544 6.795188 3.010974 0
M  V30 END ATOM
M  V30 BEGIN BOND
M  V30 1 1 1 2
M  V30 2 1 2 3
M  V30 3 2 3 4
M  V30 4 1 4 5
M  V30 5 1 5 6
M  V30 6 1 6 7
M  V30 7 2 7 8
M  V30 8 1 8 9
M  V30 9 1 9 10
M  V30 10 2 10 11
M  V30 11 1 11 12
M  V30 12 1 12 13
M  V30 13 1 13 14
M  V30 14 2 14 15
M  V30 15 1 14 16
M  V30 16 1 16 17
M  V30 17 1 17 18
M  V30 18 1 18 19
M  V30 19 1 19 20
M  V30 20 2 20 21
M  V30 21 1 21 22
M  V30 22 2 22 23
M  V30 23 1 23 24
M  V30 24 2 24 25
M  V30 25 1 13 26
M  V30 26 1 26 27
M  V30 27 1 26 28
M  V30 28 2 5 29
M  V30 29 1 29 30
M  V30 30 1 30 31
M  V30 31 1 31 32
M  V30 32 1 32 33
M  V30 33 1 33 34
M  V30 34 2 30 35
M  V30 35 1 35 3
M  V30 36 1 11 7
M  V30 37 1 19 17
M  V30 38 1 25 20
M  V30 39 1 33 31
M  V30 40 1 26 10
M  V30 41 1 1 36
M  V30 42 1 1 37
M  V30 43 1 1 38
M  V30 44 1 6 39
M  V30 45 1 9 40
M  V30 46 1 12 41
M  V30 47 1 12 42
M  V30 48 1 16 43
M  V30 49 1 17 44
M  V30 50 1 18 45
M  V30 51 1 18 46
M  V30 52 1 19 47
M  V30 53 1 21 48
M  V30 54 1 22 49
M  V30 55 1 23 50
M  V30 56 1 24 51
M  V30 57 1 25 52
M  V30 58 1 27 53
M  V30 59 1 27 54
M  V30 60 1 27 55
M  V30 61 1 28 56
M  V30 62 1 28 57
M  V30 63 1 28 58
M  V30 64 1 32 59
M  V30 65 1 32 60
M  V30 66 1 33 61
M  V30 67 1 34 62
M  V30 68 1 34 63
M  V30 69 1 34 64
M  V30 END BOND
M  V30 END CTAB
M  END
>  <Dataset>  (893) 
ChEMBL_Kinases

>  <Ligand_Instance>  (893) 
nan

>  <PDB_ID>  (893) 
nan

>  <Standardized_SMILES>  (893) 
COc1nc(Nc2n[nH]c3c2CN(C(=O)NC2CC2c2ccccc2)C3(C)C)nc(N2CC2C)n1

>  <Name>  (893) 
nan

>  <Pocket>  (893) 
nan

>  <ATP_Site>  (893) 
nan

>  <Peripheral>  (893) 
nan

>  <Num_H_Atoms_ProtBoundConf>  (893) 
nan

>  <Num_Resolved_Atoms>  (893) 
nan

>  <Num_Not_Resolved_Atoms>  (893) 
nan

$$$$
CHEMBL3669594
     RDKit          3D

  0  0  0  0  0  0  0  0  0  0999 V3000
M  V30 BEGIN CTAB
M  V30 COUNTS 74 79 0 0 0
M  V30 BEGIN ATOM
M  V30 1 C 5.205340 -4.010274 3.346264 0
M  V30 2 N 4.091513 -3.081149 3.289307 0
M  V30 3 C 3.482944 -2.469422 2.141824 0
M  V30 4 O 3.964279 -2.764127 1.025836 0
M  V30 5 C 2.352025 -1.563224 2.477529 0 CFG=2
M  V30 6 C 1.234786 -2.435944 3.012819 0
M  V30 7 C 0.766607 -3.088182 1.730011 0
M  V30 8 C 0.919092 -2.001141 0.720392 0
M  V30 9 N 1.865178 -1.028593 1.226398 0
M  V30 10 C 2.263307 0.201814 0.645783 0
M  V30 11 N 1.816335 0.663910 -0.527956 0
M  V30 12 C 2.171338 1.810583 -1.111642 0
M  V30 13 N 1.706570 2.304393 -2.349135 0
M  V30 14 C 0.709077 1.792465 -3.215164 0
M  V30 15 N 0.419502 2.347707 -4.435486 0
M  V30 16 N -0.548581 1.652727 -4.988391 0
M  V30 17 C -0.941807 0.655244 -4.223599 0
M  V30 18 C -0.162191 0.717873 -3.087817 0
M  V30 19 C -0.599838 -0.375420 -2.204980 0
M  V30 20 N -1.916082 -0.753640 -2.765955 0
M  V30 21 C -3.102574 -1.297494 -2.141575 0
M  V30 22 O -4.172542 -1.590336 -2.783232 0
M  V30 23 N -3.176826 -1.555432 -0.728280 0
M  V30 24 C -4.371133 -2.101352 -0.129814 0
M  V30 25 C -4.231426 -3.048103 1.026530 0
M  V30 26 C -4.845353 -1.695065 1.220276 0
M  V30 27 C -4.104353 -0.761130 2.079946 0
M  V30 28 C -2.774730 -0.839507 2.431324 0
M  V30 29 C -2.135325 0.079130 3.234666 0
M  V30 30 C -2.830064 1.155923 3.738578 0
M  V30 31 C -4.152120 1.314930 3.443434 0
M  V30 32 C -4.734671 0.358821 2.632380 0
M  V30 33 C -1.899827 -0.477055 -4.181855 0
M  V30 34 C -1.306516 -1.665429 -4.883493 0
M  V30 35 C -3.229696 -0.046265 -4.734770 0
M  V30 36 N 3.059586 2.524494 -0.412461 0
M  V30 37 C 3.572082 2.160236 0.768498 0
M  V30 38 O 4.490630 2.984777 1.405840 0
M  V30 39 C 5.037260 2.607540 2.654890 0
M  V30 40 N 3.153276 0.988518 1.274564 0
M  V30 41 H 5.569383 -4.277008 2.333918 0
M  V30 42 H 5.999965 -3.521971 3.913294 0
M  V30 43 H 4.823121 -4.942390 3.824610 0
M  V30 44 H 3.763211 -2.899996 4.278255 0
M  V30 45 H 2.616989 -0.809189 3.210883 0
M  V30 46 H 1.664562 -3.175836 3.718972 0
M  V30 47 H 0.412159 -1.860752 3.448099 0
M  V30 48 H 1.441697 -3.934723 1.461264 0
M  V30 49 H -0.276597 -3.433230 1.884891 0
M  V30 50 H 1.249613 -2.401618 -0.281059 0
M  V30 51 H -0.083919 -1.518207 0.617238 0
M  V30 52 H 2.179745 3.202371 -2.683076 0
M  V30 53 H 0.846355 3.176543 -4.914575 0
M  V30 54 H -0.749648 -0.040228 -1.150750 0
M  V30 55 H 0.031346 -1.270289 -2.254544 0
M  V30 56 H -2.291242 -1.298206 -0.252712 0
M  V30 57 H -5.201085 -2.370502 -0.846655 0
M  V30 58 H -4.972390 -3.889891 1.121767 0
M  V30 59 H -3.258174 -3.292259 1.468251 0
M  V30 60 H -5.963281 -1.592050 1.338597 0
M  V30 61 H -2.199923 -1.662437 2.069952 0
M  V30 62 H -1.097750 0.000919 3.496379 0
M  V30 63 H -2.394688 1.912865 4.372931 0
M  V30 64 H -4.751513 2.133427 3.804512 0
M  V30 65 H -5.797746 0.493663 2.398558 0
M  V30 66 H -0.219532 -1.535274 -5.075355 0
M  V30 67 H -1.394215 -2.571333 -4.248125 0
M  V30 68 H -1.750682 -1.848764 -5.884916 0
M  V30 69 H -3.797113 0.413640 -3.924150 0
M  V30 70 H -3.034689 0.733728 -5.494547 0
M  V30 71 H -3.703660 -0.876980 -5.249501 0
M  V30 72 H 5.996848 2.034056 2.546222 0
M  V30 73 H 4.347609 1.932793 3.201071 0
M  V30 74 H 5.186380 3.501123 3.320282 0
M  V30 END ATOM
M  V30 BEGIN BOND
M  V30 1 1 1 2
M  V30 2 1 2 3
M  V30 3 2 3 4
M  V30 4 1 3 5
M  V30 5 1 5 6
M  V30 6 1 6 7
M  V30 7 1 7 8
M  V30 8 1 8 9
M  V30 9 1 9 10
M  V30 10 2 10 11
M  V30 11 1 11 12
M  V30 12 1 12 13
M  V30 13 1 13 14
M  V30 14 1 14 15
M  V30 15 1 15 16
M  V30 16 2 16 17
M  V30 17 1 17 18
M  V30 18 1 18 19
M  V30 19 1 19 20
M  V30 20 1 20 21
M  V30 21 2 21 22
M  V30 22 1 21 23
M  V30 23 1 23 24
M  V30 24 1 24 25
M  V30 25 1 25 26
M  V30 26 1 26 27
M  V30 27 2 27 28
M  V30 28 1 28 29
M  V30 29 2 29 30
M  V30 30 1 30 31
M  V30 31 2 31 32
M  V30 32 1 20 33
M  V30 33 1 33 34
M  V30 34 1 33 35
M  V30 35 2 12 36
M  V30 36 1 36 37
M  V30 37 1 37 38
M  V30 38 1 38 39
M  V30 39 2 37 40
M  V30 40 1 9 5
M  V30 41 1 40 10
M  V30 42 2 18 14
M  V30 43 1 26 24
M  V30 44 1 32 27
M  V30 45 1 33 17
M  V30 46 1 1 41
M  V30 47 1 1 42
M  V30 48 1 1 43
M  V30 49 1 2 44
M  V30 50 1 5 45 CFG=1
M  V30 51 1 6 46
M  V30 52 1 6 47
M  V30 53 1 7 48
M  V30 54 1 7 49
M  V30 55 1 8 50
M  V30 56 1 8 51
M  V30 57 1 13 52
M  V30 58 1 15 53
M  V30 59 1 19 54
M  V30 60 1 19 55
M  V30 61 1 23 56
M  V30 62 1 24 57
M  V30 63 1 25 58
M  V30 64 1 25 59
M  V30 65 1 26 60
M  V30 66 1 28 61
M  V30 67 1 29 62
M  V30 68 1 30 63
M  V30 69 1 31 64
M  V30 70 1 32 65
M  V30 71 1 34 66
M  V30 72 1 34 67
M  V30 73 1 34 68
M  V30 74 1 35 69
M  V30 75 1 35 70
M  V30 76 1 35 71
M  V30 77 1 39 72
M  V30 78 1 39 73
M  V30 79 1 39 74
M  V30 END BOND
M  V30 END CTAB
M  END
>  <Dataset>  (894) 
ChEMBL_Kinases

>  <Ligand_Instance>  (894) 
nan

>  <PDB_ID>  (894) 
nan

>  <Standardized_SMILES>  (894) 
CNC(=O)[C@@H]1CCCN1c1nc(Nc2[nH]nc3c2CN(C(=O)NC2CC2c2ccccc2)C3(C)C)nc(OC)n1

>  <Name>  (894) 
nan

>  <Pocket>  (894) 
nan

>  <ATP_Site>  (894) 
nan

>  <Peripheral>  (894) 
nan

>  <Num_H_Atoms_ProtBoundConf>  (894) 
nan

>  <Num_Resolved_Atoms>  (894) 
nan

>  <Num_Not_Resolved_Atoms>  (894) 
nan

$$$$
CHEMBL3669593
     RDKit          3D

  0  0  0  0  0  0  0  0  0  0999 V3000
M  V30 BEGIN CTAB
M  V30 COUNTS 71 76 0 0 0
M  V30 BEGIN ATOM
M  V30 1 C -0.318231 2.005284 3.125340 0
M  V30 2 O -1.013634 2.282364 1.912370 0
M  V30 3 C -0.361232 2.012509 0.689567 0
M  V30 4 N 0.904968 1.500979 0.678686 0
M  V30 5 C 1.468309 1.265269 -0.547472 0
M  V30 6 N 2.761298 0.762456 -0.347509 0
M  V30 7 C 3.356211 -0.485804 -0.030947 0
M  V30 8 N 4.672408 -0.655510 0.109418 0
M  V30 9 N 4.814819 -1.927474 0.423795 0
M  V30 10 C 3.640600 -2.569542 0.487734 0
M  V30 11 C 2.658655 -1.650569 0.192299 0
M  V30 12 C 1.351701 -2.356549 0.244457 0
M  V30 13 N 1.641155 -3.424855 1.180500 0
M  V30 14 C 0.838443 -3.962986 2.256742 0
M  V30 15 O 1.312704 -4.883250 2.978972 0
M  V30 16 N -0.478866 -3.404953 2.440942 0
M  V30 17 C -1.289718 -3.913462 3.499342 0
M  V30 18 C -2.565836 -4.628135 3.000493 0
M  V30 19 C -2.584553 -3.452223 3.935044 0 CFG=2
M  V30 20 C -3.338748 -2.291255 3.502227 0
M  V30 21 C -3.958316 -1.460592 4.415190 0
M  V30 22 C -4.701981 -0.347041 4.058446 0
M  V30 23 C -4.860714 -0.007340 2.711187 0
M  V30 24 C -4.234470 -0.850110 1.822029 0
M  V30 25 C -3.496958 -1.955191 2.177832 0
M  V30 26 C 2.962544 -3.861329 0.759530 0
M  V30 27 C 2.867194 -4.629590 -0.555445 0
M  V30 28 C 3.686441 -4.661976 1.818571 0
M  V30 29 N 0.787548 1.533028 -1.670685 0
M  V30 30 C -0.458188 2.036983 -1.662097 0
M  V30 31 N -1.206849 2.335281 -2.822641 0
M  V30 32 C -2.511143 3.018539 -2.791859 0
M  V30 33 C -2.274846 4.143562 -3.795048 0
M  V30 34 C -1.147036 3.625296 -4.690978 0
M  V30 35 C -1.108965 2.168641 -4.251180 0 CFG=1
M  V30 36 C 0.104963 1.447770 -4.724384 0
M  V30 37 O 1.291572 2.048387 -4.389879 0
M  V30 38 N -0.993821 2.261323 -0.450568 0
M  V30 39 H -0.500963 2.784228 3.863719 0
M  V30 40 H 0.773135 1.966177 2.922138 0
M  V30 41 H -0.602986 0.975767 3.444915 0
M  V30 42 H 3.313905 1.637209 -0.504198 0
M  V30 43 H 5.492269 -0.014876 0.018702 0
M  V30 44 H 1.052873 -2.747080 -0.750510 0
M  V30 45 H 0.565845 -1.682973 0.625260 0
M  V30 46 H -0.765447 -2.650394 1.783695 0
M  V30 47 H -0.672170 -4.562861 4.194236 0
M  V30 48 H -2.832126 -4.502978 1.931577 0
M  V30 49 H -2.720881 -5.641335 3.380335 0
M  V30 50 H -2.831645 -3.739726 5.008380 0
M  V30 51 H -3.888529 -1.650807 5.490066 0
M  V30 52 H -5.189500 0.303851 4.792296 0
M  V30 53 H -5.433969 0.853729 2.416597 0
M  V30 54 H -4.369887 -0.569044 0.784001 0
M  V30 55 H -3.074742 -2.521717 1.364310 0
M  V30 56 H 1.872268 -5.115139 -0.622695 0
M  V30 57 H 3.629657 -5.415460 -0.648065 0
M  V30 58 H 2.961919 -3.958087 -1.439302 0
M  V30 59 H 4.764953 -4.629693 1.590086 0
M  V30 60 H 3.269588 -5.690966 1.801920 0
M  V30 61 H 3.527661 -4.169912 2.795788 0
M  V30 62 H -2.730630 3.419848 -1.781964 0
M  V30 63 H -3.246874 2.307993 -3.185505 0
M  V30 64 H -3.219612 4.292285 -4.352236 0
M  V30 65 H -1.970099 5.027958 -3.201723 0
M  V30 66 H -1.340944 3.761623 -5.755514 0
M  V30 67 H -0.223365 4.099757 -4.311938 0
M  V30 68 H -2.001013 1.617722 -4.646236 0
M  V30 69 H 0.019058 0.398054 -4.360746 0
M  V30 70 H 0.000298 1.370736 -5.839869 0
M  V30 71 H 1.791799 2.248744 -5.227942 0
M  V30 END ATOM
M  V30 BEGIN BOND
M  V30 1 1 1 2
M  V30 2 1 2 3
M  V30 3 2 3 4
M  V30 4 1 4 5
M  V30 5 1 5 6
M  V30 6 1 6 7
M  V30 7 1 7 8
M  V30 8 1 8 9
M  V30 9 2 9 10
M  V30 10 1 10 11
M  V30 11 1 11 12
M  V30 12 1 12 13
M  V30 13 1 13 14
M  V30 14 2 14 15
M  V30 15 1 14 16
M  V30 16 1 16 17
M  V30 17 1 17 18
M  V30 18 1 18 19
M  V30 19 1 19 20
M  V30 20 2 20 21
M  V30 21 1 21 22
M  V30 22 2 22 23
M  V30 23 1 23 24
M  V30 24 2 24 25
M  V30 25 1 13 26
M  V30 26 1 26 27
M  V30 27 1 26 28
M  V30 28 2 5 29
M  V30 29 1 29 30
M  V30 30 1 30 31
M  V30 31 1 31 32
M  V30 32 1 32 33
M  V30 33 1 33 34
M  V30 34 1 34 35
M  V30 35 1 35 36
M  V30 36 1 36 37
M  V30 37 2 30 38
M  V30 38 1 38 3
M  V30 39 2 11 7
M  V30 40 1 19 17
M  V30 41 1 25 20
M  V30 42 1 35 31
M  V30 43 1 26 10
M  V30 44 1 1 39
M  V30 45 1 1 40
M  V30 46 1 1 41
M  V30 47 1 6 42
M  V30 48 1 8 43
M  V30 49 1 12 44
M  V30 50 1 12 45
M  V30 51 1 16 46
M  V30 52 1 17 47
M  V30 53 1 18 48
M  V30 54 1 18 49
M  V30 55 1 19 50 CFG=1
M  V30 56 1 21 51
M  V30 57 1 22 52
M  V30 58 1 23 53
M  V30 59 1 24 54
M  V30 60 1 25 55
M  V30 61 1 27 56
M  V30 62 1 27 57
M  V30 63 1 27 58
M  V30 64 1 28 59
M  V30 65 1 28 60
M  V30 66 1 28 61
M  V30 67 1 32 62
M  V30 68 1 32 63
M  V30 69 1 33 64
M  V30 70 1 33 65
M  V30 71 1 34 66
M  V30 72 1 34 67
M  V30 73 1 35 68 CFG=3
M  V30 74 1 36 69
M  V30 75 1 36 70
M  V30 76 1 37 71
M  V30 END BOND
M  V30 END CTAB
M  END
>  <Dataset>  (895) 
ChEMBL_Kinases

>  <Ligand_Instance>  (895) 
nan

>  <PDB_ID>  (895) 
nan

>  <Standardized_SMILES>  (895) 
COc1nc(Nc2[nH]nc3c2CN(C(=O)NC2C[C@@H]2c2ccccc2)C3(C)C)nc(N2CCC[C@H]2CO)n1

>  <Name>  (895) 
nan

>  <Pocket>  (895) 
nan

>  <ATP_Site>  (895) 
nan

>  <Peripheral>  (895) 
nan

>  <Num_H_Atoms_ProtBoundConf>  (895) 
nan

>  <Num_Resolved_Atoms>  (895) 
nan

>  <Num_Not_Resolved_Atoms>  (895) 
nan

$$$$
CHEMBL3669592
     RDKit          3D

  0  0  0  0  0  0  0  0  0  0999 V3000
M  V30 BEGIN CTAB
M  V30 COUNTS 59 63 0 0 0
M  V30 BEGIN ATOM
M  V30 1 C 3.906438 0.778583 6.441651 0
M  V30 2 N 3.999851 0.225857 5.085377 0
M  V30 3 C 3.705007 -1.210957 4.956302 0
M  V30 4 C 4.311914 0.794732 3.821103 0
M  V30 5 N 5.648025 1.011098 3.638745 0
M  V30 6 C 6.083020 1.526219 2.456191 0
M  V30 7 Cl 7.780517 1.842897 2.133134 0
M  V30 8 N 5.224359 1.821324 1.474856 0
M  V30 9 C 3.878378 1.618747 1.622107 0
M  V30 10 N 2.832452 1.855393 0.681183 0
M  V30 11 C 2.272477 0.664575 0.093359 0
M  V30 12 N 2.669150 -0.586648 0.386055 0
M  V30 13 N 1.932528 -1.452744 -0.332992 0
M  V30 14 C 1.085235 -0.687732 -1.060574 0
M  V30 15 C 1.254071 0.654301 -0.834739 0
M  V30 16 C 0.245683 1.355454 -1.705119 0
M  V30 17 N -0.809545 0.331525 -1.738504 0
M  V30 18 C -2.156939 0.724043 -1.519504 0
M  V30 19 O -2.533192 1.916144 -1.367341 0
M  V30 20 N -3.248725 -0.160498 -1.442526 0
M  V30 21 C -4.660984 -0.190022 -1.272853 0
M  V30 22 C -5.201150 -0.312386 0.174411 0
M  V30 23 C -5.352358 -1.411682 -0.807970 0
M  V30 24 C -4.552266 -2.646761 -0.565966 0
M  V30 25 C -4.590751 -3.774714 -1.311803 0
M  V30 26 C -3.815920 -4.908000 -1.043150 0
M  V30 27 C -2.951515 -4.908775 0.038590 0
M  V30 28 C -2.882208 -3.766552 0.832161 0
M  V30 29 C -3.672734 -2.667339 0.522238 0
M  V30 30 C 0.002548 -0.812614 -2.063256 0
M  V30 31 C -0.634179 -2.152187 -2.004947 0
M  V30 32 C 0.576643 -0.578101 -3.475840 0
M  V30 33 N 3.509225 1.111628 2.801127 0
M  V30 34 H 2.891066 1.178438 6.593913 0
M  V30 35 H 4.718594 1.534187 6.537168 0
M  V30 36 H 4.066752 -0.068268 7.148800 0
M  V30 37 H 2.580267 -1.338965 4.985262 0
M  V30 38 H 4.152865 -1.668973 4.064738 0
M  V30 39 H 4.088208 -1.780382 5.829390 0
M  V30 40 H 2.454960 2.787512 0.388166 0
M  V30 41 H 3.407470 -0.940410 1.044710 0
M  V30 42 H 0.687346 1.535729 -2.698691 0
M  V30 43 H -0.082798 2.296641 -1.242652 0
M  V30 44 H -2.916885 -1.162323 -1.565244 0
M  V30 45 H -5.210702 0.601357 -1.806678 0
M  V30 46 H -4.457267 -0.308776 0.976107 0
M  V30 47 H -6.098047 0.308582 0.435879 0
M  V30 48 H -6.324960 -1.596317 -1.262768 0
M  V30 49 H -5.256469 -3.787105 -2.155895 0
M  V30 50 H -3.853586 -5.791410 -1.640796 0
M  V30 51 H -2.357832 -5.795339 0.230771 0
M  V30 52 H -2.170894 -3.842994 1.669855 0
M  V30 53 H -3.474332 -1.905646 1.248439 0
M  V30 54 H 0.237910 -2.885702 -2.103715 0
M  V30 55 H -1.295964 -2.412047 -2.824789 0
M  V30 56 H -0.994053 -2.346452 -0.980997 0
M  V30 57 H -0.128429 0.078918 -4.053381 0
M  V30 58 H 1.581980 -0.159785 -3.424864 0
M  V30 59 H 0.568615 -1.550213 -3.994681 0
M  V30 END ATOM
M  V30 BEGIN BOND
M  V30 1 1 1 2
M  V30 2 1 2 3
M  V30 3 1 2 4
M  V30 4 2 4 5
M  V30 5 1 5 6
M  V30 6 1 6 7
M  V30 7 2 6 8
M  V30 8 1 8 9
M  V30 9 1 9 10
M  V30 10 1 10 11
M  V30 11 1 11 12
M  V30 12 1 12 13
M  V30 13 2 13 14
M  V30 14 1 14 15
M  V30 15 1 15 16
M  V30 16 1 16 17
M  V30 17 1 17 18
M  V30 18 2 18 19
M  V30 19 1 18 20
M  V30 20 1 20 21
M  V30 21 1 21 22
M  V30 22 1 22 23
M  V30 23 1 23 24
M  V30 24 2 24 25
M  V30 25 1 25 26
M  V30 26 2 26 27
M  V30 27 1 27 28
M  V30 28 2 28 29
M  V30 29 1 17 30
M  V30 30 1 30 31
M  V30 31 1 30 32
M  V30 32 2 9 33
M  V30 33 1 33 4
M  V30 34 2 15 11
M  V30 35 1 23 21
M  V30 36 1 29 24
M  V30 37 1 30 14
M  V30 38 1 1 34
M  V30 39 1 1 35
M  V30 40 1 1 36
M  V30 41 1 3 37
M  V30 42 1 3 38
M  V30 43 1 3 39
M  V30 44 1 10 40
M  V30 45 1 12 41
M  V30 46 1 16 42
M  V30 47 1 16 43
M  V30 48 1 20 44
M  V30 49 1 21 45
M  V30 50 1 22 46
M  V30 51 1 22 47
M  V30 52 1 23 48
M  V30 53 1 25 49
M  V30 54 1 26 50
M  V30 55 1 27 51
M  V30 56 1 28 52
M  V30 57 1 29 53
M  V30 58 1 31 54
M  V30 59 1 31 55
M  V30 60 1 31 56
M  V30 61 1 32 57
M  V30 62 1 32 58
M  V30 63 1 32 59
M  V30 END BOND
M  V30 END CTAB
M  END
>  <Dataset>  (896) 
ChEMBL_Kinases

>  <Ligand_Instance>  (896) 
nan

>  <PDB_ID>  (896) 
nan

>  <Standardized_SMILES>  (896) 
CN(C)c1nc(Cl)nc(Nc2[nH]nc3c2CN(C(=O)NC2CC2c2ccccc2)C3(C)C)n1

>  <Name>  (896) 
nan

>  <Pocket>  (896) 
nan

>  <ATP_Site>  (896) 
nan

>  <Peripheral>  (896) 
nan

>  <Num_H_Atoms_ProtBoundConf>  (896) 
nan

>  <Num_Resolved_Atoms>  (896) 
nan

>  <Num_Not_Resolved_Atoms>  (896) 
nan

$$$$
CHEMBL3669591
     RDKit          3D

  0  0  0  0  0  0  0  0  0  0999 V3000
M  V30 BEGIN CTAB
M  V30 COUNTS 59 63 0 0 0
M  V30 BEGIN ATOM
M  V30 1 C 7.177390 0.686996 4.206076 0
M  V30 2 O 6.851909 -0.595369 4.681256 0
M  V30 3 C 5.622935 -1.194400 4.428369 0
M  V30 4 N 4.706182 -0.518044 3.697811 0
M  V30 5 C 3.496768 -1.095307 3.443059 0
M  V30 6 N 2.487878 -0.418599 2.671661 0
M  V30 7 C 2.558890 -0.670427 1.272298 0
M  V30 8 N 3.459728 -1.458146 0.655292 0
M  V30 9 N 3.244317 -1.476698 -0.670220 0
M  V30 10 C 2.169149 -0.676611 -0.931019 0
M  V30 11 C 1.715155 -0.152767 0.283049 0
M  V30 12 C 0.546698 0.717550 0.005267 0
M  V30 13 N 0.003425 0.045379 -1.182574 0
M  V30 14 C -1.284416 -0.390766 -1.606788 0
M  V30 15 O -1.582939 -0.964562 -2.682085 0
M  V30 16 N -2.382399 -0.176998 -0.758079 0
M  V30 17 C -3.731339 -0.574044 -1.078756 0
M  V30 18 C -4.436042 -1.279165 0.080570 0
M  V30 19 C -4.922311 0.078789 -0.495656 0 CFG=2
M  V30 20 C -6.170174 -0.001950 -1.308038 0
M  V30 21 C -6.416096 -1.056360 -2.173819 0
M  V30 22 C -7.578431 -1.118008 -2.921207 0
M  V30 23 C -8.527166 -0.122254 -2.820407 0
M  V30 24 C -8.309648 0.936987 -1.968593 0
M  V30 25 C -7.139634 0.990697 -1.221929 0
M  V30 26 C 1.246838 -0.101489 -1.946505 0
M  V30 27 C 1.069440 -1.109993 -3.056464 0
M  V30 28 C 1.813459 1.193831 -2.412513 0
M  V30 29 N 3.289966 -2.325672 3.945500 0
M  V30 30 C 4.202595 -3.000639 4.673565 0
M  V30 31 O 3.889283 -4.276245 5.150866 0
M  V30 32 C 4.775280 -5.044111 5.912023 0
M  V30 33 N 5.389956 -2.423822 4.918809 0
M  V30 34 H 6.538438 1.406118 4.767581 0
M  V30 35 H 6.992125 0.733272 3.123077 0
M  V30 36 H 8.237862 0.866315 4.493297 0
M  V30 37 H 1.774717 0.193524 3.078711 0
M  V30 38 H 4.241800 -2.011177 1.051160 0
M  V30 39 H -0.184605 0.775919 0.819354 0
M  V30 40 H 0.827408 1.738126 -0.331596 0
M  V30 41 H -2.268560 0.297706 0.180810 0
M  V30 42 H -3.828793 -1.060703 -2.048851 0
M  V30 43 H -5.091535 -2.136260 -0.113631 0
M  V30 44 H -3.993620 -1.181594 1.095640 0
M  V30 45 H -4.849915 0.965107 0.150493 0
M  V30 46 H -5.699679 -1.855682 -2.282148 0
M  V30 47 H -7.729414 -1.975309 -3.595435 0
M  V30 48 H -9.422598 -0.232497 -3.438771 0
M  V30 49 H -9.069933 1.701605 -1.910502 0
M  V30 50 H -6.989965 1.846051 -0.549875 0
M  V30 51 H 0.581113 -2.003696 -2.610898 0
M  V30 52 H 2.082458 -1.425406 -3.387053 0
M  V30 53 H 0.423794 -0.753983 -3.862869 0
M  V30 54 H 2.245990 1.005752 -3.428476 0
M  V30 55 H 2.577280 1.561025 -1.717513 0
M  V30 56 H 0.983460 1.931978 -2.595714 0
M  V30 57 H 4.518907 -6.122434 5.747640 0
M  V30 58 H 4.713714 -4.867836 7.005377 0
M  V30 59 H 5.821777 -4.838644 5.578920 0
M  V30 END ATOM
M  V30 BEGIN BOND
M  V30 1 1 1 2
M  V30 2 1 2 3
M  V30 3 2 3 4
M  V30 4 1 4 5
M  V30 5 1 5 6
M  V30 6 1 6 7
M  V30 7 1 7 8
M  V30 8 1 8 9
M  V30 9 2 9 10
M  V30 10 1 10 11
M  V30 11 1 11 12
M  V30 12 1 12 13
M  V30 13 1 13 14
M  V30 14 2 14 15
M  V30 15 1 14 16
M  V30 16 1 16 17
M  V30 17 1 17 18
M  V30 18 1 18 19
M  V30 19 1 19 20
M  V30 20 2 20 21
M  V30 21 1 21 22
M  V30 22 2 22 23
M  V30 23 1 23 24
M  V30 24 2 24 25
M  V30 25 1 13 26
M  V30 26 1 26 27
M  V30 27 1 26 28
M  V30 28 2 5 29
M  V30 29 1 29 30
M  V30 30 1 30 31
M  V30 31 1 31 32
M  V30 32 2 30 33
M  V30 33 1 33 3
M  V30 34 2 11 7
M  V30 35 1 19 17
M  V30 36 1 25 20
M  V30 37 1 26 10
M  V30 38 1 1 34
M  V30 39 1 1 35
M  V30 40 1 1 36
M  V30 41 1 6 37
M  V30 42 1 8 38
M  V30 43 1 12 39
M  V30 44 1 12 40
M  V30 45 1 16 41
M  V30 46 1 17 42
M  V30 47 1 18 43
M  V30 48 1 18 44
M  V30 49 1 19 45 CFG=1
M  V30 50 1 21 46
M  V30 51 1 22 47
M  V30 52 1 23 48
M  V30 53 1 24 49
M  V30 54 1 25 50
M  V30 55 1 27 51
M  V30 56 1 27 52
M  V30 57 1 27 53
M  V30 58 1 28 54
M  V30 59 1 28 55
M  V30 60 1 28 56
M  V30 61 1 32 57
M  V30 62 1 32 58
M  V30 63 1 32 59
M  V30 END BOND
M  V30 END CTAB
M  END
>  <Dataset>  (897) 
ChEMBL_Kinases

>  <Ligand_Instance>  (897) 
nan

>  <PDB_ID>  (897) 
nan

>  <Standardized_SMILES>  (897) 
COc1nc(Nc2[nH]nc3c2CN(C(=O)NC2C[C@@H]2c2ccccc2)C3(C)C)nc(OC)n1

>  <Name>  (897) 
nan

>  <Pocket>  (897) 
nan

>  <ATP_Site>  (897) 
nan

>  <Peripheral>  (897) 
nan

>  <Num_H_Atoms_ProtBoundConf>  (897) 
nan

>  <Num_Resolved_Atoms>  (897) 
nan

>  <Num_Not_Resolved_Atoms>  (897) 
nan

$$$$
CHEMBL3669589
     RDKit          3D

  0  0  0  0  0  0  0  0  0  0999 V3000
M  V30 BEGIN CTAB
M  V30 COUNTS 58 63 0 0 0
M  V30 BEGIN ATOM
M  V30 1 C 0.669397 -2.783416 3.454528 0
M  V30 2 C 0.738564 -1.393970 2.877487 0
M  V30 3 C 0.149919 -0.355006 3.779079 0
M  V30 4 C 2.142560 -0.974803 2.612565 0
M  V30 5 N 3.424334 -1.042601 2.991569 0
M  V30 6 N 4.188250 -0.324253 2.173339 0
M  V30 7 C 3.423750 0.258086 1.201737 0
M  V30 8 N 3.953036 1.088766 0.175880 0
M  V30 9 C 4.199937 2.468496 0.107799 0
M  V30 10 N 5.432864 2.835087 0.532515 0
M  V30 11 C 5.801532 4.149262 0.518872 0
M  V30 12 Cl 7.409304 4.638983 1.071271 0
M  V30 13 N 4.943156 5.088756 0.083585 0
M  V30 14 C 3.703633 4.799053 -0.352755 0
M  V30 15 C 2.803108 5.738163 -0.804139 0
M  V30 16 C 1.529354 5.394852 -1.247256 0
M  V30 17 C 1.250633 4.039784 -1.194686 0
M  V30 18 C 2.127563 3.072818 -0.749066 0
M  V30 19 C 3.364807 3.463094 -0.325186 0
M  V30 20 C 2.145278 -0.164015 1.497276 0
M  V30 21 C 0.739206 -0.052756 1.026947 0
M  V30 22 N 0.195530 -1.323012 1.526090 0
M  V30 23 C -0.645740 -2.084925 0.639167 0
M  V30 24 O -0.732626 -1.444824 -0.459106 0
M  V30 25 N -1.310155 -3.312611 0.816522 0
M  V30 26 C -2.099632 -3.837692 -0.281537 0
M  V30 27 C -2.281319 -5.284145 -0.410528 0
M  V30 28 C -3.408554 -4.405669 0.127952 0
M  V30 29 C -4.585583 -4.293493 -0.781547 0
M  V30 30 C -5.893158 -4.284892 -0.340820 0
M  V30 31 C -6.891483 -4.174888 -1.286960 0
M  V30 32 C -6.631019 -4.073612 -2.650902 0
M  V30 33 C -5.314061 -4.083608 -3.077775 0
M  V30 34 C -4.288047 -4.194329 -2.134992 0
M  V30 35 H 1.350177 -2.771587 4.355542 0
M  V30 36 H -0.335869 -2.981608 3.872990 0
M  V30 37 H 1.000241 -3.559135 2.768589 0
M  V30 38 H -0.937815 -0.180166 3.598320 0
M  V30 39 H 0.260231 -0.697557 4.830362 0
M  V30 40 H 0.666041 0.636581 3.704654 0
M  V30 41 H 5.231456 -0.209153 2.247446 0
M  V30 42 H 4.274162 0.782341 -0.781252 0
M  V30 43 H 3.101881 6.786500 -0.813315 0
M  V30 44 H 0.819730 6.128195 -1.602007 0
M  V30 45 H 0.255723 3.714170 -1.534219 0
M  V30 46 H 1.830389 2.035227 -0.741653 0
M  V30 47 H 0.276893 0.787413 1.603034 0
M  V30 48 H 0.654014 0.076638 -0.047295 0
M  V30 49 H -1.153452 -3.714208 1.745194 0
M  V30 50 H -2.102237 -3.186968 -1.192021 0
M  V30 51 H -1.817269 -5.952118 0.360012 0
M  V30 52 H -2.363463 -5.684598 -1.445912 0
M  V30 53 H -3.659022 -4.482020 1.206004 0
M  V30 54 H -6.089270 -4.364032 0.722087 0
M  V30 55 H -7.931975 -4.165293 -0.972737 0
M  V30 56 H -7.437277 -3.987090 -3.384564 0
M  V30 57 H -5.102500 -4.003953 -4.153002 0
M  V30 58 H -3.300518 -4.192108 -2.575916 0
M  V30 END ATOM
M  V30 BEGIN BOND
M  V30 1 1 1 2
M  V30 2 1 2 3
M  V30 3 1 2 4
M  V30 4 2 4 5
M  V30 5 1 5 6
M  V30 6 1 6 7
M  V30 7 1 7 8
M  V30 8 1 8 9
M  V30 9 2 9 10
M  V30 10 1 10 11
M  V30 11 1 11 12
M  V30 12 2 11 13
M  V30 13 1 13 14
M  V30 14 2 14 15
M  V30 15 1 15 16
M  V30 16 2 16 17
M  V30 17 1 17 18
M  V30 18 2 18 19
M  V30 19 2 7 20
M  V30 20 1 20 21
M  V30 21 1 21 22
M  V30 22 1 22 23
M  V30 23 2 23 24
M  V30 24 1 23 25
M  V30 25 1 25 26
M  V30 26 1 26 27
M  V30 27 1 27 28
M  V30 28 1 28 29
M  V30 29 2 29 30
M  V30 30 1 30 31
M  V30 31 2 31 32
M  V30 32 1 32 33
M  V30 33 2 33 34
M  V30 34 1 22 2
M  V30 35 1 28 26
M  V30 36 1 34 29
M  V30 37 1 20 4
M  V30 38 1 19 9
M  V30 39 1 19 14
M  V30 40 1 1 35
M  V30 41 1 1 36
M  V30 42 1 1 37
M  V30 43 1 3 38
M  V30 44 1 3 39
M  V30 45 1 3 40
M  V30 46 1 6 41
M  V30 47 1 8 42
M  V30 48 1 15 43
M  V30 49 1 16 44
M  V30 50 1 17 45
M  V30 51 1 18 46
M  V30 52 1 21 47
M  V30 53 1 21 48
M  V30 54 1 25 49
M  V30 55 1 26 50
M  V30 56 1 27 51
M  V30 57 1 27 52
M  V30 58 1 28 53
M  V30 59 1 30 54
M  V30 60 1 31 55
M  V30 61 1 32 56
M  V30 62 1 33 57
M  V30 63 1 34 58
M  V30 END BOND
M  V30 END CTAB
M  END
>  <Dataset>  (898) 
ChEMBL_Kinases

>  <Ligand_Instance>  (898) 
nan

>  <PDB_ID>  (898) 
nan

>  <Standardized_SMILES>  (898) 
CC1(C)c2n[nH]c(Nc3nc(Cl)nc4ccccc34)c2CN1C(=O)NC1CC1c1ccccc1

>  <Name>  (898) 
nan

>  <Pocket>  (898) 
nan

>  <ATP_Site>  (898) 
nan

>  <Peripheral>  (898) 
nan

>  <Num_H_Atoms_ProtBoundConf>  (898) 
nan

>  <Num_Resolved_Atoms>  (898) 
nan

>  <Num_Not_Resolved_Atoms>  (898) 
nan

$$$$
CHEMBL3669588
     RDKit          3D

  0  0  0  0  0  0  0  0  0  0999 V3000
M  V30 BEGIN CTAB
M  V30 COUNTS 59 63 0 0 0
M  V30 BEGIN ATOM
M  V30 1 C 1.467998 -2.657427 5.869869 0
M  V30 2 S 2.579063 -2.338361 4.500720 0
M  V30 3 C 2.189290 -0.719407 3.820431 0
M  V30 4 N 2.969399 -0.381255 2.782144 0
M  V30 5 C 2.759957 0.829986 2.187971 0
M  V30 6 N 3.464888 1.382045 1.084094 0
M  V30 7 C 3.221927 1.291535 -0.309184 0
M  V30 8 N 3.991746 1.877968 -1.244054 0
M  V30 9 N 3.419472 1.545224 -2.388854 0
M  V30 10 C 2.344085 0.790560 -2.233361 0
M  V30 11 C 2.177121 0.598658 -0.877312 0
M  V30 12 C 0.981519 -0.245753 -0.608295 0
M  V30 13 N 0.341317 -0.219487 -1.937848 0
M  V30 14 C -1.064335 -0.476131 -2.173493 0
M  V30 15 O -1.535944 -0.432359 -3.363822 0
M  V30 16 N -1.965211 -0.785168 -1.088062 0
M  V30 17 C -3.340593 -1.023423 -1.430678 0
M  V30 18 C -4.432887 -0.800973 -0.461763 0
M  V30 19 C -4.019587 -2.184486 -0.663992 0
M  V30 20 C -3.207207 -2.929983 0.315362 0
M  V30 21 C -3.024259 -4.289185 0.039919 0
M  V30 22 C -2.288455 -5.134146 0.877745 0
M  V30 23 C -1.706353 -4.631760 2.033509 0
M  V30 24 C -1.908562 -3.298040 2.267521 0
M  V30 25 C -2.627290 -2.451966 1.458221 0
M  V30 26 C 1.278669 0.094806 -3.003468 0
M  V30 27 C 0.647912 1.014840 -4.025030 0
M  V30 28 C 1.885260 -1.126380 -3.629093 0
M  V30 29 C 1.755277 1.646763 2.685581 0
M  V30 30 C 0.980595 1.238405 3.765300 0
M  V30 31 C -0.099354 2.095802 4.313824 0
M  V30 32 F -0.509212 2.953066 3.322884 0
M  V30 33 F -1.161717 1.321040 4.735643 0
M  V30 34 F 0.417971 2.819871 5.384902 0
M  V30 35 N 1.203522 0.040265 4.336636 0
M  V30 36 H 1.810156 -3.574710 6.410544 0
M  V30 37 H 0.421034 -2.710739 5.568964 0
M  V30 38 H 1.590909 -1.811395 6.603361 0
M  V30 39 H 4.266699 1.917043 1.482175 0
M  V30 40 H 4.850222 2.464517 -1.085028 0
M  V30 41 H 0.307939 0.215993 0.142720 0
M  V30 42 H 1.326949 -1.242726 -0.327675 0
M  V30 43 H -1.485121 -0.792144 -0.192836 0
M  V30 44 H -3.624113 -0.954710 -2.502299 0
M  V30 45 H -5.420479 -0.457007 -0.846432 0
M  V30 46 H -4.132143 -0.279324 0.488589 0
M  V30 47 H -4.669373 -2.840418 -1.305452 0
M  V30 48 H -3.444266 -4.760124 -0.839905 0
M  V30 49 H -2.173590 -6.182475 0.622693 0
M  V30 50 H -1.139459 -5.253208 2.691246 0
M  V30 51 H -1.486529 -2.818268 3.154204 0
M  V30 52 H -2.773007 -1.405643 1.679360 0
M  V30 53 H 0.209208 0.391772 -4.831579 0
M  V30 54 H 1.455223 1.625000 -4.462981 0
M  V30 55 H -0.101658 1.634364 -3.500957 0
M  V30 56 H 2.889748 -1.360864 -3.229679 0
M  V30 57 H 1.228319 -2.002154 -3.643630 0
M  V30 58 H 2.078320 -0.856139 -4.708401 0
M  V30 59 H 1.497861 2.623274 2.298580 0
M  V30 END ATOM
M  V30 BEGIN BOND
M  V30 1 1 1 2
M  V30 2 1 2 3
M  V30 3 2 3 4
M  V30 4 1 4 5
M  V30 5 1 5 6
M  V30 6 1 6 7
M  V30 7 1 7 8
M  V30 8 1 8 9
M  V30 9 2 9 10
M  V30 10 1 10 11
M  V30 11 1 11 12
M  V30 12 1 12 13
M  V30 13 1 13 14
M  V30 14 2 14 15
M  V30 15 1 14 16
M  V30 16 1 16 17
M  V30 17 1 17 18
M  V30 18 1 18 19
M  V30 19 1 19 20
M  V30 20 2 20 21
M  V30 21 1 21 22
M  V30 22 2 22 23
M  V30 23 1 23 24
M  V30 24 2 24 25
M  V30 25 1 13 26
M  V30 26 1 26 27
M  V30 27 1 26 28
M  V30 28 2 5 29
M  V30 29 1 29 30
M  V30 30 1 30 31
M  V30 31 1 31 32
M  V30 32 1 31 33
M  V30 33 1 31 34
M  V30 34 2 30 35
M  V30 35 1 35 3
M  V30 36 2 11 7
M  V30 37 1 19 17
M  V30 38 1 25 20
M  V30 39 1 26 10
M  V30 40 1 1 36
M  V30 41 1 1 37
M  V30 42 1 1 38
M  V30 43 1 6 39
M  V30 44 1 8 40
M  V30 45 1 12 41
M  V30 46 1 12 42
M  V30 47 1 16 43
M  V30 48 1 17 44
M  V30 49 1 18 45
M  V30 50 1 18 46
M  V30 51 1 19 47
M  V30 52 1 21 48
M  V30 53 1 22 49
M  V30 54 1 23 50
M  V30 55 1 24 51
M  V30 56 1 25 52
M  V30 57 1 27 53
M  V30 58 1 27 54
M  V30 59 1 27 55
M  V30 60 1 28 56
M  V30 61 1 28 57
M  V30 62 1 28 58
M  V30 63 1 29 59
M  V30 END BOND
M  V30 END CTAB
M  END
>  <Dataset>  (899) 
ChEMBL_Kinases

>  <Ligand_Instance>  (899) 
nan

>  <PDB_ID>  (899) 
nan

>  <Standardized_SMILES>  (899) 
CSc1nc(Nc2[nH]nc3c2CN(C(=O)NC2CC2c2ccccc2)C3(C)C)cc(C(F)(F)F)n1

>  <Name>  (899) 
nan

>  <Pocket>  (899) 
nan

>  <ATP_Site>  (899) 
nan

>  <Peripheral>  (899) 
nan

>  <Num_H_Atoms_ProtBoundConf>  (899) 
nan

>  <Num_Resolved_Atoms>  (899) 
nan

>  <Num_Not_Resolved_Atoms>  (899) 
nan

$$$$
CHEMBL3668560
     RDKit          3D

  0  0  0  0  0  0  0  0  0  0999 V3000
M  V30 BEGIN CTAB
M  V30 COUNTS 61 66 0 0 0
M  V30 BEGIN ATOM
M  V30 1 C 5.798717 1.292748 0.004682 0
M  V30 2 O 4.767308 1.819082 0.794915 0
M  V30 3 C 4.451698 1.209293 1.985294 0
M  V30 4 C 5.125386 0.089299 2.424272 0
M  V30 5 C 4.853317 -0.563185 3.606487 0
M  V30 6 C 3.840217 -0.062889 4.403273 0
M  V30 7 F 3.486848 -0.631010 5.594942 0
M  V30 8 C 3.163034 1.058343 3.967650 0
M  V30 9 C 3.434634 1.714578 2.781464 0
M  V30 10 C 2.708761 2.896943 2.337917 0
M  V30 11 C 3.017215 4.207353 2.601696 0
M  V30 12 C 2.212531 5.212923 2.097054 0
M  V30 13 N 1.121100 4.977712 1.346251 0
M  V30 14 C 0.766903 3.710773 1.053219 0
M  V30 15 N -0.236650 3.152316 0.348790 0
M  V30 16 C -0.149932 1.810448 0.352078 0
M  V30 17 C -1.058114 0.855799 -0.303996 0
M  V30 18 C -2.107698 1.181735 -1.003419 0
M  V30 19 C -2.770577 -0.067779 -1.505007 0
M  V30 20 C -3.667958 -0.677949 -0.477832 0
M  V30 21 N -3.635383 -2.085071 -0.800893 0
M  V30 22 C -4.049699 -2.920510 0.281152 0
M  V30 23 C -4.056203 -4.352887 0.024063 0
M  V30 24 O -4.381253 -5.272557 0.817704 0
M  V30 25 N -3.796112 -5.335490 -0.941800 0
M  V30 26 C -3.975219 -6.750233 -0.678500 0
M  V30 27 C -2.972607 -7.109001 -1.762994 0
M  V30 28 O -1.662028 -7.211115 -1.355323 0
M  V30 29 C -3.370333 -5.743339 -2.289782 0
M  V30 30 C -2.322438 -2.395511 -1.269118 0
M  V30 31 C -1.608387 -1.072869 -1.482315 0
M  V30 32 C -0.873423 -0.621467 -0.239240 0
M  V30 33 C 0.974047 1.537097 1.103814 0
M  V30 34 C 1.565512 2.700648 1.553555 0
M  V30 35 H 6.771720 1.504662 0.504673 0
M  V30 36 H 5.858955 1.731527 -1.002203 0
M  V30 37 H 5.620974 0.200628 -0.088602 0
M  V30 38 H 5.933171 -0.360138 1.850971 0
M  V30 39 H 5.384351 -1.442354 3.947973 0
M  V30 40 H 2.354935 1.519629 4.526700 0
M  V30 41 H 3.895954 4.370621 3.205103 0
M  V30 42 H 2.530793 6.221037 2.354918 0
M  V30 43 H -1.004122 3.666460 -0.150886 0
M  V30 44 H -2.531664 2.155722 -1.251298 0
M  V30 45 H -3.202814 0.060133 -2.497933 0
M  V30 46 H -4.707883 -0.299667 -0.612158 0
M  V30 47 H -3.271981 -0.449010 0.522149 0
M  V30 48 H -5.113639 -2.620107 0.515174 0
M  V30 49 H -3.500242 -2.654516 1.223092 0
M  V30 50 H -3.601099 -7.137148 0.277148 0
M  V30 51 H -4.987552 -7.153377 -0.969346 0
M  V30 52 H -3.292428 -7.897681 -2.445968 0
M  V30 53 H -1.172908 -6.366809 -1.555823 0
M  V30 54 H -4.173547 -5.754543 -3.032800 0
M  V30 55 H -2.480560 -5.207543 -2.628395 0
M  V30 56 H -2.378286 -2.857655 -2.277783 0
M  V30 57 H -1.742442 -2.963602 -0.530577 0
M  V30 58 H -1.009744 -1.032610 -2.394245 0
M  V30 59 H 0.201949 -0.892548 -0.377279 0
M  V30 60 H -1.309163 -1.080040 0.665437 0
M  V30 61 H 1.306243 0.524085 1.287331 0
M  V30 END ATOM
M  V30 BEGIN BOND
M  V30 1 1 1 2
M  V30 2 1 2 3
M  V30 3 2 3 4
M  V30 4 1 4 5
M  V30 5 2 5 6
M  V30 6 1 6 7
M  V30 7 1 6 8
M  V30 8 2 8 9
M  V30 9 1 9 10
M  V30 10 2 10 11
M  V30 11 1 11 12
M  V30 12 2 12 13
M  V30 13 1 13 14
M  V30 14 1 14 15
M  V30 15 1 15 16
M  V30 16 1 16 17
M  V30 17 2 17 18
M  V30 18 1 18 19
M  V30 19 1 19 20
M  V30 20 1 20 21
M  V30 21 1 21 22
M  V30 22 1 22 23
M  V30 23 2 23 24
M  V30 24 1 23 25
M  V30 25 1 25 26
M  V30 26 1 26 27
M  V30 27 1 27 28
M  V30 28 1 27 29
M  V30 29 1 21 30
M  V30 30 1 30 31
M  V30 31 1 31 32
M  V30 32 2 16 33
M  V30 33 1 33 34
M  V30 34 1 9 3
M  V30 35 1 34 10
M  V30 36 2 34 14
M  V30 37 1 32 17
M  V30 38 1 31 19
M  V30 39 1 29 25
M  V30 40 1 1 35
M  V30 41 1 1 36
M  V30 42 1 1 37
M  V30 43 1 4 38
M  V30 44 1 5 39
M  V30 45 1 8 40
M  V30 46 1 11 41
M  V30 47 1 12 42
M  V30 48 1 15 43
M  V30 49 1 18 44
M  V30 50 1 19 45
M  V30 51 1 20 46
M  V30 52 1 20 47
M  V30 53 1 22 48
M  V30 54 1 22 49
M  V30 55 1 26 50
M  V30 56 1 26 51
M  V30 57 1 27 52
M  V30 58 1 28 53
M  V30 59 1 29 54
M  V30 60 1 29 55
M  V30 61 1 30 56
M  V30 62 1 30 57
M  V30 63 1 31 58
M  V30 64 1 32 59
M  V30 65 1 32 60
M  V30 66 1 33 61
M  V30 END BOND
M  V30 END CTAB
M  END
>  <Dataset>  (900) 
ChEMBL_Kinases

>  <Ligand_Instance>  (900) 
nan

>  <PDB_ID>  (900) 
nan

>  <Standardized_SMILES>  (900) 
COc1ccc(F)cc1-c1ccnc2[nH]c(C3=CC4CN(CC(=O)N5CC(O)C5)CC4C3)cc12

>  <Name>  (900) 
nan

>  <Pocket>  (900) 
nan

>  <ATP_Site>  (900) 
nan

>  <Peripheral>  (900) 
nan

>  <Num_H_Atoms_ProtBoundConf>  (900) 
nan

>  <Num_Resolved_Atoms>  (900) 
nan

>  <Num_Not_Resolved_Atoms>  (900) 
nan

$$$$
CHEMBL3668561
     RDKit          3D

  0  0  0  0  0  0  0  0  0  0999 V3000
M  V30 BEGIN CTAB
M  V30 COUNTS 67 72 0 0 0
M  V30 BEGIN ATOM
M  V30 1 C 3.311213 -2.991816 -0.446634 0
M  V30 2 O 3.436626 -1.621039 -0.095886 0
M  V30 3 C 3.807664 -1.354509 1.215671 0
M  V30 4 C 4.066897 -2.260375 2.210951 0
M  V30 5 C 4.426871 -1.888598 3.475242 0
M  V30 6 C 4.540559 -0.548343 3.786154 0
M  V30 7 F 4.904362 -0.226136 5.067766 0
M  V30 8 C 4.284974 0.391655 2.801492 0
M  V30 9 C 3.920853 -0.009212 1.524428 0
M  V30 10 C 3.694917 1.125019 0.632024 0
M  V30 11 C 4.635937 1.743117 -0.169061 0
M  V30 12 C 4.285955 2.812042 -0.969529 0
M  V30 13 N 3.009632 3.285306 -0.992225 0
M  V30 14 C 2.050205 2.722548 -0.232495 0
M  V30 15 N 0.740276 2.992666 -0.073434 0
M  V30 16 C 0.209468 2.120062 0.821563 0
M  V30 17 C -1.182170 2.027824 1.311270 0
M  V30 18 C -1.631650 1.145515 2.190407 0
M  V30 19 C -3.057775 1.371165 2.421461 0
M  V30 20 C -3.887628 0.125816 2.384368 0
M  V30 21 N -4.119537 -0.188902 0.991106 0
M  V30 22 C -3.350771 -1.383680 0.628139 0
M  V30 23 C -3.555034 -1.746333 -0.788746 0
M  V30 24 O -4.288184 -1.134102 -1.615556 0
M  V30 25 N -2.879294 -2.876671 -1.286283 0
M  V30 26 C -3.029274 -3.307561 -2.692856 0
M  V30 27 C -1.553228 -3.367554 -3.094960 0
M  V30 28 C -0.809425 -3.689760 -1.813477 0
M  V30 29 C -1.978712 -3.895275 -0.864015 0 CFG=1
M  V30 30 C -1.591947 -3.983228 0.551725 0
M  V30 31 O -0.700796 -5.081533 0.650537 0
M  V30 32 C -3.700291 0.958088 0.212859 0
M  V30 33 C -3.499194 2.091495 1.164763 0
M  V30 34 C -2.277879 2.932220 0.870600 0
M  V30 35 C 1.248366 1.299826 1.207914 0
M  V30 36 C 2.412179 1.651128 0.566532 0
M  V30 37 H 3.285902 -3.046531 -1.572681 0
M  V30 38 H 2.343810 -3.381934 -0.044815 0
M  V30 39 H 4.153987 -3.600860 -0.118504 0
M  V30 40 H 3.967327 -3.302095 1.929018 0
M  V30 41 H 4.625093 -2.621794 4.239269 0
M  V30 42 H 4.396679 1.429155 3.127098 0
M  V30 43 H 5.634501 1.334266 -0.118682 0
M  V30 44 H 5.115937 3.204792 -1.547209 0
M  V30 45 H 0.203183 3.749523 -0.554621 0
M  V30 46 H -1.092124 0.354766 2.699534 0
M  V30 47 H -3.274513 2.005854 3.303243 0
M  V30 48 H -3.472099 -0.721032 2.951255 0
M  V30 49 H -4.876734 0.391399 2.819008 0
M  V30 50 H -2.285980 -1.083258 0.732026 0
M  V30 51 H -3.546732 -2.152714 1.362793 0
M  V30 52 H -3.436664 -4.351045 -2.741266 0
M  V30 53 H -3.584112 -2.602605 -3.305127 0
M  V30 54 H -1.407522 -4.188238 -3.831059 0
M  V30 55 H -1.221376 -2.399550 -3.519790 0
M  V30 56 H -0.213689 -4.622676 -1.932735 0
M  V30 57 H -0.183371 -2.850023 -1.456065 0
M  V30 58 H -2.414541 -4.885543 -1.147431 0
M  V30 59 H -1.005916 -3.125779 0.869104 0
M  V30 60 H -2.448294 -4.276042 1.150534 0
M  V30 61 H -0.268518 -5.096523 1.546208 0
M  V30 62 H -4.364622 1.191069 -0.626810 0
M  V30 63 H -2.711504 0.697168 -0.230224 0
M  V30 64 H -4.405697 2.701616 1.328096 0
M  V30 65 H -2.201598 3.189253 -0.203707 0
M  V30 66 H -2.312610 3.817600 1.524328 0
M  V30 67 H 1.118393 0.500705 1.922172 0
M  V30 END ATOM
M  V30 BEGIN BOND
M  V30 1 1 1 2
M  V30 2 1 2 3
M  V30 3 2 3 4
M  V30 4 1 4 5
M  V30 5 2 5 6
M  V30 6 1 6 7
M  V30 7 1 6 8
M  V30 8 2 8 9
M  V30 9 1 9 10
M  V30 10 2 10 11
M  V30 11 1 11 12
M  V30 12 2 12 13
M  V30 13 1 13 14
M  V30 14 1 14 15
M  V30 15 1 15 16
M  V30 16 1 16 17
M  V30 17 2 17 18
M  V30 18 1 18 19
M  V30 19 1 19 20
M  V30 20 1 20 21
M  V30 21 1 21 22
M  V30 22 1 22 23
M  V30 23 2 23 24
M  V30 24 1 23 25
M  V30 25 1 25 26
M  V30 26 1 26 27
M  V30 27 1 27 28
M  V30 28 1 28 29
M  V30 29 1 29 30
M  V30 30 1 30 31
M  V30 31 1 21 32
M  V30 32 1 32 33
M  V30 33 1 33 34
M  V30 34 2 16 35
M  V30 35 1 35 36
M  V30 36 1 9 3
M  V30 37 1 36 10
M  V30 38 2 36 14
M  V30 39 1 34 17
M  V30 40 1 33 19
M  V30 41 1 29 25
M  V30 42 1 1 37
M  V30 43 1 1 38
M  V30 44 1 1 39
M  V30 45 1 4 40
M  V30 46 1 5 41
M  V30 47 1 8 42
M  V30 48 1 11 43
M  V30 49 1 12 44
M  V30 50 1 15 45
M  V30 51 1 18 46
M  V30 52 1 19 47
M  V30 53 1 20 48
M  V30 54 1 20 49
M  V30 55 1 22 50
M  V30 56 1 22 51
M  V30 57 1 26 52
M  V30 58 1 26 53
M  V30 59 1 27 54
M  V30 60 1 27 55
M  V30 61 1 28 56
M  V30 62 1 28 57
M  V30 63 1 29 58 CFG=3
M  V30 64 1 30 59
M  V30 65 1 30 60
M  V30 66 1 31 61
M  V30 67 1 32 62
M  V30 68 1 32 63
M  V30 69 1 33 64
M  V30 70 1 34 65
M  V30 71 1 34 66
M  V30 72 1 35 67
M  V30 END BOND
M  V30 END CTAB
M  END
>  <Dataset>  (901) 
ChEMBL_Kinases

>  <Ligand_Instance>  (901) 
nan

>  <PDB_ID>  (901) 
nan

>  <Standardized_SMILES>  (901) 
COc1ccc(F)cc1-c1ccnc2[nH]c(C3=CC4CN(CC(=O)N5CCC[C@H]5CO)CC4C3)cc12

>  <Name>  (901) 
nan

>  <Pocket>  (901) 
nan

>  <ATP_Site>  (901) 
nan

>  <Peripheral>  (901) 
nan

>  <Num_H_Atoms_ProtBoundConf>  (901) 
nan

>  <Num_Resolved_Atoms>  (901) 
nan

>  <Num_Not_Resolved_Atoms>  (901) 
nan

$$$$
CHEMBL3668562
     RDKit          3D

  0  0  0  0  0  0  0  0  0  0999 V3000
M  V30 BEGIN CTAB
M  V30 COUNTS 63 67 0 0 0
M  V30 BEGIN ATOM
M  V30 1 C 1.930200 4.050494 5.346048 0
M  V30 2 O 2.151604 3.581561 4.058865 0
M  V30 3 C 3.089431 2.611259 3.734187 0
M  V30 4 C 3.935694 1.967217 4.610850 0
M  V30 5 C 4.838095 1.012237 4.191755 0
M  V30 6 C 4.900797 0.686391 2.853037 0
M  V30 7 F 5.771030 -0.247605 2.382872 0
M  V30 8 C 4.045688 1.335774 1.961305 0
M  V30 9 C 3.123228 2.307962 2.368697 0
M  V30 10 C 2.329309 2.867793 1.318130 0
M  V30 11 C 2.796179 3.989420 0.659877 0
M  V30 12 F 3.980740 4.567966 0.984516 0
M  V30 13 C 2.095587 4.593446 -0.363872 0
M  V30 14 N 0.916241 4.065286 -0.728569 0
M  V30 15 C 0.379184 2.975905 -0.148100 0
M  V30 16 N -0.747055 2.242646 -0.295104 0
M  V30 17 C -0.771123 1.215614 0.591215 0
M  V30 18 C -1.876171 0.242470 0.668345 0
M  V30 19 C -2.881358 0.395633 -0.176900 0
M  V30 20 C -4.018993 -0.580899 -0.120500 0
M  V30 21 N -3.597733 -1.825014 0.491735 0
M  V30 22 C -2.665983 -2.552735 -0.346419 0
M  V30 23 C -3.294760 -3.070399 -1.585825 0
M  V30 24 O -4.405971 -3.088813 -2.174518 0
M  V30 25 N -2.301356 -3.771959 -2.343167 0
M  V30 26 C -2.694739 -4.374372 -3.628195 0
M  V30 27 C -2.377766 -5.819356 -3.723924 0
M  V30 28 C -1.570768 -6.410585 -2.620813 0
M  V30 29 O -0.774888 -7.469410 -3.114805 0
M  V30 30 C -0.767599 -5.489197 -1.790435 0
M  V30 31 C -0.895677 -4.029290 -2.087680 0
M  V30 32 C -2.983482 -1.595202 1.787373 0
M  V30 33 C -1.719048 -0.806500 1.703930 0
M  V30 34 C 0.385554 1.311081 1.320421 0
M  V30 35 C 1.108609 2.398342 0.872678 0
M  V30 36 H 1.242104 4.920928 5.265110 0
M  V30 37 H 2.852755 4.474784 5.822829 0
M  V30 38 H 1.442016 3.347331 6.029124 0
M  V30 39 H 3.808269 2.289896 5.619684 0
M  V30 40 H 5.474260 0.541174 4.912969 0
M  V30 41 H 4.139608 1.035529 0.904865 0
M  V30 42 H 2.429010 5.472410 -0.901959 0
M  V30 43 H -1.417952 2.547070 -1.033774 0
M  V30 44 H -2.926272 1.188974 -0.907885 0
M  V30 45 H -4.796184 -0.132468 0.531627 0
M  V30 46 H -4.417458 -0.710482 -1.124167 0
M  V30 47 H -2.291069 -3.408499 0.273875 0
M  V30 48 H -1.814258 -1.897087 -0.548904 0
M  V30 49 H -2.108301 -3.806069 -4.379165 0
M  V30 50 H -3.778152 -4.199023 -3.812889 0
M  V30 51 H -1.807856 -6.001957 -4.662712 0
M  V30 52 H -3.334326 -6.400769 -3.884647 0
M  V30 53 H -2.313472 -6.924362 -1.944867 0
M  V30 54 H 0.199741 -7.235076 -3.035783 0
M  V30 55 H 0.320730 -5.734214 -1.942874 0
M  V30 56 H -0.938014 -5.646490 -0.700468 0
M  V30 57 H -0.246922 -3.710450 -2.938445 0
M  V30 58 H -0.520291 -3.480431 -1.200889 0
M  V30 59 H -3.732830 -1.026298 2.395171 0
M  V30 60 H -2.828188 -2.539177 2.331154 0
M  V30 61 H -1.501942 -0.305632 2.669646 0
M  V30 62 H -0.882364 -1.503728 1.510053 0
M  V30 63 H 0.659193 0.624387 2.116602 0
M  V30 END ATOM
M  V30 BEGIN BOND
M  V30 1 1 1 2
M  V30 2 1 2 3
M  V30 3 2 3 4
M  V30 4 1 4 5
M  V30 5 2 5 6
M  V30 6 1 6 7
M  V30 7 1 6 8
M  V30 8 2 8 9
M  V30 9 1 9 10
M  V30 10 2 10 11
M  V30 11 1 11 12
M  V30 12 1 11 13
M  V30 13 2 13 14
M  V30 14 1 14 15
M  V30 15 1 15 16
M  V30 16 1 16 17
M  V30 17 1 17 18
M  V30 18 2 18 19
M  V30 19 1 19 20
M  V30 20 1 20 21
M  V30 21 1 21 22
M  V30 22 1 22 23
M  V30 23 2 23 24
M  V30 24 1 23 25
M  V30 25 1 25 26
M  V30 26 1 26 27
M  V30 27 1 27 28
M  V30 28 1 28 29
M  V30 29 1 28 30
M  V30 30 1 30 31
M  V30 31 1 21 32
M  V30 32 1 32 33
M  V30 33 2 17 34
M  V30 34 1 34 35
M  V30 35 1 9 3
M  V30 36 1 35 10
M  V30 37 2 35 15
M  V30 38 1 33 18
M  V30 39 1 31 25
M  V30 40 1 1 36
M  V30 41 1 1 37
M  V30 42 1 1 38
M  V30 43 1 4 39
M  V30 44 1 5 40
M  V30 45 1 8 41
M  V30 46 1 13 42
M  V30 47 1 16 43
M  V30 48 1 19 44
M  V30 49 1 20 45
M  V30 50 1 20 46
M  V30 51 1 22 47
M  V30 52 1 22 48
M  V30 53 1 26 49
M  V30 54 1 26 50
M  V30 55 1 27 51
M  V30 56 1 27 52
M  V30 57 1 28 53
M  V30 58 1 29 54
M  V30 59 1 30 55
M  V30 60 1 30 56
M  V30 61 1 31 57
M  V30 62 1 31 58
M  V30 63 1 32 59
M  V30 64 1 32 60
M  V30 65 1 33 61
M  V30 66 1 33 62
M  V30 67 1 34 63
M  V30 END BOND
M  V30 END CTAB
M  END
>  <Dataset>  (902) 
ChEMBL_Kinases

>  <Ligand_Instance>  (902) 
nan

>  <PDB_ID>  (902) 
nan

>  <Standardized_SMILES>  (902) 
COc1ccc(F)cc1-c1c(F)cnc2[nH]c(C3=CCN(CC(=O)N4CCC(O)CC4)CC3)cc12

>  <Name>  (902) 
nan

>  <Pocket>  (902) 
nan

>  <ATP_Site>  (902) 
nan

>  <Peripheral>  (902) 
nan

>  <Num_H_Atoms_ProtBoundConf>  (902) 
nan

>  <Num_Resolved_Atoms>  (902) 
nan

>  <Num_Not_Resolved_Atoms>  (902) 
nan

$$$$
CHEMBL3668563
     RDKit          3D

  0  0  0  0  0  0  0  0  0  0999 V3000
M  V30 BEGIN CTAB
M  V30 COUNTS 64 68 0 0 0
M  V30 BEGIN ATOM
M  V30 1 C 3.680259 -1.105976 3.604587 0
M  V30 2 O 3.465311 0.052504 2.855270 0
M  V30 3 C 4.131848 0.237607 1.648911 0
M  V30 4 C 5.018912 -0.697895 1.147824 0
M  V30 5 C 5.642240 -0.454990 -0.045463 0
M  V30 6 C 5.396714 0.720863 -0.763518 0
M  V30 7 F 6.019445 0.970756 -1.962757 0
M  V30 8 C 4.496743 1.649285 -0.235775 0
M  V30 9 C 3.847969 1.429817 0.975069 0
M  V30 10 C 2.933527 2.409194 1.477641 0
M  V30 11 C 3.326007 3.461753 2.313313 0
M  V30 12 F 4.634716 3.573609 2.674400 0
M  V30 13 C 2.393890 4.391416 2.776705 0
M  V30 14 N 1.087485 4.329405 2.451787 0
M  V30 15 C 0.652530 3.333876 1.647677 0
M  V30 16 N -0.565524 3.025289 1.165700 0
M  V30 17 C -0.477231 1.916994 0.393440 0
M  V30 18 C -1.539765 1.217339 -0.333955 0
M  V30 19 C -1.286313 0.135463 -1.052520 0
M  V30 20 C -2.418184 -0.522290 -1.764795 0
M  V30 21 N -3.613437 -0.565215 -1.025536 0
M  V30 22 C -4.018831 -1.849868 -0.507531 0
M  V30 23 C -4.221765 -2.800223 -1.618612 0
M  V30 24 C -3.623918 -4.143821 -1.529532 0
M  V30 25 C -2.882232 -4.496068 -0.271149 0
M  V30 26 C -1.399377 -4.373165 -0.512288 0
M  V30 27 C -0.560888 -4.703710 0.664641 0
M  V30 28 O -0.694060 -5.079859 1.858197 0
M  V30 29 O 0.790698 -4.544142 0.331595 0
M  V30 30 C -3.289142 -3.684809 0.909520 0
M  V30 31 C -3.051052 -2.235494 0.553863 0
M  V30 32 C -3.915152 0.542791 -0.201599 0
M  V30 33 C -2.940703 1.683110 -0.300819 0
M  V30 34 C 0.845728 1.539242 0.407975 0
M  V30 35 C 1.576207 2.424946 1.197263 0
M  V30 36 H 3.318844 -1.979366 3.001859 0
M  V30 37 H 4.789541 -1.252475 3.700045 0
M  V30 38 H 3.214864 -1.067601 4.590420 0
M  V30 39 H 5.220760 -1.614859 1.691785 0
M  V30 40 H 6.352741 -1.137948 -0.508884 0
M  V30 41 H 4.283441 2.573519 -0.768525 0
M  V30 42 H 2.671228 5.214051 3.423580 0
M  V30 43 H -1.461786 3.512120 1.320720 0
M  V30 44 H -0.282375 -0.252574 -1.114830 0
M  V30 45 H -2.623680 0.065137 -2.706801 0
M  V30 46 H -2.095396 -1.511208 -2.101444 0
M  V30 47 H -4.993606 -1.627698 0.024012 0
M  V30 48 H -3.886845 -2.339895 -2.597408 0
M  V30 49 H -5.336004 -2.890109 -1.802405 0
M  V30 50 H -2.934526 -4.369367 -2.379415 0
M  V30 51 H -4.416646 -4.938048 -1.653521 0
M  V30 52 H -3.041167 -5.566826 0.017350 0
M  V30 53 H -1.176626 -3.390112 -0.926970 0
M  V30 54 H -1.100042 -5.110937 -1.314880 0
M  V30 55 H 1.547827 -4.710130 0.954495 0
M  V30 56 H -2.715442 -3.971352 1.787260 0
M  V30 57 H -4.359750 -3.819341 1.175993 0
M  V30 58 H -1.991240 -2.034590 0.341418 0
M  V30 59 H -3.307653 -1.668587 1.498342 0
M  V30 60 H -4.025212 0.218241 0.851527 0
M  V30 61 H -4.908989 0.941042 -0.520616 0
M  V30 62 H -3.112877 2.297783 -1.216752 0
M  V30 63 H -3.112794 2.379039 0.556889 0
M  V30 64 H 1.251220 0.678981 -0.119061 0
M  V30 END ATOM
M  V30 BEGIN BOND
M  V30 1 1 1 2
M  V30 2 1 2 3
M  V30 3 2 3 4
M  V30 4 1 4 5
M  V30 5 2 5 6
M  V30 6 1 6 7
M  V30 7 1 6 8
M  V30 8 2 8 9
M  V30 9 1 9 10
M  V30 10 2 10 11
M  V30 11 1 11 12
M  V30 12 1 11 13
M  V30 13 2 13 14
M  V30 14 1 14 15
M  V30 15 1 15 16
M  V30 16 1 16 17
M  V30 17 1 17 18
M  V30 18 2 18 19
M  V30 19 1 19 20
M  V30 20 1 20 21
M  V30 21 1 21 22
M  V30 22 1 22 23
M  V30 23 1 23 24
M  V30 24 1 24 25
M  V30 25 1 25 26
M  V30 26 1 26 27
M  V30 27 2 27 28
M  V30 28 1 27 29
M  V30 29 1 25 30
M  V30 30 1 30 31
M  V30 31 1 21 32
M  V30 32 1 32 33
M  V30 33 2 17 34
M  V30 34 1 34 35
M  V30 35 1 9 3
M  V30 36 1 35 10
M  V30 37 2 35 15
M  V30 38 1 33 18
M  V30 39 1 31 22
M  V30 40 1 1 36
M  V30 41 1 1 37
M  V30 42 1 1 38
M  V30 43 1 4 39
M  V30 44 1 5 40
M  V30 45 1 8 41
M  V30 46 1 13 42
M  V30 47 1 16 43
M  V30 48 1 19 44
M  V30 49 1 20 45
M  V30 50 1 20 46
M  V30 51 1 22 47
M  V30 52 1 23 48
M  V30 53 1 23 49
M  V30 54 1 24 50
M  V30 55 1 24 51
M  V30 56 1 25 52
M  V30 57 1 26 53
M  V30 58 1 26 54
M  V30 59 1 29 55
M  V30 60 1 30 56
M  V30 61 1 30 57
M  V30 62 1 31 58
M  V30 63 1 31 59
M  V30 64 1 32 60
M  V30 65 1 32 61
M  V30 66 1 33 62
M  V30 67 1 33 63
M  V30 68 1 34 64
M  V30 END BOND
M  V30 END CTAB
M  END
>  <Dataset>  (903) 
ChEMBL_Kinases

>  <Ligand_Instance>  (903) 
nan

>  <PDB_ID>  (903) 
nan

>  <Standardized_SMILES>  (903) 
COc1ccc(F)cc1-c1c(F)cnc2[nH]c(C3=CCN(C4CCC(CC(=O)O)CC4)CC3)cc12

>  <Name>  (903) 
nan

>  <Pocket>  (903) 
nan

>  <ATP_Site>  (903) 
nan

>  <Peripheral>  (903) 
nan

>  <Num_H_Atoms_ProtBoundConf>  (903) 
nan

>  <Num_Resolved_Atoms>  (903) 
nan

>  <Num_Not_Resolved_Atoms>  (903) 
nan

$$$$
CHEMBL3669121
     RDKit          3D

  0  0  0  0  0  0  0  0  0  0999 V3000
M  V30 BEGIN CTAB
M  V30 COUNTS 33 34 0 0 0
M  V30 BEGIN ATOM
M  V30 1 N 0.313588 -3.440090 4.900269 0
M  V30 2 C -0.641469 -4.446985 4.484448 0
M  V30 3 C -0.392771 -4.780887 3.024520 0
M  V30 4 N -0.546472 -3.608633 2.183108 0
M  V30 5 C 0.518087 -2.730313 1.868111 0
M  V30 6 O 1.704939 -2.859594 2.272116 0
M  V30 7 C 0.202319 -1.608977 1.020059 0
M  V30 8 C 0.963045 -0.769022 0.386554 0
M  V30 9 C 0.365686 0.293765 -0.417718 0
M  V30 10 C 1.130900 1.139724 -1.055925 0
M  V30 11 C 0.649129 2.235748 -1.885085 0
M  V30 12 C -0.684258 2.513349 -2.096396 0
M  V30 13 C -1.121417 3.543394 -2.875588 0
M  V30 14 C -0.233307 4.380909 -3.507772 0
M  V30 15 C 1.117497 4.136906 -3.321843 0
M  V30 16 C 1.513592 3.082758 -2.524465 0
M  V30 17 S -1.610387 -1.556573 0.975837 0
M  V30 18 C -1.814829 -3.245200 1.597830 0
M  V30 19 S -3.132939 -4.186006 1.529981 0
M  V30 20 H 0.490028 -3.507868 5.928651 0
M  V30 21 H 0.053585 -2.500476 4.576092 0
M  V30 22 H -0.479079 -5.332241 5.122331 0
M  V30 23 H -1.663211 -4.056080 4.633355 0
M  V30 24 H 0.610486 -5.231847 2.896097 0
M  V30 25 H -1.124836 -5.537997 2.713437 0
M  V30 26 H 2.036832 -0.860447 0.457441 0
M  V30 27 H -0.705643 0.388485 -0.490970 0
M  V30 28 H 2.198740 1.009865 -0.956172 0
M  V30 29 H -1.439965 1.897141 -1.631402 0
M  V30 30 H -2.179796 3.718565 -3.009218 0
M  V30 31 H -0.569007 5.198572 -4.126344 0
M  V30 32 H 1.829651 4.788147 -3.813390 0
M  V30 33 H 2.582263 2.949840 -2.422841 0
M  V30 END ATOM
M  V30 BEGIN BOND
M  V30 1 1 1 2
M  V30 2 1 2 3
M  V30 3 1 3 4
M  V30 4 1 4 5
M  V30 5 2 5 6
M  V30 6 1 5 7
M  V30 7 2 7 8
M  V30 8 1 8 9
M  V30 9 2 9 10
M  V30 10 1 10 11
M  V30 11 2 11 12
M  V30 12 1 12 13
M  V30 13 2 13 14
M  V30 14 1 14 15
M  V30 15 2 15 16
M  V30 16 1 7 17
M  V30 17 1 17 18
M  V30 18 2 18 19
M  V30 19 1 18 4
M  V30 20 1 16 11
M  V30 21 1 1 20
M  V30 22 1 1 21
M  V30 23 1 2 22
M  V30 24 1 2 23
M  V30 25 1 3 24
M  V30 26 1 3 25
M  V30 27 1 8 26
M  V30 28 1 9 27
M  V30 29 1 10 28
M  V30 30 1 12 29
M  V30 31 1 13 30
M  V30 32 1 14 31
M  V30 33 1 15 32
M  V30 34 1 16 33
M  V30 END BOND
M  V30 END CTAB
M  END
>  <Dataset>  (904) 
ChEMBL_Kinases

>  <Ligand_Instance>  (904) 
nan

>  <PDB_ID>  (904) 
nan

>  <Standardized_SMILES>  (904) 
NCCN1C(=O)/C(=C/C=C/c2ccccc2)SC1=S

>  <Name>  (904) 
nan

>  <Pocket>  (904) 
nan

>  <ATP_Site>  (904) 
nan

>  <Peripheral>  (904) 
nan

>  <Num_H_Atoms_ProtBoundConf>  (904) 
nan

>  <Num_Resolved_Atoms>  (904) 
nan

>  <Num_Not_Resolved_Atoms>  (904) 
nan

$$$$
CHEMBL3669123
     RDKit          3D

  0  0  0  0  0  0  0  0  0  0999 V3000
M  V30 BEGIN CTAB
M  V30 COUNTS 37 38 0 0 0
M  V30 BEGIN ATOM
M  V30 1 C -1.766714 -6.008175 1.424733 0
M  V30 2 O -0.666648 -5.330538 1.969135 0
M  V30 3 C -0.129954 -4.146175 1.518517 0
M  V30 4 C -0.667067 -3.487848 0.415652 0
M  V30 5 C -0.142173 -2.283744 -0.060937 0
M  V30 6 C 0.938277 -1.826639 0.658732 0
M  V30 7 C 1.521496 -0.537988 0.215519 0
M  V30 8 C 0.701143 0.459701 -0.087095 0
M  V30 9 S -1.113678 0.471909 -0.030488 0
M  V30 10 C -1.260496 1.703804 -1.353189 0
M  V30 11 S -2.478597 1.876472 -2.392132 0
M  V30 12 N -0.050706 2.457352 -1.236234 0
M  V30 13 C -0.014577 3.788422 -1.807836 0
M  V30 14 C -0.431390 4.859496 -0.855514 0
M  V30 15 N 0.434014 4.914188 0.308478 0
M  V30 16 C 1.020600 1.813189 -0.560112 0
M  V30 17 O 2.143796 2.358482 -0.383928 0
M  V30 18 C 1.516867 -2.422509 1.751181 0
M  V30 19 C 0.976097 -3.610326 2.197967 0
M  V30 20 O 1.425669 -4.342185 3.275704 0
M  V30 21 C 2.511092 -3.913072 4.037123 0
M  V30 22 H -2.355909 -6.479148 2.276826 0
M  V30 23 H -2.436810 -5.362621 0.822799 0
M  V30 24 H -1.443305 -6.887516 0.817262 0
M  V30 25 H -1.518181 -3.863776 -0.141413 0
M  V30 26 H -0.578742 -1.805907 -0.915994 0
M  V30 27 H 2.577608 -0.252249 0.079261 0
M  V30 28 H -0.634257 3.858900 -2.720632 0
M  V30 29 H 1.020578 4.053345 -2.119671 0
M  V30 30 H -0.268000 5.828987 -1.371235 0
M  V30 31 H -1.498927 4.872975 -0.584187 0
M  V30 32 H 1.391005 5.251964 0.067428 0
M  V30 33 H 0.005291 5.450910 1.091338 0
M  V30 34 H 2.361929 -1.981851 2.238458 0
M  V30 35 H 2.716301 -2.834164 4.001671 0
M  V30 36 H 3.464767 -4.418187 3.781790 0
M  V30 37 H 2.327245 -4.181902 5.113994 0
M  V30 END ATOM
M  V30 BEGIN BOND
M  V30 1 1 1 2
M  V30 2 1 2 3
M  V30 3 2 3 4
M  V30 4 1 4 5
M  V30 5 2 5 6
M  V30 6 1 6 7
M  V30 7 2 7 8
M  V30 8 1 8 9
M  V30 9 1 9 10
M  V30 10 2 10 11
M  V30 11 1 10 12
M  V30 12 1 12 13
M  V30 13 1 13 14
M  V30 14 1 14 15
M  V30 15 1 12 16
M  V30 16 2 16 17
M  V30 17 1 6 18
M  V30 18 2 18 19
M  V30 19 1 19 20
M  V30 20 1 20 21
M  V30 21 1 19 3
M  V30 22 1 16 8
M  V30 23 1 1 22
M  V30 24 1 1 23
M  V30 25 1 1 24
M  V30 26 1 4 25
M  V30 27 1 5 26
M  V30 28 1 7 27
M  V30 29 1 13 28
M  V30 30 1 13 29
M  V30 31 1 14 30
M  V30 32 1 14 31
M  V30 33 1 15 32
M  V30 34 1 15 33
M  V30 35 1 18 34
M  V30 36 1 21 35
M  V30 37 1 21 36
M  V30 38 1 21 37
M  V30 END BOND
M  V30 END CTAB
M  END
>  <Dataset>  (905) 
ChEMBL_Kinases

>  <Ligand_Instance>  (905) 
nan

>  <PDB_ID>  (905) 
nan

>  <Standardized_SMILES>  (905) 
COc1ccc(/C=C2\SC(=S)N(CCN)C2=O)cc1OC

>  <Name>  (905) 
nan

>  <Pocket>  (905) 
nan

>  <ATP_Site>  (905) 
nan

>  <Peripheral>  (905) 
nan

>  <Num_H_Atoms_ProtBoundConf>  (905) 
nan

>  <Num_Resolved_Atoms>  (905) 
nan

>  <Num_Not_Resolved_Atoms>  (905) 
nan

$$$$
CHEMBL3669124
     RDKit          3D

  0  0  0  0  0  0  0  0  0  0999 V3000
M  V30 BEGIN CTAB
M  V30 COUNTS 27 28 0 0 0
M  V30 BEGIN ATOM
M  V30 1 O -1.803817 -3.871698 1.806248 0
M  V30 2 S -1.061293 -4.366059 0.606707 0
M  V30 3 O -1.577828 -5.666773 0.126482 0
M  V30 4 C 0.690050 -4.394428 0.888325 0
M  V30 5 C 1.203632 -3.299854 0.329685 0
M  V30 6 C 0.309893 -2.389705 -0.334767 0
M  V30 7 O -0.071648 -1.268774 0.293784 0
M  V30 8 S 0.096846 0.191464 -0.398185 0
M  V30 9 O -1.238953 0.522352 -1.025387 0
M  V30 10 O 1.044940 0.215955 -1.588308 0
M  V30 11 C 0.421688 1.496559 0.719319 0
M  V30 12 C -0.621200 2.227396 1.299265 0
M  V30 13 C -0.354290 3.264278 2.187508 0
M  V30 14 C 0.965168 3.570888 2.496642 0
M  V30 15 C 2.001245 2.868698 1.940702 0
M  V30 16 C 1.707711 1.846228 1.063670 0
M  V30 17 C -0.990882 -3.130221 -0.679002 0
M  V30 18 H 1.218486 -5.160484 1.413698 0
M  V30 19 H 2.267897 -3.092202 0.370077 0
M  V30 20 H 0.722812 -2.105865 -1.332612 0
M  V30 21 H -1.627622 1.912691 0.994990 0
M  V30 22 H -1.265047 3.721181 2.540388 0
M  V30 23 H 1.039332 4.398369 3.200312 0
M  V30 24 H 3.007071 3.163559 2.228141 0
M  V30 25 H 2.556856 1.325356 0.654292 0
M  V30 26 H -1.860300 -2.473503 -0.675908 0
M  V30 27 H -0.935088 -3.649771 -1.647830 0
M  V30 END ATOM
M  V30 BEGIN BOND
M  V30 1 2 1 2
M  V30 2 2 2 3
M  V30 3 1 2 4
M  V30 4 2 4 5
M  V30 5 1 5 6
M  V30 6 1 6 7
M  V30 7 1 7 8
M  V30 8 2 8 9
M  V30 9 2 8 10
M  V30 10 1 8 11
M  V30 11 2 11 12
M  V30 12 1 12 13
M  V30 13 2 13 14
M  V30 14 1 14 15
M  V30 15 2 15 16
M  V30 16 1 6 17
M  V30 17 1 17 2
M  V30 18 1 16 11
M  V30 19 1 4 18
M  V30 20 1 5 19
M  V30 21 1 6 20
M  V30 22 1 12 21
M  V30 23 1 13 22
M  V30 24 1 14 23
M  V30 25 1 15 24
M  V30 26 1 16 25
M  V30 27 1 17 26
M  V30 28 1 17 27
M  V30 END BOND
M  V30 END CTAB
M  END
>  <Dataset>  (906) 
ChEMBL_Kinases

>  <Ligand_Instance>  (906) 
nan

>  <PDB_ID>  (906) 
nan

>  <Standardized_SMILES>  (906) 
O=S1(=O)C=CC(OS(=O)(=O)c2ccccc2)C1

>  <Name>  (906) 
nan

>  <Pocket>  (906) 
nan

>  <ATP_Site>  (906) 
nan

>  <Peripheral>  (906) 
nan

>  <Num_H_Atoms_ProtBoundConf>  (906) 
nan

>  <Num_Resolved_Atoms>  (906) 
nan

>  <Num_Not_Resolved_Atoms>  (906) 
nan

$$$$
CHEMBL3669126
     RDKit          3D

  0  0  0  0  0  0  0  0  0  0999 V3000
M  V30 BEGIN CTAB
M  V30 COUNTS 43 45 0 0 0
M  V30 BEGIN ATOM
M  V30 1 C 4.270792 -5.683536 3.914104 0
M  V30 2 C 5.240075 -5.647993 2.786120 0
M  V30 3 O 5.446389 -4.358765 2.248492 0
M  V30 4 C 4.468133 -3.591790 1.672450 0
M  V30 5 C 4.900884 -2.357543 1.208733 0
M  V30 6 C 4.037583 -1.464877 0.597130 0
M  V30 7 C 2.699476 -1.771361 0.422566 0
M  V30 8 C 1.696197 -0.919405 -0.204232 0
M  V30 9 C 1.534691 0.352509 -0.014880 0
M  V30 10 S 2.372199 1.597533 1.005594 0
M  V30 11 C 0.800654 2.438092 1.419460 0
M  V30 12 S 0.042569 3.205345 2.658321 0
M  V30 13 N 0.113775 2.295331 0.154787 0
M  V30 14 C -0.951344 3.158128 -0.408932 0
M  V30 15 C -2.306522 2.622726 0.026648 0
M  V30 16 N -3.414439 3.349412 -0.498457 0
M  V30 17 C -4.612310 2.660671 -0.182511 0
M  V30 18 N -5.445853 2.675444 -1.252094 0
M  V30 19 C -6.660915 2.105900 -1.274452 0
M  V30 20 Cl -7.743932 2.110630 -2.647371 0
M  V30 21 N -7.060854 1.488069 -0.158561 0
M  V30 22 C -6.292015 1.432175 0.940622 0
M  V30 23 Cl -6.696138 0.659550 2.460349 0
M  V30 24 N -5.071890 2.019159 0.921653 0
M  V30 25 C 0.495407 1.169698 -0.648659 0
M  V30 26 O 0.037658 0.833945 -1.797213 0
M  V30 27 C 2.289008 -2.995568 0.888495 0
M  V30 28 C 3.119976 -3.905393 1.501436 0
M  V30 29 H 4.848297 -6.013561 4.829971 0
M  V30 30 H 3.432607 -6.398703 3.741023 0
M  V30 31 H 3.836001 -4.681441 4.074744 0
M  V30 32 H 4.783828 -6.261891 1.949695 0
M  V30 33 H 6.217345 -6.129711 2.993397 0
M  V30 34 H 5.900922 -1.961424 1.258428 0
M  V30 35 H 4.334890 -0.483283 0.212139 0
M  V30 36 H 1.038776 -1.447995 -0.894233 0
M  V30 37 H -0.832850 4.201600 -0.070974 0
M  V30 38 H -0.942866 3.160950 -1.514762 0
M  V30 39 H -2.382722 2.614310 1.152254 0
M  V30 40 H -2.310168 1.555467 -0.270545 0
M  V30 41 H -3.385352 4.230963 -1.020602 0
M  V30 42 H 1.257953 -3.363719 0.816570 0
M  V30 43 H 2.869050 -4.879029 1.892088 0
M  V30 END ATOM
M  V30 BEGIN BOND
M  V30 1 1 1 2
M  V30 2 1 2 3
M  V30 3 1 3 4
M  V30 4 2 4 5
M  V30 5 1 5 6
M  V30 6 2 6 7
M  V30 7 1 7 8
M  V30 8 2 8 9
M  V30 9 1 9 10
M  V30 10 1 10 11
M  V30 11 2 11 12
M  V30 12 1 11 13
M  V30 13 1 13 14
M  V30 14 1 14 15
M  V30 15 1 15 16
M  V30 16 1 16 17
M  V30 17 2 17 18
M  V30 18 1 18 19
M  V30 19 1 19 20
M  V30 20 2 19 21
M  V30 21 1 21 22
M  V30 22 1 22 23
M  V30 23 2 22 24
M  V30 24 1 13 25
M  V30 25 2 25 26
M  V30 26 1 7 27
M  V30 27 2 27 28
M  V30 28 1 28 4
M  V30 29 1 25 9
M  V30 30 1 24 17
M  V30 31 1 1 29
M  V30 32 1 1 30
M  V30 33 1 1 31
M  V30 34 1 2 32
M  V30 35 1 2 33
M  V30 36 1 5 34
M  V30 37 1 6 35
M  V30 38 1 8 36
M  V30 39 1 14 37
M  V30 40 1 14 38
M  V30 41 1 15 39
M  V30 42 1 15 40
M  V30 43 1 16 41
M  V30 44 1 27 42
M  V30 45 1 28 43
M  V30 END BOND
M  V30 END CTAB
M  END
>  <Dataset>  (907) 
ChEMBL_Kinases

>  <Ligand_Instance>  (907) 
nan

>  <PDB_ID>  (907) 
nan

>  <Standardized_SMILES>  (907) 
CCOc1ccc(/C=C2\SC(=S)N(CCNc3nc(Cl)nc(Cl)n3)C2=O)cc1

>  <Name>  (907) 
nan

>  <Pocket>  (907) 
nan

>  <ATP_Site>  (907) 
nan

>  <Peripheral>  (907) 
nan

>  <Num_H_Atoms_ProtBoundConf>  (907) 
nan

>  <Num_Resolved_Atoms>  (907) 
nan

>  <Num_Not_Resolved_Atoms>  (907) 
nan

$$$$
CHEMBL3669587
     RDKit          3D

  0  0  0  0  0  0  0  0  0  0999 V3000
M  V30 BEGIN CTAB
M  V30 COUNTS 55 59 0 0 0
M  V30 BEGIN ATOM
M  V30 1 C 2.399900 0.034626 3.897671 0
M  V30 2 O 3.751572 -0.365720 3.870912 0
M  V30 3 C 4.538683 -0.313456 2.739947 0
M  V30 4 N 5.800807 -0.726561 2.871682 0
M  V30 5 C 6.619696 -0.706468 1.829762 0
M  V30 6 Cl 8.299854 -1.226855 1.882840 0
M  V30 7 N 6.161828 -0.268892 0.656555 0
M  V30 8 C 4.912068 0.163067 0.436779 0
M  V30 9 N 4.473627 0.631750 -0.828241 0
M  V30 10 C 3.202867 1.060830 -1.275366 0
M  V30 11 N 3.038650 1.515333 -2.556646 0
M  V30 12 N 1.785495 1.838753 -2.707950 0
M  V30 13 C 1.085570 1.625627 -1.587718 0
M  V30 14 C 1.963475 1.129190 -0.658230 0
M  V30 15 C 1.222586 0.878272 0.576691 0
M  V30 16 N -0.182147 0.803181 0.133743 0
M  V30 17 C -1.100912 -0.072012 0.789207 0
M  V30 18 O -0.416073 -0.640790 1.697076 0
M  V30 19 N -2.454440 -0.274486 0.511133 0
M  V30 20 C -3.251751 -1.186934 1.251549 0
M  V30 21 C -4.699312 -1.150687 1.360331 0
M  V30 22 C -4.159158 -2.037559 0.331541 0
M  V30 23 C -3.934869 -3.478994 0.491979 0
M  V30 24 C -3.718920 -4.015939 1.735788 0
M  V30 25 C -3.500204 -5.364033 1.966356 0
M  V30 26 C -3.497794 -6.226190 0.883595 0
M  V30 27 C -3.712176 -5.715777 -0.379413 0
M  V30 28 C -3.928930 -4.357102 -0.578750 0
M  V30 29 C -0.278431 1.720565 -0.955324 0
M  V30 30 C -1.288700 1.390454 -2.002216 0
M  V30 31 C -0.454054 3.154018 -0.518011 0
M  V30 32 N 4.171743 0.104670 1.536260 0
M  V30 33 H 2.270225 1.000591 3.327824 0
M  V30 34 H 1.785400 -0.740639 3.400404 0
M  V30 35 H 2.033424 0.197205 4.935064 0
M  V30 36 H 5.274782 0.643454 -1.523789 0
M  V30 37 H 3.711618 1.630856 -3.362483 0
M  V30 38 H 1.240263 1.714745 1.291702 0
M  V30 39 H 1.504307 -0.067054 1.084494 0
M  V30 40 H -2.845470 0.286884 -0.275095 0
M  V30 41 H -2.704591 -1.706454 2.059131 0
M  V30 42 H -5.291526 -0.258630 1.030289 0
M  V30 43 H -5.176734 -1.579143 2.286503 0
M  V30 44 H -4.297823 -1.726017 -0.711610 0
M  V30 45 H -3.708542 -3.407864 2.606993 0
M  V30 46 H -3.326615 -5.844017 2.902725 0
M  V30 47 H -3.348782 -7.287506 0.857116 0
M  V30 48 H -3.731880 -6.300188 -1.303486 0
M  V30 49 H -4.100491 -3.921497 -1.556977 0
M  V30 50 H -1.409737 0.308729 -2.188474 0
M  V30 51 H -2.253160 1.941815 -1.897491 0
M  V30 52 H -0.871137 1.787673 -2.975445 0
M  V30 53 H -1.305260 3.150210 0.199385 0
M  V30 54 H -0.801800 3.715521 -1.407077 0
M  V30 55 H 0.448060 3.598511 -0.075984 0
M  V30 END ATOM
M  V30 BEGIN BOND
M  V30 1 1 1 2
M  V30 2 1 2 3
M  V30 3 2 3 4
M  V30 4 1 4 5
M  V30 5 1 5 6
M  V30 6 2 5 7
M  V30 7 1 7 8
M  V30 8 1 8 9
M  V30 9 1 9 10
M  V30 10 1 10 11
M  V30 11 1 11 12
M  V30 12 2 12 13
M  V30 13 1 13 14
M  V30 14 1 14 15
M  V30 15 1 15 16
M  V30 16 1 16 17
M  V30 17 2 17 18
M  V30 18 1 17 19
M  V30 19 1 19 20
M  V30 20 1 20 21
M  V30 21 1 21 22
M  V30 22 1 22 23
M  V30 23 2 23 24
M  V30 24 1 24 25
M  V30 25 2 25 26
M  V30 26 1 26 27
M  V30 27 2 27 28
M  V30 28 1 16 29
M  V30 29 1 29 30
M  V30 30 1 29 31
M  V30 31 2 8 32
M  V30 32 1 32 3
M  V30 33 2 14 10
M  V30 34 1 22 20
M  V30 35 1 28 23
M  V30 36 1 29 13
M  V30 37 1 1 33
M  V30 38 1 1 34
M  V30 39 1 1 35
M  V30 40 1 9 36
M  V30 41 1 11 37
M  V30 42 1 15 38
M  V30 43 1 15 39
M  V30 44 1 19 40
M  V30 45 1 20 41
M  V30 46 1 21 42
M  V30 47 1 21 43
M  V30 48 1 22 44
M  V30 49 1 24 45
M  V30 50 1 25 46
M  V30 51 1 26 47
M  V30 52 1 27 48
M  V30 53 1 28 49
M  V30 54 1 30 50
M  V30 55 1 30 51
M  V30 56 1 30 52
M  V30 57 1 31 53
M  V30 58 1 31 54
M  V30 59 1 31 55
M  V30 END BOND
M  V30 END CTAB
M  END
>  <Dataset>  (908) 
ChEMBL_Kinases

>  <Ligand_Instance>  (908) 
nan

>  <PDB_ID>  (908) 
nan

>  <Standardized_SMILES>  (908) 
COc1nc(Cl)nc(Nc2[nH]nc3c2CN(C(=O)NC2CC2c2ccccc2)C3(C)C)n1

>  <Name>  (908) 
nan

>  <Pocket>  (908) 
nan

>  <ATP_Site>  (908) 
nan

>  <Peripheral>  (908) 
nan

>  <Num_H_Atoms_ProtBoundConf>  (908) 
nan

>  <Num_Resolved_Atoms>  (908) 
nan

>  <Num_Not_Resolved_Atoms>  (908) 
nan

$$$$
CHEMBL3669579
     RDKit          3D

  0  0  0  0  0  0  0  0  0  0999 V3000
M  V30 BEGIN CTAB
M  V30 COUNTS 55 60 0 0 0
M  V30 BEGIN ATOM
M  V30 1 C 1.769027 -2.974241 3.328956 0
M  V30 2 C 1.066581 -1.695775 2.946317 0
M  V30 3 C 0.602025 -0.959999 4.162847 0
M  V30 4 C 1.973151 -0.778107 2.181044 0
M  V30 5 N 3.244136 -0.383073 1.980425 0
M  V30 6 N 3.273096 0.565111 1.056976 0
M  V30 7 C 2.015202 0.803832 0.639454 0
M  V30 8 N 1.537508 1.724776 -0.331496 0
M  V30 9 C 1.119208 3.068226 -0.182843 0
M  V30 10 N 0.676470 3.866342 -1.183922 0
M  V30 11 C 0.332275 5.110525 -0.804264 0
M  V30 12 Cl -0.243690 6.140682 -2.121617 0
M  V30 13 N 0.396509 5.581096 0.429533 0
M  V30 14 C 0.826548 4.840386 1.465971 0
M  V30 15 C 0.906608 5.286536 2.743142 0
M  V30 16 C 1.395799 4.319079 3.690282 0
M  V30 17 S 1.712845 2.785340 2.620888 0
M  V30 18 C 1.188253 3.549720 1.098226 0
M  V30 19 C 1.149435 -0.039187 1.337633 0
M  V30 20 C -0.257930 -0.511910 1.594309 0
M  V30 21 N 0.020168 -1.889940 1.963971 0
M  V30 22 C -0.540155 -3.146614 1.525490 0
M  V30 23 O -0.066167 -4.205439 2.057595 0
M  V30 24 N -1.575776 -3.179771 0.541152 0
M  V30 25 C -2.081037 -4.449644 0.156155 0
M  V30 26 C -3.374413 -4.759796 -0.417221 0
M  V30 27 C -2.247413 -4.757644 -1.368947 0
M  V30 28 C -2.035742 -3.650102 -2.317206 0
M  V30 29 C -2.687848 -2.436272 -2.302067 0
M  V30 30 C -2.460316 -1.420082 -3.197872 0
M  V30 31 C -1.524158 -1.593544 -4.190678 0
M  V30 32 C -0.836469 -2.785917 -4.261420 0
M  V30 33 C -1.096618 -3.776620 -3.342809 0
M  V30 34 H 2.633790 -2.686599 3.954890 0
M  V30 35 H 1.073588 -3.520654 3.983656 0
M  V30 36 H 2.140093 -3.524954 2.466147 0
M  V30 37 H -0.499762 -0.951691 4.274660 0
M  V30 38 H 1.001731 -1.364254 5.105760 0
M  V30 39 H 0.905662 0.118708 4.143411 0
M  V30 40 H 4.100144 1.083900 0.670381 0
M  V30 41 H 1.478289 1.376698 -1.311662 0
M  V30 42 H 0.657891 6.252523 3.141744 0
M  V30 43 H 1.521016 4.543281 4.808639 0
M  V30 44 H -0.730419 0.053863 2.422627 0
M  V30 45 H -0.871903 -0.399975 0.701313 0
M  V30 46 H -1.850214 -2.232369 0.208350 0
M  V30 47 H -1.588772 -5.315200 0.697774 0
M  V30 48 H -3.864763 -5.736334 -0.181137 0
M  V30 49 H -4.157325 -4.009230 -0.653055 0
M  V30 50 H -1.820912 -5.730291 -1.693722 0
M  V30 51 H -3.422594 -2.263186 -1.557318 0
M  V30 52 H -2.976940 -0.485591 -3.168695 0
M  V30 53 H -1.341421 -0.796426 -4.898380 0
M  V30 54 H -0.105510 -2.898986 -5.050657 0
M  V30 55 H -0.513697 -4.702143 -3.455482 0
M  V30 END ATOM
M  V30 BEGIN BOND
M  V30 1 1 1 2
M  V30 2 1 2 3
M  V30 3 1 2 4
M  V30 4 2 4 5
M  V30 5 1 5 6
M  V30 6 1 6 7
M  V30 7 1 7 8
M  V30 8 1 8 9
M  V30 9 2 9 10
M  V30 10 1 10 11
M  V30 11 1 11 12
M  V30 12 2 11 13
M  V30 13 1 13 14
M  V30 14 1 14 15
M  V30 15 2 15 16
M  V30 16 1 16 17
M  V30 17 1 17 18
M  V30 18 2 7 19
M  V30 19 1 19 20
M  V30 20 1 20 21
M  V30 21 1 21 22
M  V30 22 2 22 23
M  V30 23 1 22 24
M  V30 24 1 24 25
M  V30 25 1 25 26
M  V30 26 1 26 27
M  V30 27 1 27 28
M  V30 28 2 28 29
M  V30 29 1 29 30
M  V30 30 2 30 31
M  V30 31 1 31 32
M  V30 32 2 32 33
M  V30 33 1 21 2
M  V30 34 1 27 25
M  V30 35 1 33 28
M  V30 36 1 19 4
M  V30 37 1 18 9
M  V30 38 2 18 14
M  V30 39 1 1 34
M  V30 40 1 1 35
M  V30 41 1 1 36
M  V30 42 1 3 37
M  V30 43 1 3 38
M  V30 44 1 3 39
M  V30 45 1 6 40
M  V30 46 1 8 41
M  V30 47 1 15 42
M  V30 48 1 16 43
M  V30 49 1 20 44
M  V30 50 1 20 45
M  V30 51 1 24 46
M  V30 52 1 25 47
M  V30 53 1 26 48
M  V30 54 1 26 49
M  V30 55 1 27 50
M  V30 56 1 29 51
M  V30 57 1 30 52
M  V30 58 1 31 53
M  V30 59 1 32 54
M  V30 60 1 33 55
M  V30 END BOND
M  V30 END CTAB
M  END
>  <Dataset>  (909) 
ChEMBL_Kinases

>  <Ligand_Instance>  (909) 
nan

>  <PDB_ID>  (909) 
nan

>  <Standardized_SMILES>  (909) 
CC1(C)c2n[nH]c(Nc3nc(Cl)nc4ccsc34)c2CN1C(=O)NC1CC1c1ccccc1

>  <Name>  (909) 
nan

>  <Pocket>  (909) 
nan

>  <ATP_Site>  (909) 
nan

>  <Peripheral>  (909) 
nan

>  <Num_H_Atoms_ProtBoundConf>  (909) 
nan

>  <Num_Resolved_Atoms>  (909) 
nan

>  <Num_Not_Resolved_Atoms>  (909) 
nan

$$$$
CHEMBL3669580
     RDKit          3D

  0  0  0  0  0  0  0  0  0  0999 V3000
M  V30 BEGIN CTAB
M  V30 COUNTS 66 71 0 0 0
M  V30 BEGIN ATOM
M  V30 1 C 1.033593 2.739471 3.831731 0
M  V30 2 N 0.441488 1.957686 2.778516 0
M  V30 3 C 1.057468 0.690244 2.689357 0
M  V30 4 C 0.655533 -0.102877 1.469539 0
M  V30 5 N 0.641175 0.710045 0.269614 0
M  V30 6 C 0.160155 -0.062162 -0.794901 0
M  V30 7 O 0.158518 0.773437 -1.733624 0
M  V30 8 N -0.243096 -1.393510 -0.917020 0
M  V30 9 C -0.398635 -2.695600 -0.246392 0
M  V30 10 C -1.854034 -2.931546 -0.401861 0
M  V30 11 C -2.123969 -2.405747 -1.643586 0
M  V30 12 N -3.461146 -2.596593 -1.833186 0
M  V30 13 N -3.956576 -3.200283 -0.766995 0
M  V30 14 C -3.014070 -3.437638 0.159986 0
M  V30 15 N -3.116412 -4.071170 1.441520 0
M  V30 16 C -3.062837 -5.459419 1.723939 0
M  V30 17 N -4.186250 -6.200453 1.760558 0
M  V30 18 C -4.038985 -7.495129 2.031069 0
M  V30 19 Cl -5.527971 -8.435043 2.073013 0
M  V30 20 N -2.876272 -8.108278 2.266423 0
M  V30 21 C -1.721761 -7.411453 2.241202 0
M  V30 22 C -0.499265 -7.960664 2.469710 0
M  V30 23 C 0.636663 -7.091371 2.408843 0
M  V30 24 S -0.170772 -5.418453 1.998811 0
M  V30 25 C -1.813905 -6.034112 1.959908 0
M  V30 26 C -0.802594 -1.886089 -2.161834 0
M  V30 27 C -0.054268 -3.031172 -2.764493 0
M  V30 28 C -1.035147 -0.825049 -3.201253 0
M  V30 29 C 1.123195 2.042572 0.516514 0 CFG=1
M  V30 30 C 1.319152 2.899803 -0.686689 0
M  V30 31 C 1.832717 4.269739 -0.395099 0
M  V30 32 C 1.063282 5.389898 -0.144828 0
M  V30 33 C 1.707605 6.575738 0.104706 0
M  V30 34 C 3.080351 6.725004 0.123538 0
M  V30 35 C 3.851382 5.593192 -0.129103 0
M  V30 36 C 3.203595 4.405985 -0.379607 0
M  V30 37 C 0.213382 2.638903 1.551891 0
M  V30 38 H 0.463328 3.669983 4.040269 0
M  V30 39 H 1.089578 2.158868 4.790533 0
M  V30 40 H 2.059877 3.042863 3.562902 0
M  V30 41 H 2.155513 0.814584 2.669862 0
M  V30 42 H 0.827746 0.140267 3.635131 0
M  V30 43 H -0.331692 -0.566714 1.663576 0
M  V30 44 H 1.384539 -0.910758 1.320943 0
M  V30 45 H 0.139249 -3.503689 -0.788362 0
M  V30 46 H -0.064475 -2.707709 0.781741 0
M  V30 47 H -4.948928 -3.507071 -0.554425 0
M  V30 48 H -3.248303 -3.623838 2.393444 0
M  V30 49 H -0.230262 -8.975488 2.696610 0
M  V30 50 H 1.648361 -7.227165 2.534533 0
M  V30 51 H -0.531712 -4.030303 -2.608117 0
M  V30 52 H 1.039912 -3.034306 -2.534285 0
M  V30 53 H -0.081969 -2.905351 -3.890449 0
M  V30 54 H -0.140391 -0.453661 -3.686167 0
M  V30 55 H -1.726020 -0.077290 -2.778075 0
M  V30 56 H -1.635919 -1.308197 -4.031681 0
M  V30 57 H 2.136178 1.962032 1.013923 0
M  V30 58 H 0.317356 2.976907 -1.205439 0
M  V30 59 H 2.002488 2.446878 -1.420820 0
M  V30 60 H -0.008317 5.244325 -0.164476 0
M  V30 61 H 1.065418 7.443748 0.300816 0
M  V30 62 H 3.542096 7.676818 0.324885 0
M  V30 63 H 4.934735 5.667805 -0.123591 0
M  V30 64 H 3.880414 3.559425 -0.571830 0
M  V30 65 H 0.408934 3.714324 1.732669 0
M  V30 66 H -0.812239 2.580508 1.143197 0
M  V30 END ATOM
M  V30 BEGIN BOND
M  V30 1 1 1 2
M  V30 2 1 2 3
M  V30 3 1 3 4
M  V30 4 1 4 5
M  V30 5 1 5 6
M  V30 6 2 6 7
M  V30 7 1 6 8
M  V30 8 1 8 9
M  V30 9 1 9 10
M  V30 10 1 10 11
M  V30 11 2 11 12
M  V30 12 1 12 13
M  V30 13 1 13 14
M  V30 14 1 14 15
M  V30 15 1 15 16
M  V30 16 2 16 17
M  V30 17 1 17 18
M  V30 18 1 18 19
M  V30 19 2 18 20
M  V30 20 1 20 21
M  V30 21 1 21 22
M  V30 22 2 22 23
M  V30 23 1 23 24
M  V30 24 1 24 25
M  V30 25 1 11 26
M  V30 26 1 26 27
M  V30 27 1 26 28
M  V30 28 1 5 29
M  V30 29 1 29 30
M  V30 30 1 30 31
M  V30 31 2 31 32
M  V30 32 1 32 33
M  V30 33 2 33 34
M  V30 34 1 34 35
M  V30 35 2 35 36
M  V30 36 1 29 37
M  V30 37 1 37 2
M  V30 38 1 26 8
M  V30 39 1 36 31
M  V30 40 2 14 10
M  V30 41 1 25 16
M  V30 42 2 25 21
M  V30 43 1 1 38
M  V30 44 1 1 39
M  V30 45 1 1 40
M  V30 46 1 3 41
M  V30 47 1 3 42
M  V30 48 1 4 43
M  V30 49 1 4 44
M  V30 50 1 9 45
M  V30 51 1 9 46
M  V30 52 1 13 47
M  V30 53 1 15 48
M  V30 54 1 22 49
M  V30 55 1 23 50
M  V30 56 1 27 51
M  V30 57 1 27 52
M  V30 58 1 27 53
M  V30 59 1 28 54
M  V30 60 1 28 55
M  V30 61 1 28 56
M  V30 62 1 29 57 CFG=1
M  V30 63 1 30 58
M  V30 64 1 30 59
M  V30 65 1 32 60
M  V30 66 1 33 61
M  V30 67 1 34 62
M  V30 68 1 35 63
M  V30 69 1 36 64
M  V30 70 1 37 65
M  V30 71 1 37 66
M  V30 END BOND
M  V30 END CTAB
M  END
>  <Dataset>  (910) 
ChEMBL_Kinases

>  <Ligand_Instance>  (910) 
nan

>  <PDB_ID>  (910) 
nan

>  <Standardized_SMILES>  (910) 
CN1CCN(C(=O)N2Cc3c(n[nH]c3Nc3nc(Cl)nc4ccsc34)C2(C)C)[C@@H](Cc2ccccc2)C1

>  <Name>  (910) 
nan

>  <Pocket>  (910) 
nan

>  <ATP_Site>  (910) 
nan

>  <Peripheral>  (910) 
nan

>  <Num_H_Atoms_ProtBoundConf>  (910) 
nan

>  <Num_Resolved_Atoms>  (910) 
nan

>  <Num_Not_Resolved_Atoms>  (910) 
nan

$$$$
CHEMBL3669581
     RDKit          3D

  0  0  0  0  0  0  0  0  0  0999 V3000
M  V30 BEGIN CTAB
M  V30 COUNTS 52 56 0 0 0
M  V30 BEGIN ATOM
M  V30 1 C -0.374195 -1.470991 3.351719 0
M  V30 2 C 0.605725 -1.233290 2.237805 0
M  V30 3 C 1.310158 -2.487809 1.790853 0
M  V30 4 C 1.661682 -0.267448 2.689475 0
M  V30 5 N 2.554865 0.054875 3.629363 0
M  V30 6 N 3.234169 1.136400 3.354440 0
M  V30 7 C 2.819284 1.614939 2.177696 0
M  V30 8 N 3.183313 2.721635 1.394181 0
M  V30 9 C 2.747952 3.983032 0.970291 0
M  V30 10 C 2.076966 3.791296 -0.244702 0
M  V30 11 C 1.506793 4.825763 -0.967784 0
M  V30 12 Cl 0.654887 4.737083 -2.475903 0
M  V30 13 N 1.608294 6.092794 -0.465745 0
M  V30 14 C 2.264590 6.265153 0.719187 0
M  V30 15 Cl 2.435337 7.849493 1.414234 0
M  V30 16 N 2.804780 5.248832 1.395072 0
M  V30 17 C 1.819509 0.729967 1.749062 0
M  V30 18 C 0.848403 0.528749 0.621389 0
M  V30 19 N -0.005571 -0.530784 1.107433 0
M  V30 20 C -1.252923 -0.676241 0.429409 0
M  V30 21 O -1.467977 0.191212 -0.467674 0
M  V30 22 N -2.208046 -1.702755 0.708030 0
M  V30 23 C -3.453970 -1.758550 -0.029992 0
M  V30 24 C -4.411563 -2.846756 0.445007 0
M  V30 25 C -3.745515 -3.075418 -0.823207 0 CFG=2
M  V30 26 C -2.528748 -3.844661 -1.053695 0
M  V30 27 C -1.853134 -4.572094 -0.114989 0
M  V30 28 C -0.688551 -5.265121 -0.401094 0
M  V30 29 C -0.163319 -5.237379 -1.687141 0
M  V30 30 C -0.813438 -4.509025 -2.687135 0
M  V30 31 C -1.949653 -3.856912 -2.325505 0
M  V30 32 H 0.104461 -1.187956 4.321857 0
M  V30 33 H -1.295759 -0.871474 3.255192 0
M  V30 34 H -0.611333 -2.567312 3.436398 0
M  V30 35 H 2.057653 -2.750586 2.547072 0
M  V30 36 H 1.756142 -2.255296 0.800016 0
M  V30 37 H 0.620202 -3.343580 1.672551 0
M  V30 38 H 3.992437 1.606327 3.919197 0
M  V30 39 H 4.128518 2.513122 0.985582 0
M  V30 40 H 1.889506 2.875948 -0.809009 0
M  V30 41 H 1.408249 0.258958 -0.290556 0
M  V30 42 H 0.299744 1.482096 0.420510 0
M  V30 43 H -1.905956 -2.351430 1.459057 0
M  V30 44 H -3.793243 -0.881857 -0.580040 0
M  V30 45 H -4.145070 -3.411371 1.362191 0
M  V30 46 H -5.495583 -2.597293 0.425809 0
M  V30 47 H -4.328178 -2.900249 -1.775836 0
M  V30 48 H -2.233597 -4.622456 0.894068 0
M  V30 49 H -0.135657 -5.850228 0.342382 0
M  V30 50 H 0.748648 -5.749379 -2.013489 0
M  V30 51 H -0.454450 -4.443460 -3.721874 0
M  V30 52 H -2.462499 -3.285054 -3.107470 0
M  V30 END ATOM
M  V30 BEGIN BOND
M  V30 1 1 1 2
M  V30 2 1 2 3
M  V30 3 1 2 4
M  V30 4 2 4 5
M  V30 5 1 5 6
M  V30 6 1 6 7
M  V30 7 1 7 8
M  V30 8 1 8 9
M  V30 9 2 9 10
M  V30 10 1 10 11
M  V30 11 1 11 12
M  V30 12 2 11 13
M  V30 13 1 13 14
M  V30 14 1 14 15
M  V30 15 2 14 16
M  V30 16 2 7 17
M  V30 17 1 17 18
M  V30 18 1 18 19
M  V30 19 1 19 20
M  V30 20 2 20 21
M  V30 21 1 20 22
M  V30 22 1 22 23
M  V30 23 1 23 24
M  V30 24 1 24 25
M  V30 25 1 25 26
M  V30 26 2 26 27
M  V30 27 1 27 28
M  V30 28 2 28 29
M  V30 29 1 29 30
M  V30 30 2 30 31
M  V30 31 1 19 2
M  V30 32 1 25 23
M  V30 33 1 31 26
M  V30 34 1 17 4
M  V30 35 1 16 9
M  V30 36 1 1 32
M  V30 37 1 1 33
M  V30 38 1 1 34
M  V30 39 1 3 35
M  V30 40 1 3 36
M  V30 41 1 3 37
M  V30 42 1 6 38
M  V30 43 1 8 39
M  V30 44 1 10 40
M  V30 45 1 18 41
M  V30 46 1 18 42
M  V30 47 1 22 43
M  V30 48 1 23 44
M  V30 49 1 24 45
M  V30 50 1 24 46
M  V30 51 1 25 47 CFG=3
M  V30 52 1 27 48
M  V30 53 1 28 49
M  V30 54 1 29 50
M  V30 55 1 30 51
M  V30 56 1 31 52
M  V30 END BOND
M  V30 END CTAB
M  END
>  <Dataset>  (911) 
ChEMBL_Kinases

>  <Ligand_Instance>  (911) 
nan

>  <PDB_ID>  (911) 
nan

>  <Standardized_SMILES>  (911) 
CC1(C)c2n[nH]c(Nc3cc(Cl)nc(Cl)n3)c2CN1C(=O)NC1C[C@@H]1c1ccccc1

>  <Name>  (911) 
nan

>  <Pocket>  (911) 
nan

>  <ATP_Site>  (911) 
nan

>  <Peripheral>  (911) 
nan

>  <Num_H_Atoms_ProtBoundConf>  (911) 
nan

>  <Num_Resolved_Atoms>  (911) 
nan

>  <Num_Not_Resolved_Atoms>  (911) 
nan

$$$$
CHEMBL3669582
     RDKit          3D

  0  0  0  0  0  0  0  0  0  0999 V3000
M  V30 BEGIN CTAB
M  V30 COUNTS 62 66 0 0 0
M  V30 BEGIN ATOM
M  V30 1 C 2.605855 -2.431488 3.979019 0
M  V30 2 N 2.329199 -1.217293 4.665417 0
M  V30 3 C 3.111777 -1.028300 5.862615 0
M  V30 4 C 2.380009 -0.071715 3.821592 0
M  V30 5 C 1.243482 -0.031568 2.869512 0 CFG=1
M  V30 6 N 1.107527 -1.119522 1.952803 0
M  V30 7 C 1.195424 -0.708707 0.580392 0
M  V30 8 O 1.375358 0.479318 0.140402 0
M  V30 9 N 1.119183 -1.432476 -0.678855 0
M  V30 10 C 1.251779 -0.651283 -1.897390 0
M  V30 11 C 0.103081 -1.232024 -2.688283 0
M  V30 12 C -0.860742 -0.998426 -3.679024 0
M  V30 13 N -0.908040 0.305103 -4.296090 0
M  V30 14 C -1.889101 1.036152 -3.546593 0
M  V30 15 N -1.658108 1.719641 -2.396668 0
M  V30 16 C -2.751931 2.334419 -1.877375 0
M  V30 17 N -3.982329 2.299882 -2.417580 0
M  V30 18 C -4.195663 1.618290 -3.557636 0
M  V30 19 C -5.456900 1.625987 -4.055032 0
M  V30 20 C -5.584696 0.882655 -5.269293 0
M  V30 21 S -3.812106 0.235509 -5.563668 0
M  V30 22 C -3.141433 0.982486 -4.125489 0
M  V30 23 N -1.574896 -2.129712 -3.833281 0
M  V30 24 N -1.090628 -3.021769 -2.990244 0
M  V30 25 C -0.067869 -2.533039 -2.266528 0
M  V30 26 C 0.951610 -2.779077 -1.215894 0
M  V30 27 C 2.214721 -3.221271 -1.931158 0
M  V30 28 C 0.499692 -3.786361 -0.201034 0
M  V30 29 C -0.008316 0.154005 3.659726 0
M  V30 30 C -0.732660 -0.871636 4.226013 0
M  V30 31 C -1.884434 -0.712911 4.960099 0
M  V30 32 C -2.348195 0.568466 5.143002 0
M  V30 33 C -1.706244 1.667264 4.623859 0
M  V30 34 C -0.560041 1.418809 3.901329 0
M  V30 35 H 3.391467 -2.988752 4.551121 0
M  V30 36 H 3.011910 -2.245744 2.963391 0
M  V30 37 H 1.684789 -3.027612 3.868498 0
M  V30 38 H 3.966165 -0.383328 5.604210 0
M  V30 39 H 3.405145 -2.007189 6.297547 0
M  V30 40 H 2.524443 -0.490806 6.646363 0
M  V30 41 H 3.373822 0.069256 3.333671 0
M  V30 42 H 2.253999 0.834992 4.487194 0
M  V30 43 H 1.330412 0.952727 2.292851 0
M  V30 44 H 0.958852 -2.136936 1.813753 0
M  V30 45 H 1.136021 0.420645 -1.763226 0
M  V30 46 H 2.194141 -0.922624 -2.441179 0
M  V30 47 H -0.265839 0.422458 -5.092920 0
M  V30 48 H -2.525207 2.871439 -0.957474 0
M  V30 49 H -6.433480 2.001990 -3.863774 0
M  V30 50 H -6.177097 0.485561 -6.131154 0
M  V30 51 H -1.408516 -4.005221 -2.843606 0
M  V30 52 H 2.256518 -4.325590 -1.896197 0
M  V30 53 H 2.194781 -2.923162 -3.011766 0
M  V30 54 H 3.105631 -2.804062 -1.438456 0
M  V30 55 H 0.166423 -4.678966 -0.788368 0
M  V30 56 H -0.414730 -3.418073 0.301740 0
M  V30 57 H 1.293969 -4.142894 0.453758 0
M  V30 58 H -0.390350 -1.883767 4.096064 0
M  V30 59 H -2.422418 -1.533453 5.384550 0
M  V30 60 H -3.243968 0.740490 5.712061 0
M  V30 61 H -2.045199 2.691968 4.747658 0
M  V30 62 H 0.002768 2.255007 3.458733 0
M  V30 END ATOM
M  V30 BEGIN BOND
M  V30 1 1 1 2
M  V30 2 1 2 3
M  V30 3 1 2 4
M  V30 4 1 4 5
M  V30 5 1 5 6
M  V30 6 1 6 7
M  V30 7 2 7 8
M  V30 8 1 7 9
M  V30 9 1 9 10
M  V30 10 1 10 11
M  V30 11 1 11 12
M  V30 12 1 12 13
M  V30 13 1 13 14
M  V30 14 2 14 15
M  V30 15 1 15 16
M  V30 16 2 16 17
M  V30 17 1 17 18
M  V30 18 1 18 19
M  V30 19 2 19 20
M  V30 20 1 20 21
M  V30 21 1 21 22
M  V30 22 2 12 23
M  V30 23 1 23 24
M  V30 24 1 24 25
M  V30 25 1 25 26
M  V30 26 1 26 27
M  V30 27 1 26 28
M  V30 28 1 5 29
M  V30 29 2 29 30
M  V30 30 1 30 31
M  V30 31 2 31 32
M  V30 32 1 32 33
M  V30 33 2 33 34
M  V30 34 1 26 9
M  V30 35 1 34 29
M  V30 36 2 25 11
M  V30 37 1 22 14
M  V30 38 2 22 18
M  V30 39 1 1 35
M  V30 40 1 1 36
M  V30 41 1 1 37
M  V30 42 1 3 38
M  V30 43 1 3 39
M  V30 44 1 3 40
M  V30 45 1 4 41
M  V30 46 1 4 42
M  V30 47 1 5 43 CFG=3
M  V30 48 1 6 44
M  V30 49 1 10 45
M  V30 50 1 10 46
M  V30 51 1 13 47
M  V30 52 1 16 48
M  V30 53 1 19 49
M  V30 54 1 20 50
M  V30 55 1 24 51
M  V30 56 1 27 52
M  V30 57 1 27 53
M  V30 58 1 27 54
M  V30 59 1 28 55
M  V30 60 1 28 56
M  V30 61 1 28 57
M  V30 62 1 30 58
M  V30 63 1 31 59
M  V30 64 1 32 60
M  V30 65 1 33 61
M  V30 66 1 34 62
M  V30 END BOND
M  V30 END CTAB
M  END
>  <Dataset>  (912) 
ChEMBL_Kinases

>  <Ligand_Instance>  (912) 
nan

>  <PDB_ID>  (912) 
nan

>  <Standardized_SMILES>  (912) 
CN(C)C[C@@H](NC(=O)N1Cc2c(Nc3ncnc4ccsc34)n[nH]c2C1(C)C)c1ccccc1

>  <Name>  (912) 
nan

>  <Pocket>  (912) 
nan

>  <ATP_Site>  (912) 
nan

>  <Peripheral>  (912) 
nan

>  <Num_H_Atoms_ProtBoundConf>  (912) 
nan

>  <Num_Resolved_Atoms>  (912) 
nan

>  <Num_Not_Resolved_Atoms>  (912) 
nan

$$$$
CHEMBL3669583
     RDKit          3D

  0  0  0  0  0  0  0  0  0  0999 V3000
M  V30 BEGIN CTAB
M  V30 COUNTS 62 66 0 0 0
M  V30 BEGIN ATOM
M  V30 1 C -0.359315 -1.646857 5.261429 0
M  V30 2 N 0.421078 -1.676165 4.025631 0
M  V30 3 C 1.605366 -2.482464 4.335431 0
M  V30 4 C 0.903178 -0.333279 3.753504 0
M  V30 5 C 1.716304 -0.258667 2.502727 0 CFG=1
M  V30 6 N 0.960249 -0.673027 1.326698 0
M  V30 7 C 1.247907 -1.710762 0.404091 0
M  V30 8 O 2.320325 -2.359277 0.655282 0
M  V30 9 N 0.357202 -1.937194 -0.681304 0
M  V30 10 C -0.883169 -1.262380 -1.058447 0
M  V30 11 C -1.699088 -2.409347 -1.538456 0
M  V30 12 C -2.992465 -2.837457 -1.756034 0
M  V30 13 N -4.193227 -2.116638 -1.521123 0
M  V30 14 C -4.114170 -0.796047 -1.003148 0
M  V30 15 N -4.111750 -0.508611 0.334489 0
M  V30 16 C -4.028937 0.825617 0.607332 0
M  V30 17 Cl -4.027282 1.176022 2.341593 0
M  V30 18 N -3.955390 1.799428 -0.282319 0
M  V30 19 C -3.956822 1.527413 -1.622304 0
M  V30 20 C -3.882063 2.509675 -2.565490 0
M  V30 21 C -3.896052 2.048956 -3.874662 0
M  V30 22 S -4.020072 0.163295 -3.681944 0
M  V30 23 C -4.037582 0.214806 -1.948451 0
M  V30 24 N -2.895765 -4.096080 -2.244125 0
M  V30 25 N -1.618312 -4.434436 -2.326704 0
M  V30 26 C -0.831595 -3.424576 -1.901475 0
M  V30 27 C 0.577418 -2.981888 -1.673607 0
M  V30 28 C 1.100729 -2.397599 -2.959273 0
M  V30 29 C 1.432260 -4.109180 -1.158475 0
M  V30 30 C 2.250309 1.108974 2.353246 0
M  V30 31 C 2.828351 1.259815 1.087067 0
M  V30 32 C 3.409467 2.458577 0.680767 0
M  V30 33 C 3.417711 3.530658 1.548295 0
M  V30 34 C 2.848326 3.382161 2.795581 0
M  V30 35 C 2.273123 2.197039 3.198883 0
M  V30 36 H -1.008462 -2.532501 5.379189 0
M  V30 37 H 0.314504 -1.609679 6.151307 0
M  V30 38 H -1.014368 -0.758594 5.271444 0
M  V30 39 H 2.299900 -1.826624 4.896840 0
M  V30 40 H 1.346855 -3.385089 4.930053 0
M  V30 41 H 2.067313 -2.738147 3.366636 0
M  V30 42 H 0.026982 0.342244 3.724605 0
M  V30 43 H 1.549459 0.010065 4.590543 0
M  V30 44 H 2.592177 -0.936368 2.539750 0
M  V30 45 H 0.106645 -0.050212 1.248781 0
M  V30 46 H -1.310083 -0.754620 -0.178754 0
M  V30 47 H -0.731400 -0.610544 -1.934218 0
M  V30 48 H -5.104907 -2.552997 -1.726372 0
M  V30 49 H -3.814308 3.579692 -2.452641 0
M  V30 50 H -3.841422 2.715712 -4.841860 0
M  V30 51 H -1.263990 -5.371378 -2.679077 0
M  V30 52 H 1.648591 -3.214742 -3.488683 0
M  V30 53 H 0.285134 -2.066431 -3.654905 0
M  V30 54 H 1.802764 -1.540778 -2.795447 0
M  V30 55 H 1.239527 -4.986244 -1.810712 0
M  V30 56 H 2.476159 -3.792253 -1.238704 0
M  V30 57 H 1.163679 -4.284535 -0.111287 0
M  V30 58 H 2.900034 0.504074 0.289040 0
M  V30 59 H 3.863299 2.628480 -0.270905 0
M  V30 60 H 3.831526 4.527195 1.377157 0
M  V30 61 H 2.806140 4.164331 3.544399 0
M  V30 62 H 1.800828 1.967197 4.142826 0
M  V30 END ATOM
M  V30 BEGIN BOND
M  V30 1 1 1 2
M  V30 2 1 2 3
M  V30 3 1 2 4
M  V30 4 1 4 5
M  V30 5 1 5 6
M  V30 6 1 6 7
M  V30 7 2 7 8
M  V30 8 1 7 9
M  V30 9 1 9 10
M  V30 10 1 10 11
M  V30 11 1 11 12
M  V30 12 1 12 13
M  V30 13 1 13 14
M  V30 14 2 14 15
M  V30 15 1 15 16
M  V30 16 1 16 17
M  V30 17 2 16 18
M  V30 18 1 18 19
M  V30 19 1 19 20
M  V30 20 2 20 21
M  V30 21 1 21 22
M  V30 22 1 22 23
M  V30 23 2 12 24
M  V30 24 1 24 25
M  V30 25 1 25 26
M  V30 26 1 26 27
M  V30 27 1 27 28
M  V30 28 1 27 29
M  V30 29 1 5 30
M  V30 30 2 30 31
M  V30 31 1 31 32
M  V30 32 2 32 33
M  V30 33 1 33 34
M  V30 34 2 34 35
M  V30 35 1 27 9
M  V30 36 1 35 30
M  V30 37 2 26 11
M  V30 38 1 23 14
M  V30 39 2 23 19
M  V30 40 1 1 36
M  V30 41 1 1 37
M  V30 42 1 1 38
M  V30 43 1 3 39
M  V30 44 1 3 40
M  V30 45 1 3 41
M  V30 46 1 4 42
M  V30 47 1 4 43
M  V30 48 1 5 44 CFG=1
M  V30 49 1 6 45
M  V30 50 1 10 46
M  V30 51 1 10 47
M  V30 52 1 13 48
M  V30 53 1 20 49
M  V30 54 1 21 50
M  V30 55 1 25 51
M  V30 56 1 28 52
M  V30 57 1 28 53
M  V30 58 1 28 54
M  V30 59 1 29 55
M  V30 60 1 29 56
M  V30 61 1 29 57
M  V30 62 1 31 58
M  V30 63 1 32 59
M  V30 64 1 33 60
M  V30 65 1 34 61
M  V30 66 1 35 62
M  V30 END BOND
M  V30 END CTAB
M  END
>  <Dataset>  (913) 
ChEMBL_Kinases

>  <Ligand_Instance>  (913) 
nan

>  <PDB_ID>  (913) 
nan

>  <Standardized_SMILES>  (913) 
CN(C)C[C@@H](NC(=O)N1Cc2c(Nc3nc(Cl)nc4ccsc34)n[nH]c2C1(C)C)c1ccccc1

>  <Name>  (913) 
nan

>  <Pocket>  (913) 
nan

>  <ATP_Site>  (913) 
nan

>  <Peripheral>  (913) 
nan

>  <Num_H_Atoms_ProtBoundConf>  (913) 
nan

>  <Num_Resolved_Atoms>  (913) 
nan

>  <Num_Not_Resolved_Atoms>  (913) 
nan

$$$$
CHEMBL3669584
     RDKit          3D

  0  0  0  0  0  0  0  0  0  0999 V3000
M  V30 BEGIN CTAB
M  V30 COUNTS 61 65 0 0 0
M  V30 BEGIN ATOM
M  V30 1 C 6.824754 -3.724029 3.053095 0
M  V30 2 C 7.724314 -2.900056 2.131420 0
M  V30 3 C 7.198494 -1.475667 2.060920 0
M  V30 4 O 5.898347 -1.410879 1.559485 0
M  V30 5 C 5.184971 -0.226508 1.411047 0
M  V30 6 N 5.552326 1.011523 1.690285 0
M  V30 7 C 4.784892 2.089662 1.510876 0
M  V30 8 Cl 5.388919 3.690642 1.923081 0
M  V30 9 N 3.543498 1.890385 1.005542 0
M  V30 10 C 3.108793 0.634514 0.697573 0
M  V30 11 N 1.787349 0.673490 0.205196 0
M  V30 12 C 1.175250 0.983680 -1.034786 0
M  V30 13 N 1.718767 1.373059 -2.214887 0
M  V30 14 N 0.731542 1.559881 -3.076241 0
M  V30 15 C -0.437131 1.297813 -2.472866 0
M  V30 16 C -0.188380 0.928132 -1.175749 0
M  V30 17 C -1.471864 0.626699 -0.513089 0
M  V30 18 N -2.336470 0.324747 -1.669405 0
M  V30 19 C -3.357670 -0.686672 -1.774987 0
M  V30 20 O -4.080500 -0.877284 -2.792582 0
M  V30 21 N -3.617839 -1.564327 -0.690041 0
M  V30 22 C -4.608001 -2.601899 -0.668379 0
M  V30 23 C -4.252816 -4.005076 -0.236891 0
M  V30 24 C -5.184609 -3.142527 0.575637 0
M  V30 25 C -4.778673 -2.732384 1.924903 0
M  V30 26 C -5.753431 -2.305911 2.800703 0
M  V30 27 C -5.467190 -1.903614 4.112723 0
M  V30 28 C -4.141090 -1.936164 4.549424 0
M  V30 29 C -3.124971 -2.362014 3.692240 0
M  V30 30 C -3.497461 -2.736607 2.428299 0
M  V30 31 C -1.928066 1.271724 -2.687591 0
M  V30 32 C -2.267153 0.871896 -4.081228 0
M  V30 33 C -2.421627 2.669940 -2.367986 0
M  V30 34 N 3.928102 -0.404397 0.901849 0
M  V30 35 H 6.040825 -3.067579 3.508022 0
M  V30 36 H 6.300398 -4.523715 2.463199 0
M  V30 37 H 7.397732 -4.209801 3.852247 0
M  V30 38 H 8.731990 -2.918166 2.591782 0
M  V30 39 H 7.817938 -3.348880 1.124593 0
M  V30 40 H 7.858354 -0.938407 1.339735 0
M  V30 41 H 7.224391 -0.973961 3.035937 0
M  V30 42 H 1.309776 0.388943 1.056695 0
M  V30 43 H 2.775071 1.454896 -2.241460 0
M  V30 44 H -1.846176 1.571921 -0.053037 0
M  V30 45 H -1.405451 -0.211908 0.192944 0
M  V30 46 H -3.021709 -1.414597 0.150114 0
M  V30 47 H -5.291384 -2.550233 -1.559129 0
M  V30 48 H -4.669657 -4.820942 -0.854127 0
M  V30 49 H -3.215033 -4.203844 0.109645 0
M  V30 50 H -6.260670 -3.435606 0.525355 0
M  V30 51 H -6.802209 -2.254667 2.529263 0
M  V30 52 H -6.216048 -1.566791 4.814539 0
M  V30 53 H -3.802849 -1.647029 5.542407 0
M  V30 54 H -2.089588 -2.386292 4.035574 0
M  V30 55 H -2.689699 -3.072555 1.785150 0
M  V30 56 H -3.291704 1.304025 -4.287397 0
M  V30 57 H -2.355845 -0.209389 -4.209405 0
M  V30 58 H -1.555850 1.334890 -4.801589 0
M  V30 59 H -3.178273 2.706150 -1.577257 0
M  V30 60 H -2.837200 3.072470 -3.314636 0
M  V30 61 H -1.590322 3.358675 -2.101326 0
M  V30 END ATOM
M  V30 BEGIN BOND
M  V30 1 1 1 2
M  V30 2 1 2 3
M  V30 3 1 3 4
M  V30 4 1 4 5
M  V30 5 2 5 6
M  V30 6 1 6 7
M  V30 7 1 7 8
M  V30 8 2 7 9
M  V30 9 1 9 10
M  V30 10 1 10 11
M  V30 11 1 11 12
M  V30 12 1 12 13
M  V30 13 1 13 14
M  V30 14 2 14 15
M  V30 15 1 15 16
M  V30 16 1 16 17
M  V30 17 1 17 18
M  V30 18 1 18 19
M  V30 19 2 19 20
M  V30 20 1 19 21
M  V30 21 1 21 22
M  V30 22 1 22 23
M  V30 23 1 23 24
M  V30 24 1 24 25
M  V30 25 2 25 26
M  V30 26 1 26 27
M  V30 27 2 27 28
M  V30 28 1 28 29
M  V30 29 2 29 30
M  V30 30 1 18 31
M  V30 31 1 31 32
M  V30 32 1 31 33
M  V30 33 2 10 34
M  V30 34 1 34 5
M  V30 35 2 16 12
M  V30 36 1 24 22
M  V30 37 1 30 25
M  V30 38 1 31 15
M  V30 39 1 1 35
M  V30 40 1 1 36
M  V30 41 1 1 37
M  V30 42 1 2 38
M  V30 43 1 2 39
M  V30 44 1 3 40
M  V30 45 1 3 41
M  V30 46 1 11 42
M  V30 47 1 13 43
M  V30 48 1 17 44
M  V30 49 1 17 45
M  V30 50 1 21 46
M  V30 51 1 22 47
M  V30 52 1 23 48
M  V30 53 1 23 49
M  V30 54 1 24 50
M  V30 55 1 26 51
M  V30 56 1 27 52
M  V30 57 1 28 53
M  V30 58 1 29 54
M  V30 59 1 30 55
M  V30 60 1 32 56
M  V30 61 1 32 57
M  V30 62 1 32 58
M  V30 63 1 33 59
M  V30 64 1 33 60
M  V30 65 1 33 61
M  V30 END BOND
M  V30 END CTAB
M  END
>  <Dataset>  (914) 
ChEMBL_Kinases

>  <Ligand_Instance>  (914) 
nan

>  <PDB_ID>  (914) 
nan

>  <Standardized_SMILES>  (914) 
CCCOc1nc(Cl)nc(Nc2[nH]nc3c2CN(C(=O)NC2CC2c2ccccc2)C3(C)C)n1

>  <Name>  (914) 
nan

>  <Pocket>  (914) 
nan

>  <ATP_Site>  (914) 
nan

>  <Peripheral>  (914) 
nan

>  <Num_H_Atoms_ProtBoundConf>  (914) 
nan

>  <Num_Resolved_Atoms>  (914) 
nan

>  <Num_Not_Resolved_Atoms>  (914) 
nan

$$$$
CHEMBL3669585
     RDKit          3D

  0  0  0  0  0  0  0  0  0  0999 V3000
M  V30 BEGIN CTAB
M  V30 COUNTS 53 57 0 0 0
M  V30 BEGIN ATOM
M  V30 1 C -1.738488 -0.311174 4.656922 0
M  V30 2 C -0.412836 -0.547999 4.017650 0
M  V30 3 C 0.407153 -1.509835 4.854657 0
M  V30 4 C 0.369837 0.691636 3.828173 0
M  V30 5 N 0.683411 1.848259 4.435994 0
M  V30 6 N 1.480550 2.559050 3.666630 0
M  V30 7 C 1.667909 1.828863 2.554257 0
M  V30 8 N 2.487826 2.277109 1.484617 0
M  V30 9 C 2.791376 1.687007 0.248629 0
M  V30 10 N 3.720651 0.787960 -0.109057 0
M  V30 11 C 3.840836 0.361906 -1.370672 0
M  V30 12 N 4.884490 -0.587378 -1.520312 0
M  V30 13 N 3.033534 0.812084 -2.360218 0
M  V30 14 C 2.093067 1.717728 -2.016389 0
M  V30 15 Cl 1.016829 2.341510 -3.274142 0
M  V30 16 N 1.977872 2.140520 -0.748421 0
M  V30 17 C 0.987405 0.631022 2.598141 0
M  V30 18 C 0.632741 -0.652333 1.951175 0
M  V30 19 N -0.586982 -1.027188 2.670970 0
M  V30 20 C -1.680974 -1.744162 2.081181 0
M  V30 21 O -2.655723 -1.962484 2.848594 0
M  V30 22 N -1.702749 -2.193897 0.735496 0
M  V30 23 C -2.891343 -2.891284 0.340373 0
M  V30 24 C -2.680340 -4.165357 -0.469818 0
M  V30 25 C -3.271739 -3.008051 -1.139579 0
M  V30 26 C -2.471880 -2.169468 -2.072529 0
M  V30 27 C -1.124841 -2.369295 -2.279961 0
M  V30 28 C -0.339087 -1.608867 -3.141736 0
M  V30 29 C -0.986248 -0.594751 -3.818144 0
M  V30 30 C -2.333763 -0.342362 -3.654912 0
M  V30 31 C -3.064242 -1.141461 -2.775716 0
M  V30 32 H -2.145175 -1.281903 4.999739 0
M  V30 33 H -1.663950 0.371614 5.542948 0
M  V30 34 H -2.456865 0.093710 3.908423 0
M  V30 35 H 0.289549 -1.188089 5.911474 0
M  V30 36 H 0.025530 -2.544184 4.770059 0
M  V30 37 H 1.484294 -1.422691 4.606151 0
M  V30 38 H 1.855324 3.494531 3.930116 0
M  V30 39 H 3.010354 3.178176 1.487003 0
M  V30 40 H 4.470304 -1.438758 -1.948822 0
M  V30 41 H 5.884370 -0.405664 -1.229259 0
M  V30 42 H 0.501484 -0.553304 0.876346 0
M  V30 43 H 1.417304 -1.411304 2.189646 0
M  V30 44 H -0.835120 -1.938884 0.235838 0
M  V30 45 H -3.748617 -2.906797 1.064607 0
M  V30 46 H -3.365463 -4.985077 -0.191673 0
M  V30 47 H -1.645189 -4.500020 -0.630260 0
M  V30 48 H -4.370297 -2.957305 -1.336597 0
M  V30 49 H -0.589706 -3.161189 -1.770484 0
M  V30 50 H 0.727731 -1.820124 -3.260757 0
M  V30 51 H -0.408872 0.019778 -4.502252 0
M  V30 52 H -2.861943 0.446672 -4.174053 0
M  V30 53 H -4.123232 -0.960479 -2.632444 0
M  V30 END ATOM
M  V30 BEGIN BOND
M  V30 1 1 1 2
M  V30 2 1 2 3
M  V30 3 1 2 4
M  V30 4 2 4 5
M  V30 5 1 5 6
M  V30 6 1 6 7
M  V30 7 1 7 8
M  V30 8 1 8 9
M  V30 9 2 9 10
M  V30 10 1 10 11
M  V30 11 1 11 12
M  V30 12 2 11 13
M  V30 13 1 13 14
M  V30 14 1 14 15
M  V30 15 2 14 16
M  V30 16 2 7 17
M  V30 17 1 17 18
M  V30 18 1 18 19
M  V30 19 1 19 20
M  V30 20 2 20 21
M  V30 21 1 20 22
M  V30 22 1 22 23
M  V30 23 1 23 24
M  V30 24 1 24 25
M  V30 25 1 25 26
M  V30 26 2 26 27
M  V30 27 1 27 28
M  V30 28 2 28 29
M  V30 29 1 29 30
M  V30 30 2 30 31
M  V30 31 1 19 2
M  V30 32 1 25 23
M  V30 33 1 31 26
M  V30 34 1 17 4
M  V30 35 1 16 9
M  V30 36 1 1 32
M  V30 37 1 1 33
M  V30 38 1 1 34
M  V30 39 1 3 35
M  V30 40 1 3 36
M  V30 41 1 3 37
M  V30 42 1 6 38
M  V30 43 1 8 39
M  V30 44 1 12 40
M  V30 45 1 12 41
M  V30 46 1 18 42
M  V30 47 1 18 43
M  V30 48 1 22 44
M  V30 49 1 23 45
M  V30 50 1 24 46
M  V30 51 1 24 47
M  V30 52 1 25 48
M  V30 53 1 27 49
M  V30 54 1 28 50
M  V30 55 1 29 51
M  V30 56 1 30 52
M  V30 57 1 31 53
M  V30 END BOND
M  V30 END CTAB
M  END
>  <Dataset>  (915) 
ChEMBL_Kinases

>  <Ligand_Instance>  (915) 
nan

>  <PDB_ID>  (915) 
nan

>  <Standardized_SMILES>  (915) 
CC1(C)c2n[nH]c(Nc3nc(N)nc(Cl)n3)c2CN1C(=O)NC1CC1c1ccccc1

>  <Name>  (915) 
nan

>  <Pocket>  (915) 
nan

>  <ATP_Site>  (915) 
nan

>  <Peripheral>  (915) 
nan

>  <Num_H_Atoms_ProtBoundConf>  (915) 
nan

>  <Num_Resolved_Atoms>  (915) 
nan

>  <Num_Not_Resolved_Atoms>  (915) 
nan

$$$$
CHEMBL3669586
     RDKit          3D

  0  0  0  0  0  0  0  0  0  0999 V3000
M  V30 BEGIN CTAB
M  V30 COUNTS 51 55 0 0 0
M  V30 BEGIN ATOM
M  V30 1 C 0.998805 -1.949708 1.973337 0
M  V30 2 C 1.533627 -0.981493 0.924024 0
M  V30 3 C 2.165769 -1.716157 -0.207713 0
M  V30 4 C 2.548948 -0.047558 1.493160 0
M  V30 5 N 3.776605 -0.023596 2.043830 0
M  V30 6 N 4.136546 1.209918 2.357866 0
M  V30 7 C 3.108518 2.007395 1.998459 0
M  V30 8 N 3.076850 3.410498 2.158937 0
M  V30 9 C 2.033342 4.310579 1.805209 0
M  V30 10 N 2.028766 4.858292 0.578755 0
M  V30 11 C 1.088377 5.723347 0.138392 0
M  V30 12 Cl 1.242722 6.342675 -1.503815 0
M  V30 13 N 0.085167 6.054379 1.001719 0
M  V30 14 C 0.057336 5.531630 2.223926 0
M  V30 15 Cl -1.235259 5.963558 3.324126 0
M  V30 16 N 1.011058 4.672074 2.630535 0
M  V30 17 C 2.081288 1.266220 1.447977 0
M  V30 18 C 0.726485 1.341380 0.852976 0
M  V30 19 N 0.507237 -0.043542 0.481160 0
M  V30 20 C -0.664250 -0.351911 -0.265392 0
M  V30 21 O -1.184793 0.808766 -0.370208 0
M  V30 22 N -1.103076 -1.612575 -0.745437 0
M  V30 23 C -2.317416 -1.698457 -1.479152 0
M  V30 24 C -2.690145 -2.738613 -2.425286 0
M  V30 25 C -3.224734 -2.871691 -1.042128 0
M  V30 26 C -2.676903 -3.913261 -0.170615 0
M  V30 27 C -3.382076 -4.211774 0.997336 0
M  V30 28 C -2.970074 -5.177562 1.894211 0
M  V30 29 C -1.817883 -5.886578 1.643470 0
M  V30 30 C -1.095887 -5.623581 0.506493 0
M  V30 31 C -1.539689 -4.650429 -0.366768 0
M  V30 32 H -0.066457 -1.812628 2.155913 0
M  V30 33 H 1.306641 -2.994752 1.775064 0
M  V30 34 H 1.509303 -1.675840 2.930477 0
M  V30 35 H 3.263174 -1.653027 -0.151245 0
M  V30 36 H 1.768188 -1.436237 -1.203392 0
M  V30 37 H 1.933547 -2.809877 -0.091601 0
M  V30 38 H 5.029727 1.521228 2.795077 0
M  V30 39 H 3.874816 3.936214 2.580497 0
M  V30 40 H -0.026432 1.741127 1.532513 0
M  V30 41 H 0.710204 1.922145 -0.095351 0
M  V30 42 H -0.385320 -2.300629 -0.440666 0
M  V30 43 H -2.823514 -0.692705 -1.587825 0
M  V30 44 H -3.444786 -2.476276 -3.201997 0
M  V30 45 H -1.990694 -3.510975 -2.802809 0
M  V30 46 H -4.248782 -2.539353 -0.776428 0
M  V30 47 H -4.297781 -3.686655 1.249706 0
M  V30 48 H -3.551212 -5.383112 2.800694 0
M  V30 49 H -1.444236 -6.657491 2.311669 0
M  V30 50 H -0.199142 -6.169228 0.302915 0
M  V30 51 H -0.974799 -4.450861 -1.257937 0
M  V30 END ATOM
M  V30 BEGIN BOND
M  V30 1 1 1 2
M  V30 2 1 2 3
M  V30 3 1 2 4
M  V30 4 2 4 5
M  V30 5 1 5 6
M  V30 6 1 6 7
M  V30 7 1 7 8
M  V30 8 1 8 9
M  V30 9 2 9 10
M  V30 10 1 10 11
M  V30 11 1 11 12
M  V30 12 2 11 13
M  V30 13 1 13 14
M  V30 14 1 14 15
M  V30 15 2 14 16
M  V30 16 2 7 17
M  V30 17 1 17 18
M  V30 18 1 18 19
M  V30 19 1 19 20
M  V30 20 2 20 21
M  V30 21 1 20 22
M  V30 22 1 22 23
M  V30 23 1 23 24
M  V30 24 1 24 25
M  V30 25 1 25 26
M  V30 26 2 26 27
M  V30 27 1 27 28
M  V30 28 2 28 29
M  V30 29 1 29 30
M  V30 30 2 30 31
M  V30 31 1 19 2
M  V30 32 1 25 23
M  V30 33 1 31 26
M  V30 34 1 17 4
M  V30 35 1 16 9
M  V30 36 1 1 32
M  V30 37 1 1 33
M  V30 38 1 1 34
M  V30 39 1 3 35
M  V30 40 1 3 36
M  V30 41 1 3 37
M  V30 42 1 6 38
M  V30 43 1 8 39
M  V30 44 1 18 40
M  V30 45 1 18 41
M  V30 46 1 22 42
M  V30 47 1 23 43
M  V30 48 1 24 44
M  V30 49 1 24 45
M  V30 50 1 25 46
M  V30 51 1 27 47
M  V30 52 1 28 48
M  V30 53 1 29 49
M  V30 54 1 30 50
M  V30 55 1 31 51
M  V30 END BOND
M  V30 END CTAB
M  END
>  <Dataset>  (916) 
ChEMBL_Kinases

>  <Ligand_Instance>  (916) 
nan

>  <PDB_ID>  (916) 
nan

>  <Standardized_SMILES>  (916) 
CC1(C)c2n[nH]c(Nc3nc(Cl)nc(Cl)n3)c2CN1C(=O)NC1CC1c1ccccc1

>  <Name>  (916) 
nan

>  <Pocket>  (916) 
nan

>  <ATP_Site>  (916) 
nan

>  <Peripheral>  (916) 
nan

>  <Num_H_Atoms_ProtBoundConf>  (916) 
nan

>  <Num_Resolved_Atoms>  (916) 
nan

>  <Num_Not_Resolved_Atoms>  (916) 
nan

$$$$
CHEMBL366922
     RDKit          3D

  0  0  0  0  0  0  0  0  0  0999 V3000
M  V30 BEGIN CTAB
M  V30 COUNTS 55 58 0 0 0
M  V30 BEGIN ATOM
M  V30 1 C 1.893150 -1.161809 3.039428 0
M  V30 2 N 2.058490 0.037769 2.238103 0
M  V30 3 C 3.337842 0.385661 2.011678 0
M  V30 4 O 4.312829 -0.258827 2.449105 0
M  V30 5 C 3.548207 1.534530 1.242522 0
M  V30 6 C 4.926804 1.936593 0.977755 0
M  V30 7 C 5.644782 1.492556 -0.140091 0
M  V30 8 Cl 4.848362 0.411081 -1.272276 0
M  V30 9 C 6.957247 1.909178 -0.334325 0
M  V30 10 C 7.587598 2.768501 0.565219 0
M  V30 11 C 6.867759 3.196240 1.659738 0
M  V30 12 O 7.485329 4.057867 2.570223 0
M  V30 13 C 5.550477 2.785320 1.864467 0
M  V30 14 Cl 4.722133 3.380907 3.282469 0
M  V30 15 C 2.446563 2.244914 0.760737 0
M  V30 16 C 1.164846 1.830059 1.032070 0
M  V30 17 C 0.102892 2.554955 0.538367 0
M  V30 18 N -1.109606 2.085249 0.845157 0
M  V30 19 C -1.348834 0.984303 1.582544 0
M  V30 20 N -2.705029 0.574903 1.846032 0
M  V30 21 C -3.451118 -0.367012 1.061780 0
M  V30 22 C -4.758840 -0.670440 1.353949 0
M  V30 23 C -5.399350 -1.610587 0.530850 0
M  V30 24 C -4.744908 -2.226139 -0.551884 0
M  V30 25 O -5.596463 -3.045059 -1.127720 0
M  V30 26 C -5.865294 -3.938913 -2.057255 0
M  V30 27 C -5.229613 -5.271646 -2.025686 0
M  V30 28 C -3.779844 -5.474313 -2.007758 0
M  V30 29 C -3.011740 -5.101115 -0.829175 0
M  V30 30 O -1.743785 -5.059028 -1.035076 0
M  V30 31 O -3.139393 -4.760342 0.499481 0
M  V30 32 C -3.438647 -1.829120 -0.730084 0
M  V30 33 C -2.739146 -0.921039 0.024050 0
M  V30 34 N -0.285109 0.277898 2.063791 0
M  V30 35 C 0.973374 0.694301 1.792493 0
M  V30 36 H 1.830461 -0.872645 4.101805 0
M  V30 37 H 2.746687 -1.864883 2.931865 0
M  V30 38 H 0.949250 -1.694208 2.745177 0
M  V30 39 H 7.488317 1.557479 -1.198718 0
M  V30 40 H 8.604042 3.106953 0.435836 0
M  V30 41 H 8.416099 3.787198 2.920990 0
M  V30 42 H 2.642796 3.116654 0.177976 0
M  V30 43 H 0.252803 3.451369 -0.060652 0
M  V30 44 H -3.172260 1.017518 2.692053 0
M  V30 45 H -5.159998 -0.151088 2.190621 0
M  V30 46 H -6.428378 -1.735618 0.900755 0
M  V30 47 H -7.006098 -4.180406 -2.139691 0
M  V30 48 H -5.726132 -3.492953 -3.141633 0
M  V30 49 H -5.597132 -5.830610 -2.972506 0
M  V30 50 H -5.712295 -5.933404 -1.226823 0
M  V30 51 H -3.297084 -4.994279 -2.902757 0
M  V30 52 H -3.590682 -6.584716 -2.175807 0
M  V30 53 H -2.653196 -4.027218 0.947321 0
M  V30 54 H -3.010827 -2.348048 -1.592758 0
M  V30 55 H -1.713258 -0.715428 -0.246486 0
M  V30 END ATOM
M  V30 BEGIN BOND
M  V30 1 1 1 2
M  V30 2 1 2 3
M  V30 3 2 3 4
M  V30 4 1 3 5
M  V30 5 1 5 6
M  V30 6 2 6 7
M  V30 7 1 7 8
M  V30 8 1 7 9
M  V30 9 2 9 10
M  V30 10 1 10 11
M  V30 11 1 11 12
M  V30 12 2 11 13
M  V30 13 1 13 14
M  V30 14 2 5 15
M  V30 15 1 15 16
M  V30 16 2 16 17
M  V30 17 1 17 18
M  V30 18 2 18 19
M  V30 19 1 19 20
M  V30 20 1 20 21
M  V30 21 2 21 22
M  V30 22 1 22 23
M  V30 23 2 23 24
M  V30 24 1 24 25
M  V30 25 1 25 26
M  V30 26 1 26 27
M  V30 27 1 27 28
M  V30 28 1 28 29
M  V30 29 2 29 30
M  V30 30 1 29 31
M  V30 31 1 24 32
M  V30 32 2 32 33
M  V30 33 1 19 34
M  V30 34 2 34 35
M  V30 35 1 35 2
M  V30 36 1 13 6
M  V30 37 1 35 16
M  V30 38 1 33 21
M  V30 39 1 1 36
M  V30 40 1 1 37
M  V30 41 1 1 38
M  V30 42 1 9 39
M  V30 43 1 10 40
M  V30 44 1 12 41
M  V30 45 1 15 42
M  V30 46 1 17 43
M  V30 47 1 20 44
M  V30 48 1 22 45
M  V30 49 1 23 46
M  V30 50 1 26 47
M  V30 51 1 26 48
M  V30 52 1 27 49
M  V30 53 1 27 50
M  V30 54 1 28 51
M  V30 55 1 28 52
M  V30 56 1 31 53
M  V30 57 1 32 54
M  V30 58 1 33 55
M  V30 END BOND
M  V30 END CTAB
M  END
>  <Dataset>  (917) 
ChEMBL_Kinases

>  <Ligand_Instance>  (917) 
nan

>  <PDB_ID>  (917) 
nan

>  <Standardized_SMILES>  (917) 
Cn1c(=O)c(-c2c(Cl)ccc(O)c2Cl)cc2cnc(Nc3ccc(OCCCC(=O)O)cc3)nc21

>  <Name>  (917) 
nan

>  <Pocket>  (917) 
nan

>  <ATP_Site>  (917) 
nan

>  <Peripheral>  (917) 
nan

>  <Num_H_Atoms_ProtBoundConf>  (917) 
nan

>  <Num_Resolved_Atoms>  (917) 
nan

>  <Num_Not_Resolved_Atoms>  (917) 
nan

$$$$
CHEMBL3668494
     RDKit          3D

  0  0  0  0  0  0  0  0  0  0999 V3000
M  V30 BEGIN CTAB
M  V30 COUNTS 56 60 0 0 0
M  V30 BEGIN ATOM
M  V30 1 C 4.533783 -1.689008 0.448204 0
M  V30 2 O 4.050920 -0.379815 0.445024 0
M  V30 3 C 3.888788 0.430183 1.555336 0
M  V30 4 C 4.256440 -0.163704 2.766738 0
M  V30 5 C 4.148616 0.531960 3.976147 0
M  V30 6 C 3.668010 1.808170 3.892357 0
M  V30 7 F 3.543579 2.526635 5.035055 0
M  V30 8 C 3.286934 2.453334 2.725515 0
M  V30 9 C 3.404450 1.738716 1.538144 0
M  V30 10 C 3.051736 2.257399 0.222742 0
M  V30 11 C 3.923680 2.927902 -0.615881 0
M  V30 12 C 3.490187 3.384524 -1.853725 0
M  V30 13 N 2.210913 3.179130 -2.253746 0
M  V30 14 C 1.342296 2.529060 -1.455767 0
M  V30 15 N 0.048057 2.229980 -1.669251 0
M  V30 16 C -0.435852 1.568229 -0.597117 0
M  V30 17 C -1.791209 1.039053 -0.368277 0
M  V30 18 C -2.092346 0.409430 0.755159 0
M  V30 19 C -3.513859 -0.067511 0.831644 0
M  V30 20 N -3.721911 -0.804568 -0.417734 0
M  V30 21 C -3.872650 -2.199515 -0.661575 0
M  V30 22 O -4.046020 -2.655458 -1.824345 0
M  V30 23 N -3.814949 -3.032407 0.481949 0
M  V30 24 C -3.927825 -4.447386 0.583990 0
M  V30 25 C -4.961564 -5.337975 0.763830 0
M  V30 26 N -4.453781 -6.598235 0.781671 0
M  V30 27 N -3.140146 -6.565871 0.621893 0
M  V30 28 C -2.215586 -7.683789 0.580780 0
M  V30 29 C -2.785261 -5.253839 0.497217 0
M  V30 30 C -3.772523 0.100705 -1.554772 0
M  V30 31 C -2.800833 1.239258 -1.442913 0
M  V30 32 C 0.619364 1.465019 0.303928 0
M  V30 33 C 1.757103 2.064464 -0.213347 0
M  V30 34 H 3.935959 -2.350870 1.086981 0
M  V30 35 H 5.616189 -1.693314 0.710084 0
M  V30 36 H 4.417881 -2.072574 -0.597598 0
M  V30 37 H 4.640142 -1.188392 2.816260 0
M  V30 38 H 4.426969 0.092636 4.924219 0
M  V30 39 H 2.913509 3.449370 2.673730 0
M  V30 40 H 4.945084 3.069113 -0.248780 0
M  V30 41 H 4.175183 3.904005 -2.497332 0
M  V30 42 H -0.503701 2.466484 -2.522765 0
M  V30 43 H -1.335518 0.279820 1.517857 0
M  V30 44 H -4.158317 0.831230 0.862185 0
M  V30 45 H -3.632320 -0.702351 1.721114 0
M  V30 46 H -3.675772 -2.731032 1.465056 0
M  V30 47 H -5.971988 -4.969725 0.862140 0
M  V30 48 H -1.780646 -7.894166 1.577868 0
M  V30 49 H -2.690318 -8.557831 0.117850 0
M  V30 50 H -1.370142 -7.378905 -0.084591 0
M  V30 51 H -1.745984 -4.926734 0.351955 0
M  V30 52 H -3.534355 -0.466436 -2.487540 0
M  V30 53 H -4.820764 0.479290 -1.714693 0
M  V30 54 H -2.300350 1.419283 -2.420035 0
M  V30 55 H -3.370427 2.146516 -1.144682 0
M  V30 56 H 0.564651 0.984647 1.274688 0
M  V30 END ATOM
M  V30 BEGIN BOND
M  V30 1 1 1 2
M  V30 2 1 2 3
M  V30 3 2 3 4
M  V30 4 1 4 5
M  V30 5 2 5 6
M  V30 6 1 6 7
M  V30 7 1 6 8
M  V30 8 2 8 9
M  V30 9 1 9 10
M  V30 10 2 10 11
M  V30 11 1 11 12
M  V30 12 2 12 13
M  V30 13 1 13 14
M  V30 14 1 14 15
M  V30 15 1 15 16
M  V30 16 1 16 17
M  V30 17 2 17 18
M  V30 18 1 18 19
M  V30 19 1 19 20
M  V30 20 1 20 21
M  V30 21 2 21 22
M  V30 22 1 21 23
M  V30 23 1 23 24
M  V30 24 1 24 25
M  V30 25 2 25 26
M  V30 26 1 26 27
M  V30 27 1 27 28
M  V30 28 1 27 29
M  V30 29 1 20 30
M  V30 30 1 30 31
M  V30 31 2 16 32
M  V30 32 1 32 33
M  V30 33 1 9 3
M  V30 34 1 33 10
M  V30 35 2 33 14
M  V30 36 1 31 17
M  V30 37 2 29 24
M  V30 38 1 1 34
M  V30 39 1 1 35
M  V30 40 1 1 36
M  V30 41 1 4 37
M  V30 42 1 5 38
M  V30 43 1 8 39
M  V30 44 1 11 40
M  V30 45 1 12 41
M  V30 46 1 15 42
M  V30 47 1 18 43
M  V30 48 1 19 44
M  V30 49 1 19 45
M  V30 50 1 23 46
M  V30 51 1 25 47
M  V30 52 1 28 48
M  V30 53 1 28 49
M  V30 54 1 28 50
M  V30 55 1 29 51
M  V30 56 1 30 52
M  V30 57 1 30 53
M  V30 58 1 31 54
M  V30 59 1 31 55
M  V30 60 1 32 56
M  V30 END BOND
M  V30 END CTAB
M  END
>  <Dataset>  (918) 
ChEMBL_Kinases

>  <Ligand_Instance>  (918) 
nan

>  <PDB_ID>  (918) 
nan

>  <Standardized_SMILES>  (918) 
COc1ccc(F)cc1-c1ccnc2[nH]c(C3=CCN(C(=O)Nc4cnn(C)c4)CC3)cc12

>  <Name>  (918) 
nan

>  <Pocket>  (918) 
nan

>  <ATP_Site>  (918) 
nan

>  <Peripheral>  (918) 
nan

>  <Num_H_Atoms_ProtBoundConf>  (918) 
nan

>  <Num_Resolved_Atoms>  (918) 
nan

>  <Num_Not_Resolved_Atoms>  (918) 
nan

$$$$
CHEMBL3668493
     RDKit          3D

  0  0  0  0  0  0  0  0  0  0999 V3000
M  V30 BEGIN CTAB
M  V30 COUNTS 55 58 0 0 0
M  V30 BEGIN ATOM
M  V30 1 C 3.189155 1.391486 -3.028268 0
M  V30 2 O 3.134935 1.574274 -1.624564 0
M  V30 3 C 3.926187 0.841226 -0.750854 0
M  V30 4 C 4.807344 -0.106985 -1.234429 0
M  V30 5 C 5.569584 -0.806858 -0.322258 0
M  V30 6 C 5.479885 -0.590758 1.043590 0
M  V30 7 F 6.233135 -1.285424 1.929305 0
M  V30 8 C 4.592847 0.363733 1.525289 0
M  V30 9 C 3.821148 1.072009 0.602900 0
M  V30 10 C 2.878840 2.077654 1.080756 0
M  V30 11 C 3.202102 3.430572 1.246305 0
M  V30 12 C 2.279905 4.350156 1.697723 0
M  V30 13 N 1.014346 3.947760 1.995870 0
M  V30 14 C 0.675540 2.633414 1.842567 0
M  V30 15 N -0.490856 2.002673 2.068131 0
M  V30 16 C -0.342437 0.701397 1.773441 0
M  V30 17 C -1.414491 -0.273022 1.904459 0
M  V30 18 C -1.223515 -1.544907 1.608658 0
M  V30 19 C -2.162124 -2.726669 1.660794 0
M  V30 20 N -3.495451 -2.104509 1.594351 0
M  V30 21 C -3.714338 -1.653534 0.240294 0
M  V30 22 C -3.907989 -2.807246 -0.662938 0
M  V30 23 O -4.048952 -2.213359 -1.795929 0
M  V30 24 N -3.982216 -4.253443 -0.664752 0
M  V30 25 C -3.924724 -5.391742 0.255016 0
M  V30 26 C -4.172179 -4.884320 -1.967579 0
M  V30 27 C -3.642252 -1.105304 2.599528 0
M  V30 28 C -2.768346 0.103946 2.375906 0
M  V30 29 C 0.940818 0.438729 1.340430 0
M  V30 30 C 1.575300 1.686996 1.392576 0
M  V30 31 H 3.054118 0.312358 -3.260254 0
M  V30 32 H 4.188329 1.674728 -3.446571 0
M  V30 33 H 2.373688 1.947552 -3.521848 0
M  V30 34 H 4.893641 -0.291997 -2.294306 0
M  V30 35 H 6.276060 -1.559790 -0.627506 0
M  V30 36 H 4.501353 0.553316 2.586533 0
M  V30 37 H 4.211717 3.735291 1.004886 0
M  V30 38 H 2.551554 5.390446 1.817904 0
M  V30 39 H -1.347807 2.515720 2.424013 0
M  V30 40 H -0.235185 -1.827956 1.266437 0
M  V30 41 H -2.077972 -3.201750 2.645374 0
M  V30 42 H -1.989279 -3.394655 0.817873 0
M  V30 43 H -4.631662 -1.006212 0.285692 0
M  V30 44 H -2.834865 -1.057254 -0.102306 0
M  V30 45 H -3.020680 -5.982898 0.012209 0
M  V30 46 H -4.852016 -5.982828 0.202865 0
M  V30 47 H -3.860024 -5.026989 1.319009 0
M  V30 48 H -5.091207 -5.515617 -2.006629 0
M  V30 49 H -3.316009 -5.537960 -2.184330 0
M  V30 50 H -4.238658 -4.116884 -2.784893 0
M  V30 51 H -4.697067 -0.760047 2.615675 0
M  V30 52 H -3.430890 -1.594181 3.578263 0
M  V30 53 H -3.223421 0.799608 1.647383 0
M  V30 54 H -2.648072 0.620773 3.349937 0
M  V30 55 H 1.358235 -0.501653 1.035519 0
M  V30 END ATOM
M  V30 BEGIN BOND
M  V30 1 1 1 2
M  V30 2 1 2 3
M  V30 3 2 3 4
M  V30 4 1 4 5
M  V30 5 2 5 6
M  V30 6 1 6 7
M  V30 7 1 6 8
M  V30 8 2 8 9
M  V30 9 1 9 10
M  V30 10 2 10 11
M  V30 11 1 11 12
M  V30 12 2 12 13
M  V30 13 1 13 14
M  V30 14 1 14 15
M  V30 15 1 15 16
M  V30 16 1 16 17
M  V30 17 2 17 18
M  V30 18 1 18 19
M  V30 19 1 19 20
M  V30 20 1 20 21
M  V30 21 1 21 22
M  V30 22 2 22 23
M  V30 23 1 22 24
M  V30 24 1 24 25
M  V30 25 1 24 26
M  V30 26 1 20 27
M  V30 27 1 27 28
M  V30 28 2 16 29
M  V30 29 1 29 30
M  V30 30 1 9 3
M  V30 31 1 30 10
M  V30 32 2 30 14
M  V30 33 1 28 17
M  V30 34 1 1 31
M  V30 35 1 1 32
M  V30 36 1 1 33
M  V30 37 1 4 34
M  V30 38 1 5 35
M  V30 39 1 8 36
M  V30 40 1 11 37
M  V30 41 1 12 38
M  V30 42 1 15 39
M  V30 43 1 18 40
M  V30 44 1 19 41
M  V30 45 1 19 42
M  V30 46 1 21 43
M  V30 47 1 21 44
M  V30 48 1 25 45
M  V30 49 1 25 46
M  V30 50 1 25 47
M  V30 51 1 26 48
M  V30 52 1 26 49
M  V30 53 1 26 50
M  V30 54 1 27 51
M  V30 55 1 27 52
M  V30 56 1 28 53
M  V30 57 1 28 54
M  V30 58 1 29 55
M  V30 END BOND
M  V30 END CTAB
M  END
>  <Dataset>  (919) 
ChEMBL_Kinases

>  <Ligand_Instance>  (919) 
nan

>  <PDB_ID>  (919) 
nan

>  <Standardized_SMILES>  (919) 
COc1ccc(F)cc1-c1ccnc2[nH]c(C3=CCN(CC(=O)N(C)C)CC3)cc12

>  <Name>  (919) 
nan

>  <Pocket>  (919) 
nan

>  <ATP_Site>  (919) 
nan

>  <Peripheral>  (919) 
nan

>  <Num_H_Atoms_ProtBoundConf>  (919) 
nan

>  <Num_Resolved_Atoms>  (919) 
nan

>  <Num_Not_Resolved_Atoms>  (919) 
nan

$$$$
CHEMBL3668492
     RDKit          3D

  0  0  0  0  0  0  0  0  0  0999 V3000
M  V30 BEGIN CTAB
M  V30 COUNTS 45 48 0 0 0
M  V30 BEGIN ATOM
M  V30 1 C -0.456488 -5.619575 3.847409 0
M  V30 2 N -0.678321 -4.951255 2.576659 0
M  V30 3 C 0.194686 -5.064822 1.465004 0
M  V30 4 O 1.241364 -5.758818 1.487172 0
M  V30 5 N -0.188702 -4.335341 0.302439 0
M  V30 6 C -1.353933 -3.473840 0.061847 0
M  V30 7 C -0.796301 -2.079816 0.112495 0
M  V30 8 C 0.281566 -1.911729 -0.637180 0
M  V30 9 C 0.889571 -0.583785 -0.646370 0
M  V30 10 C 0.431131 0.507456 0.062589 0
M  V30 11 C 1.260254 1.601936 -0.190299 0
M  V30 12 C 1.216590 2.901357 0.278300 0
M  V30 13 C 0.170040 3.358802 1.214470 0
M  V30 14 C 0.527972 3.193851 2.544905 0
M  V30 15 C -0.367908 3.584426 3.542704 0
M  V30 16 C -1.575035 4.119709 3.136738 0
M  V30 17 C -1.927613 4.282262 1.812547 0
M  V30 18 F -3.118615 4.810307 1.425789 0
M  V30 19 C -1.034859 3.893096 0.809280 0
M  V30 20 F -1.277579 4.007071 -0.506819 0
M  V30 21 C 2.195858 3.783490 -0.158118 0
M  V30 22 C 3.139923 3.274859 -1.034800 0
M  V30 23 N 3.149344 1.995603 -1.471027 0
M  V30 24 C 2.200641 1.117060 -1.056263 0
M  V30 25 N 1.976934 -0.185086 -1.325820 0
M  V30 26 C 0.891126 -3.000883 -1.458413 0
M  V30 27 C 0.623683 -4.364178 -0.918758 0
M  V30 28 H 0.478460 -6.203916 3.837578 0
M  V30 29 H -1.338474 -6.192374 4.145347 0
M  V30 30 H -0.357569 -4.802726 4.620816 0
M  V30 31 H -1.554627 -4.404466 2.641277 0
M  V30 32 H -1.844378 -3.707178 -0.889426 0
M  V30 33 H -2.099592 -3.592372 0.851049 0
M  V30 34 H -1.240703 -1.293566 0.708591 0
M  V30 35 H -0.426038 0.576634 0.726850 0
M  V30 36 H 1.451065 2.784329 2.893090 0
M  V30 37 H -0.192157 3.501321 4.606301 0
M  V30 38 H -2.321515 4.445682 3.868009 0
M  V30 39 H 2.197896 4.804320 0.182844 0
M  V30 40 H 3.890864 3.984123 -1.358456 0
M  V30 41 H 2.525570 -0.818889 -1.948767 0
M  V30 42 H 0.450258 -2.885364 -2.467037 0
M  V30 43 H 1.987083 -2.825929 -1.569256 0
M  V30 44 H 0.024567 -4.935854 -1.654567 0
M  V30 45 H 1.582796 -4.908936 -0.750576 0
M  V30 END ATOM
M  V30 BEGIN BOND
M  V30 1 1 1 2
M  V30 2 1 2 3
M  V30 3 2 3 4
M  V30 4 1 3 5
M  V30 5 1 5 6
M  V30 6 1 6 7
M  V30 7 2 7 8
M  V30 8 1 8 9
M  V30 9 2 9 10
M  V30 10 1 10 11
M  V30 11 2 11 12
M  V30 12 1 12 13
M  V30 13 2 13 14
M  V30 14 1 14 15
M  V30 15 2 15 16
M  V30 16 1 16 17
M  V30 17 1 17 18
M  V30 18 2 17 19
M  V30 19 1 19 20
M  V30 20 1 12 21
M  V30 21 2 21 22
M  V30 22 1 22 23
M  V30 23 2 23 24
M  V30 24 1 24 25
M  V30 25 1 8 26
M  V30 26 1 26 27
M  V30 27 1 27 5
M  V30 28 1 25 9
M  V30 29 1 24 11
M  V30 30 1 19 13
M  V30 31 1 1 28
M  V30 32 1 1 29
M  V30 33 1 1 30
M  V30 34 1 2 31
M  V30 35 1 6 32
M  V30 36 1 6 33
M  V30 37 1 7 34
M  V30 38 1 10 35
M  V30 39 1 14 36
M  V30 40 1 15 37
M  V30 41 1 16 38
M  V30 42 1 21 39
M  V30 43 1 22 40
M  V30 44 1 25 41
M  V30 45 1 26 42
M  V30 46 1 26 43
M  V30 47 1 27 44
M  V30 48 1 27 45
M  V30 END BOND
M  V30 END CTAB
M  END
>  <Dataset>  (920) 
ChEMBL_Kinases

>  <Ligand_Instance>  (920) 
nan

>  <PDB_ID>  (920) 
nan

>  <Standardized_SMILES>  (920) 
CNC(=O)N1CC=C(c2cc3c(-c4cccc(F)c4F)ccnc3[nH]2)CC1

>  <Name>  (920) 
nan

>  <Pocket>  (920) 
nan

>  <ATP_Site>  (920) 
nan

>  <Peripheral>  (920) 
nan

>  <Num_H_Atoms_ProtBoundConf>  (920) 
nan

>  <Num_Resolved_Atoms>  (920) 
nan

>  <Num_Not_Resolved_Atoms>  (920) 
nan

$$$$
CHEMBL3668491
     RDKit          3D

  0  0  0  0  0  0  0  0  0  0999 V3000
M  V30 BEGIN CTAB
M  V30 COUNTS 48 51 0 0 0
M  V30 BEGIN ATOM
M  V30 1 C 3.131936 0.147185 -3.637922 0
M  V30 2 O 2.762802 0.769083 -2.404295 0
M  V30 3 C 3.405242 0.551338 -1.208650 0
M  V30 4 C 4.487680 -0.284085 -0.995970 0
M  V30 5 C 5.057006 -0.429698 0.253659 0
M  V30 6 C 4.543894 0.270633 1.325952 0
M  V30 7 F 5.113171 0.121866 2.559191 0
M  V30 8 C 3.463229 1.111540 1.138186 0
M  V30 9 C 2.895855 1.250545 -0.125071 0
M  V30 10 C 1.757734 2.165522 -0.165151 0
M  V30 11 C 1.758681 3.531447 -0.434204 0
M  V30 12 C 0.569598 4.222684 -0.424290 0
M  V30 13 N -0.619951 3.661980 -0.168323 0
M  V30 14 C -0.686662 2.348286 0.098177 0
M  V30 15 N -1.713601 1.522621 0.391133 0
M  V30 16 C -1.265508 0.268147 0.585685 0
M  V30 17 C -2.011179 -0.941548 0.919895 0
M  V30 18 C -1.385048 -2.095214 1.067271 0
M  V30 19 C -2.109365 -3.352852 1.407941 0
M  V30 20 N -3.208341 -2.978121 2.278920 0
M  V30 21 C -3.456312 -3.425829 3.625080 0
M  V30 22 O -4.465078 -3.056881 4.317702 0
M  V30 23 C -2.540501 -4.363322 4.308312 0
M  V30 24 C -3.296393 -5.540730 4.767917 0
M  V30 25 N -3.901249 -6.485469 5.116320 0
M  V30 26 C -4.131709 -2.039402 1.668770 0
M  V30 27 C -3.474600 -0.834863 1.091719 0
M  V30 28 C 0.099745 0.336213 0.401590 0
M  V30 29 C 0.502940 1.615097 0.096619 0
M  V30 30 H 3.170930 -0.966064 -3.482101 0
M  V30 31 H 2.313711 0.402659 -4.348199 0
M  V30 32 H 4.074187 0.521048 -4.050116 0
M  V30 33 H 4.836776 -0.802472 -1.883368 0
M  V30 34 H 5.901312 -1.104385 0.348943 0
M  V30 35 H 3.098458 1.644459 2.033379 0
M  V30 36 H 2.745658 3.926946 -0.631745 0
M  V30 37 H 0.619119 5.285505 -0.641543 0
M  V30 38 H -2.699314 1.821750 0.454521 0
M  V30 39 H -0.314703 -2.162726 0.942343 0
M  V30 40 H -2.562829 -3.738503 0.450175 0
M  V30 41 H -1.420134 -4.084721 1.831588 0
M  V30 42 H -2.161712 -3.888350 5.267945 0
M  V30 43 H -1.650478 -4.646542 3.752879 0
M  V30 44 H -4.919973 -1.767147 2.404491 0
M  V30 45 H -4.623720 -2.611387 0.830814 0
M  V30 46 H -3.966136 -0.600447 0.108792 0
M  V30 47 H -3.739698 0.034980 1.763777 0
M  V30 48 H 0.758554 -0.497990 0.485988 0
M  V30 END ATOM
M  V30 BEGIN BOND
M  V30 1 1 1 2
M  V30 2 1 2 3
M  V30 3 2 3 4
M  V30 4 1 4 5
M  V30 5 2 5 6
M  V30 6 1 6 7
M  V30 7 1 6 8
M  V30 8 2 8 9
M  V30 9 1 9 10
M  V30 10 2 10 11
M  V30 11 1 11 12
M  V30 12 2 12 13
M  V30 13 1 13 14
M  V30 14 1 14 15
M  V30 15 1 15 16
M  V30 16 1 16 17
M  V30 17 2 17 18
M  V30 18 1 18 19
M  V30 19 1 19 20
M  V30 20 1 20 21
M  V30 21 2 21 22
M  V30 22 1 21 23
M  V30 23 1 23 24
M  V30 24 3 24 25
M  V30 25 1 20 26
M  V30 26 1 26 27
M  V30 27 2 16 28
M  V30 28 1 28 29
M  V30 29 1 9 3
M  V30 30 1 29 10
M  V30 31 2 29 14
M  V30 32 1 27 17
M  V30 33 1 1 30
M  V30 34 1 1 31
M  V30 35 1 1 32
M  V30 36 1 4 33
M  V30 37 1 5 34
M  V30 38 1 8 35
M  V30 39 1 11 36
M  V30 40 1 12 37
M  V30 41 1 15 38
M  V30 42 1 18 39
M  V30 43 1 19 40
M  V30 44 1 19 41
M  V30 45 1 23 42
M  V30 46 1 23 43
M  V30 47 1 26 44
M  V30 48 1 26 45
M  V30 49 1 27 46
M  V30 50 1 27 47
M  V30 51 1 28 48
M  V30 END BOND
M  V30 END CTAB
M  END
>  <Dataset>  (921) 
ChEMBL_Kinases

>  <Ligand_Instance>  (921) 
nan

>  <PDB_ID>  (921) 
nan

>  <Standardized_SMILES>  (921) 
COc1ccc(F)cc1-c1ccnc2[nH]c(C3=CCN(C(=O)CC#N)CC3)cc12

>  <Name>  (921) 
nan

>  <Pocket>  (921) 
nan

>  <ATP_Site>  (921) 
nan

>  <Peripheral>  (921) 
nan

>  <Num_H_Atoms_ProtBoundConf>  (921) 
nan

>  <Num_Resolved_Atoms>  (921) 
nan

>  <Num_Not_Resolved_Atoms>  (921) 
nan

$$$$
CHEMBL3668490
     RDKit          3D

  0  0  0  0  0  0  0  0  0  0999 V3000
M  V30 BEGIN CTAB
M  V30 COUNTS 44 47 0 0 0
M  V30 BEGIN ATOM
M  V30 1 C -1.028210 -3.881622 1.651398 0
M  V30 2 S -0.323843 -5.189270 0.689893 0
M  V30 3 O -1.416749 -6.185357 0.338663 0
M  V30 4 O 0.692600 -5.861513 1.574892 0
M  V30 5 N 0.379223 -4.661776 -0.781083 0
M  V30 6 C -0.542202 -4.044679 -1.688070 0
M  V30 7 C -0.991476 -2.752577 -1.118110 0
M  V30 8 C -0.128888 -1.868496 -0.649862 0
M  V30 9 C -0.521905 -0.582469 -0.078870 0
M  V30 10 C 0.351466 0.363636 0.418943 0
M  V30 11 C -0.461768 1.395149 0.843622 0
M  V30 12 C -0.132691 2.607062 1.428490 0
M  V30 13 C 1.281988 2.909280 1.663456 0
M  V30 14 C 2.110355 3.553007 0.752720 0
M  V30 15 C 3.444043 3.786657 1.089390 0
M  V30 16 C 3.974725 3.392258 2.317973 0
M  V30 17 C 3.148234 2.753094 3.219672 0
M  V30 18 F 3.674955 2.374528 4.410102 0
M  V30 19 C 1.818928 2.522460 2.879055 0
M  V30 20 F 1.033585 1.885321 3.802792 0
M  V30 21 C -1.129358 3.485267 1.769703 0
M  V30 22 C -2.430751 3.108274 1.507575 0
M  V30 23 N -2.744478 1.921110 0.935231 0
M  V30 24 C -1.778177 1.034540 0.588101 0
M  V30 25 N -1.805082 -0.200103 0.012893 0
M  V30 26 C 1.265881 -2.342600 -0.777584 0
M  V30 27 C 1.468110 -3.786665 -0.493769 0
M  V30 28 H -0.264513 -3.133018 1.943882 0
M  V30 29 H -1.852130 -3.372310 1.130313 0
M  V30 30 H -1.427107 -4.306563 2.619366 0
M  V30 31 H -1.407821 -4.703522 -1.916464 0
M  V30 32 H 0.049436 -3.834826 -2.626195 0
M  V30 33 H -2.068276 -2.523989 -1.087525 0
M  V30 34 H 1.420051 0.287135 0.454880 0
M  V30 35 H 1.675560 3.845737 -0.185567 0
M  V30 36 H 4.043792 4.292258 0.341209 0
M  V30 37 H 5.009863 3.591871 2.538241 0
M  V30 38 H -0.871626 4.436059 2.228524 0
M  V30 39 H -3.214208 3.797174 1.775121 0
M  V30 40 H -2.655953 -0.720540 -0.285728 0
M  V30 41 H 1.941228 -1.778539 -0.077552 0
M  V30 42 H 1.688040 -2.115429 -1.787310 0
M  V30 43 H 1.775591 -3.959170 0.579652 0
M  V30 44 H 2.347448 -4.207663 -1.074476 0
M  V30 END ATOM
M  V30 BEGIN BOND
M  V30 1 1 1 2
M  V30 2 2 2 3
M  V30 3 2 2 4
M  V30 4 1 2 5
M  V30 5 1 5 6
M  V30 6 1 6 7
M  V30 7 2 7 8
M  V30 8 1 8 9
M  V30 9 2 9 10
M  V30 10 1 10 11
M  V30 11 2 11 12
M  V30 12 1 12 13
M  V30 13 2 13 14
M  V30 14 1 14 15
M  V30 15 2 15 16
M  V30 16 1 16 17
M  V30 17 1 17 18
M  V30 18 2 17 19
M  V30 19 1 19 20
M  V30 20 1 12 21
M  V30 21 2 21 22
M  V30 22 1 22 23
M  V30 23 2 23 24
M  V30 24 1 24 25
M  V30 25 1 8 26
M  V30 26 1 26 27
M  V30 27 1 27 5
M  V30 28 1 25 9
M  V30 29 1 24 11
M  V30 30 1 19 13
M  V30 31 1 1 28
M  V30 32 1 1 29
M  V30 33 1 1 30
M  V30 34 1 6 31
M  V30 35 1 6 32
M  V30 36 1 7 33
M  V30 37 1 10 34
M  V30 38 1 14 35
M  V30 39 1 15 36
M  V30 40 1 16 37
M  V30 41 1 21 38
M  V30 42 1 22 39
M  V30 43 1 25 40
M  V30 44 1 26 41
M  V30 45 1 26 42
M  V30 46 1 27 43
M  V30 47 1 27 44
M  V30 END BOND
M  V30 END CTAB
M  END
>  <Dataset>  (922) 
ChEMBL_Kinases

>  <Ligand_Instance>  (922) 
nan

>  <PDB_ID>  (922) 
nan

>  <Standardized_SMILES>  (922) 
CS(=O)(=O)N1CC=C(c2cc3c(-c4cccc(F)c4F)ccnc3[nH]2)CC1

>  <Name>  (922) 
nan

>  <Pocket>  (922) 
nan

>  <ATP_Site>  (922) 
nan

>  <Peripheral>  (922) 
nan

>  <Num_H_Atoms_ProtBoundConf>  (922) 
nan

>  <Num_Resolved_Atoms>  (922) 
nan

>  <Num_Not_Resolved_Atoms>  (922) 
nan

$$$$
CHEMBL3668489
     RDKit          3D

  0  0  0  0  0  0  0  0  0  0999 V3000
M  V30 BEGIN CTAB
M  V30 COUNTS 46 49 0 0 0
M  V30 BEGIN ATOM
M  V30 1 C 4.169075 -0.095047 2.643620 0
M  V30 2 O 3.540220 0.059382 1.399830 0
M  V30 3 C 3.595482 -0.972692 0.464672 0
M  V30 4 C 4.263004 -2.175945 0.719342 0
M  V30 5 C 4.320726 -3.201457 -0.203542 0
M  V30 6 C 3.692188 -3.020295 -1.419414 0
M  V30 7 F 3.747633 -4.034268 -2.335810 0
M  V30 8 C 3.021867 -1.834895 -1.698573 0
M  V30 9 C 2.972025 -0.816854 -0.765764 0
M  V30 10 C 2.284344 0.433696 -1.016854 0
M  V30 11 C 2.892506 1.535800 -1.583840 0
M  V30 12 C 2.149006 2.682374 -1.781936 0
M  V30 13 N 0.850985 2.820988 -1.461963 0
M  V30 14 C 0.243137 1.743327 -0.903797 0
M  V30 15 N -1.007584 1.540101 -0.475106 0
M  V30 16 C -1.158605 0.290686 0.014427 0
M  V30 17 C -2.338835 -0.365538 0.584990 0
M  V30 18 C -2.313762 -1.615627 1.024983 0
M  V30 19 C -3.620711 -2.079431 1.562752 0
M  V30 20 C -4.121701 -1.084730 2.606540 0
M  V30 21 C -3.330098 -1.294946 3.857403 0
M  V30 22 O -3.888165 -1.621853 4.955676 0
M  V30 23 O -2.445838 -1.445504 4.903409 0
M  V30 24 C -4.044542 0.330962 2.142251 0
M  V30 25 C -3.624131 0.377848 0.684680 0
M  V30 26 C 0.072251 -0.346035 -0.108405 0
M  V30 27 C 0.937344 0.572481 -0.682969 0
M  V30 28 H 5.267756 -0.071486 2.559024 0
M  V30 29 H 3.887019 0.803492 3.262282 0
M  V30 30 H 3.793830 -0.974237 3.220185 0
M  V30 31 H 4.722693 -2.224138 1.695132 0
M  V30 32 H 4.845334 -4.104309 0.040604 0
M  V30 33 H 2.524543 -1.693513 -2.662603 0
M  V30 34 H 3.947444 1.482634 -1.865102 0
M  V30 35 H 2.669941 3.516861 -2.228582 0
M  V30 36 H -1.800344 2.227278 -0.495065 0
M  V30 37 H -1.386404 -2.174820 0.961064 0
M  V30 38 H -4.370079 -2.240752 0.785844 0
M  V30 39 H -3.507649 -3.043437 2.131519 0
M  V30 40 H -5.171526 -1.330503 2.851801 0
M  V30 41 H -1.450751 -1.258934 4.816898 0
M  V30 42 H -5.001271 0.882711 2.289948 0
M  V30 43 H -3.297976 0.884627 2.773126 0
M  V30 44 H -3.527327 1.413255 0.319564 0
M  V30 45 H -4.434589 -0.159744 0.120691 0
M  V30 46 H 0.319831 -1.363979 0.184974 0
M  V30 END ATOM
M  V30 BEGIN BOND
M  V30 1 1 1 2
M  V30 2 1 2 3
M  V30 3 2 3 4
M  V30 4 1 4 5
M  V30 5 2 5 6
M  V30 6 1 6 7
M  V30 7 1 6 8
M  V30 8 2 8 9
M  V30 9 1 9 10
M  V30 10 2 10 11
M  V30 11 1 11 12
M  V30 12 2 12 13
M  V30 13 1 13 14
M  V30 14 1 14 15
M  V30 15 1 15 16
M  V30 16 1 16 17
M  V30 17 2 17 18
M  V30 18 1 18 19
M  V30 19 1 19 20
M  V30 20 1 20 21
M  V30 21 2 21 22
M  V30 22 1 21 23
M  V30 23 1 20 24
M  V30 24 1 24 25
M  V30 25 2 16 26
M  V30 26 1 26 27
M  V30 27 1 9 3
M  V30 28 1 27 10
M  V30 29 2 27 14
M  V30 30 1 25 17
M  V30 31 1 1 28
M  V30 32 1 1 29
M  V30 33 1 1 30
M  V30 34 1 4 31
M  V30 35 1 5 32
M  V30 36 1 8 33
M  V30 37 1 11 34
M  V30 38 1 12 35
M  V30 39 1 15 36
M  V30 40 1 18 37
M  V30 41 1 19 38
M  V30 42 1 19 39
M  V30 43 1 20 40
M  V30 44 1 23 41
M  V30 45 1 24 42
M  V30 46 1 24 43
M  V30 47 1 25 44
M  V30 48 1 25 45
M  V30 49 1 26 46
M  V30 END BOND
M  V30 END CTAB
M  END
>  <Dataset>  (923) 
ChEMBL_Kinases

>  <Ligand_Instance>  (923) 
nan

>  <PDB_ID>  (923) 
nan

>  <Standardized_SMILES>  (923) 
COc1ccc(F)cc1-c1ccnc2[nH]c(C3=CCC(C(=O)O)CC3)cc12

>  <Name>  (923) 
nan

>  <Pocket>  (923) 
nan

>  <ATP_Site>  (923) 
nan

>  <Peripheral>  (923) 
nan

>  <Num_H_Atoms_ProtBoundConf>  (923) 
nan

>  <Num_Resolved_Atoms>  (923) 
nan

>  <Num_Not_Resolved_Atoms>  (923) 
nan

$$$$
CHEMBL3668488
     RDKit          3D

  0  0  0  0  0  0  0  0  0  0999 V3000
M  V30 BEGIN CTAB
M  V30 COUNTS 62 65 0 0 0
M  V30 BEGIN ATOM
M  V30 1 C 3.613149 -1.851032 -1.735115 0
M  V30 2 O 3.275473 -0.528949 -1.366067 0
M  V30 3 C 3.695072 -0.086658 -0.124076 0
M  V30 4 C 4.412527 -0.751883 0.841225 0
M  V30 5 C 4.768041 -0.189315 2.044924 0
M  V30 6 C 4.409891 1.106654 2.346538 0
M  V30 7 F 4.796400 1.589416 3.551828 0
M  V30 8 C 3.689298 1.809031 1.405391 0
M  V30 9 C 3.341077 1.229967 0.203578 0
M  V30 10 C 2.567410 2.136248 -0.673838 0
M  V30 11 C 3.059062 3.010410 -1.626488 0
M  V30 12 C 2.135884 3.762753 -2.330257 0
M  V30 13 N 0.826112 3.664748 -2.115441 0
M  V30 14 C 0.327886 2.827489 -1.200694 0
M  V30 15 N -0.940883 2.586431 -0.839183 0
M  V30 16 C -0.947574 1.653476 0.133492 0
M  V30 17 C -2.054396 1.045547 0.867649 0
M  V30 18 C -1.881306 0.121227 1.814948 0
M  V30 19 C -3.166865 -0.338540 2.411670 0
M  V30 20 N -4.153657 -0.711581 1.425570 0
M  V30 21 S -4.193994 -2.397522 1.269174 0
M  V30 22 O -5.331960 -2.685749 0.289930 0
M  V30 23 O -4.744151 -3.015346 2.552314 0
M  V30 24 N -2.781949 -3.157382 0.745515 0
M  V30 25 C -2.652277 -3.321823 -0.669560 0
M  V30 26 O -3.592723 -2.897423 -1.412866 0
M  V30 27 O -2.343768 -3.570881 -1.998436 0
M  V30 28 C -1.637053 -3.705015 1.371738 0
M  V30 29 C -1.521058 -3.679098 2.837113 0
M  V30 30 C -0.390985 -3.091148 0.717375 0
M  V30 31 C -1.597492 -5.185734 0.962459 0
M  V30 32 C -4.127553 0.062841 0.241908 0
M  V30 33 C -3.477218 1.408354 0.616718 0
M  V30 34 C 0.368531 1.313624 0.373019 0
M  V30 35 C 1.204096 2.035556 -0.451595 0
M  V30 36 H 4.632946 -2.103324 -1.397307 0
M  V30 37 H 3.575935 -1.954759 -2.856680 0
M  V30 38 H 2.852231 -2.593269 -1.383682 0
M  V30 39 H 4.685029 -1.765909 0.591507 0
M  V30 40 H 5.332493 -0.783446 2.747198 0
M  V30 41 H 3.434164 2.817573 1.689548 0
M  V30 42 H 4.130240 2.998858 -1.707716 0
M  V30 43 H 2.597128 4.434463 -3.070139 0
M  V30 44 H -1.849920 2.973347 -1.163608 0
M  V30 45 H -0.890892 -0.202555 2.062054 0
M  V30 46 H -2.941088 -1.184666 3.099658 0
M  V30 47 H -3.599647 0.447407 3.078866 0
M  V30 48 H -1.821439 -4.351390 -2.326263 0
M  V30 49 H -0.884436 -2.787108 3.109808 0
M  V30 50 H -2.450367 -3.568177 3.408810 0
M  V30 51 H -0.996354 -4.555420 3.271673 0
M  V30 52 H 0.334107 -3.845609 0.391056 0
M  V30 53 H -0.666902 -2.472691 -0.178417 0
M  V30 54 H 0.030744 -2.381558 1.469083 0
M  V30 55 H -0.564045 -5.568339 1.075266 0
M  V30 56 H -2.034166 -5.358611 -0.029390 0
M  V30 57 H -2.211834 -5.726035 1.736884 0
M  V30 58 H -3.477638 -0.297446 -0.575406 0
M  V30 59 H -5.149633 0.341760 -0.083115 0
M  V30 60 H -3.981439 1.866283 1.473828 0
M  V30 61 H -3.561436 2.008675 -0.324762 0
M  V30 62 H 0.721988 0.591012 1.094491 0
M  V30 END ATOM
M  V30 BEGIN BOND
M  V30 1 1 1 2
M  V30 2 1 2 3
M  V30 3 2 3 4
M  V30 4 1 4 5
M  V30 5 2 5 6
M  V30 6 1 6 7
M  V30 7 1 6 8
M  V30 8 2 8 9
M  V30 9 1 9 10
M  V30 10 2 10 11
M  V30 11 1 11 12
M  V30 12 2 12 13
M  V30 13 1 13 14
M  V30 14 1 14 15
M  V30 15 1 15 16
M  V30 16 1 16 17
M  V30 17 2 17 18
M  V30 18 1 18 19
M  V30 19 1 19 20
M  V30 20 1 20 21
M  V30 21 2 21 22
M  V30 22 2 21 23
M  V30 23 1 21 24
M  V30 24 1 24 25
M  V30 25 2 25 26
M  V30 26 1 25 27
M  V30 27 1 24 28
M  V30 28 1 28 29
M  V30 29 1 28 30
M  V30 30 1 28 31
M  V30 31 1 20 32
M  V30 32 1 32 33
M  V30 33 2 16 34
M  V30 34 1 34 35
M  V30 35 1 9 3
M  V30 36 1 35 10
M  V30 37 2 35 14
M  V30 38 1 33 17
M  V30 39 1 1 36
M  V30 40 1 1 37
M  V30 41 1 1 38
M  V30 42 1 4 39
M  V30 43 1 5 40
M  V30 44 1 8 41
M  V30 45 1 11 42
M  V30 46 1 12 43
M  V30 47 1 15 44
M  V30 48 1 18 45
M  V30 49 1 19 46
M  V30 50 1 19 47
M  V30 51 1 27 48
M  V30 52 1 29 49
M  V30 53 1 29 50
M  V30 54 1 29 51
M  V30 55 1 30 52
M  V30 56 1 30 53
M  V30 57 1 30 54
M  V30 58 1 31 55
M  V30 59 1 31 56
M  V30 60 1 31 57
M  V30 61 1 32 58
M  V30 62 1 32 59
M  V30 63 1 33 60
M  V30 64 1 33 61
M  V30 65 1 34 62
M  V30 END BOND
M  V30 END CTAB
M  END
>  <Dataset>  (924) 
ChEMBL_Kinases

>  <Ligand_Instance>  (924) 
nan

>  <PDB_ID>  (924) 
nan

>  <Standardized_SMILES>  (924) 
COc1ccc(F)cc1-c1ccnc2[nH]c(C3=CCN(S(=O)(=O)N(C(=O)O)C(C)(C)C)CC3)cc12

>  <Name>  (924) 
nan

>  <Pocket>  (924) 
nan

>  <ATP_Site>  (924) 
nan

>  <Peripheral>  (924) 
nan

>  <Num_H_Atoms_ProtBoundConf>  (924) 
nan

>  <Num_Resolved_Atoms>  (924) 
nan

>  <Num_Not_Resolved_Atoms>  (924) 
nan

$$$$
CHEMBL3668487
     RDKit          3D

  0  0  0  0  0  0  0  0  0  0999 V3000
M  V30 BEGIN CTAB
M  V30 COUNTS 62 66 0 0 0
M  V30 BEGIN ATOM
M  V30 1 C 4.808901 -1.079838 -0.147255 0
M  V30 2 O 4.292573 0.153299 0.323263 0
M  V30 3 C 4.120570 0.261151 1.698000 0
M  V30 4 C 4.427249 -0.763380 2.592931 0
M  V30 5 C 4.241609 -0.617030 3.956297 0
M  V30 6 C 3.738338 0.570306 4.473510 0
M  V30 7 F 3.567039 0.685991 5.809223 0
M  V30 8 C 3.419828 1.614946 3.622406 0
M  V30 9 C 3.615929 1.442764 2.253264 0
M  V30 10 C 3.295816 2.519309 1.292633 0
M  V30 11 C 4.191290 3.507370 0.875425 0
M  V30 12 C 3.764553 4.458081 -0.029279 0
M  V30 13 N 2.509854 4.457490 -0.518915 0
M  V30 14 C 1.625476 3.510593 -0.129332 0
M  V30 15 N 0.358281 3.304680 -0.464299 0
M  V30 16 C -0.163757 2.216706 0.176404 0
M  V30 17 C -1.527115 1.639907 0.091565 0
M  V30 18 C -1.748799 0.567783 0.838765 0
M  V30 19 C -3.139109 0.020737 0.719848 0
M  V30 20 N -3.430995 0.100518 -0.699815 0
M  V30 21 C -2.553726 -0.714077 -1.474529 0
M  V30 22 C -2.655551 -2.128759 -1.100231 0
M  V30 23 C -1.936809 -2.822781 -0.162727 0
M  V30 24 C -2.135181 -4.162980 0.095201 0
M  V30 25 C -3.097337 -4.881847 -0.603988 0
M  V30 26 N -3.187505 -6.250878 -0.230287 0
M  V30 27 C -4.015442 -6.821670 0.788034 0
M  V30 28 C -3.863566 -8.285957 0.916473 0
M  V30 29 O -4.739072 -6.018996 1.416537 0
M  V30 30 C -3.834802 -4.207722 -1.553248 0
M  V30 31 C -3.612499 -2.885168 -1.781762 0
M  V30 32 C -3.583803 1.439578 -1.166585 0
M  V30 33 C -2.441456 2.366885 -0.830240 0
M  V30 34 C 0.908070 1.756997 0.951744 0
M  V30 35 C 2.017046 2.544765 0.773289 0
M  V30 36 H 5.744007 -1.290132 0.406230 0
M  V30 37 H 4.118608 -1.932516 0.071973 0
M  V30 38 H 5.066635 -1.033017 -1.224311 0
M  V30 39 H 4.820579 -1.694632 2.201028 0
M  V30 40 H 4.501897 -1.460361 4.611336 0
M  V30 41 H 3.025712 2.551746 3.997265 0
M  V30 42 H 5.184869 3.455925 1.303540 0
M  V30 43 H 4.512757 5.190702 -0.305681 0
M  V30 44 H -0.196024 3.875703 -1.124301 0
M  V30 45 H -0.990692 0.157599 1.454741 0
M  V30 46 H -3.163939 -1.038750 1.009307 0
M  V30 47 H -3.859279 0.635447 1.297423 0
M  V30 48 H -2.839308 -0.577806 -2.538408 0
M  V30 49 H -1.513121 -0.343929 -1.370718 0
M  V30 50 H -1.189166 -2.235255 0.369572 0
M  V30 51 H -1.505016 -4.611571 0.863268 0
M  V30 52 H -2.516250 -6.764646 -0.859288 0
M  V30 53 H -2.783308 -8.594358 0.886762 0
M  V30 54 H -4.221600 -8.634332 1.923425 0
M  V30 55 H -4.421218 -8.842159 0.151395 0
M  V30 56 H -4.562762 -4.809154 -2.062915 0
M  V30 57 H -4.256512 -2.467735 -2.552714 0
M  V30 58 H -4.568337 1.888169 -0.911812 0
M  V30 59 H -3.603570 1.375062 -2.294255 0
M  V30 60 H -2.816179 3.265904 -0.265737 0
M  V30 61 H -1.902352 2.706778 -1.733285 0
M  V30 62 H 0.896491 0.906304 1.607547 0
M  V30 END ATOM
M  V30 BEGIN BOND
M  V30 1 1 1 2
M  V30 2 1 2 3
M  V30 3 2 3 4
M  V30 4 1 4 5
M  V30 5 2 5 6
M  V30 6 1 6 7
M  V30 7 1 6 8
M  V30 8 2 8 9
M  V30 9 1 9 10
M  V30 10 2 10 11
M  V30 11 1 11 12
M  V30 12 2 12 13
M  V30 13 1 13 14
M  V30 14 1 14 15
M  V30 15 1 15 16
M  V30 16 1 16 17
M  V30 17 2 17 18
M  V30 18 1 18 19
M  V30 19 1 19 20
M  V30 20 1 20 21
M  V30 21 1 21 22
M  V30 22 2 22 23
M  V30 23 1 23 24
M  V30 24 2 24 25
M  V30 25 1 25 26
M  V30 26 1 26 27
M  V30 27 1 27 28
M  V30 28 2 27 29
M  V30 29 1 25 30
M  V30 30 2 30 31
M  V30 31 1 20 32
M  V30 32 1 32 33
M  V30 33 2 16 34
M  V30 34 1 34 35
M  V30 35 1 9 3
M  V30 36 1 35 10
M  V30 37 2 35 14
M  V30 38 1 33 17
M  V30 39 1 31 22
M  V30 40 1 1 36
M  V30 41 1 1 37
M  V30 42 1 1 38
M  V30 43 1 4 39
M  V30 44 1 5 40
M  V30 45 1 8 41
M  V30 46 1 11 42
M  V30 47 1 12 43
M  V30 48 1 15 44
M  V30 49 1 18 45
M  V30 50 1 19 46
M  V30 51 1 19 47
M  V30 52 1 21 48
M  V30 53 1 21 49
M  V30 54 1 23 50
M  V30 55 1 24 51
M  V30 56 1 26 52
M  V30 57 1 28 53
M  V30 58 1 28 54
M  V30 59 1 28 55
M  V30 60 1 30 56
M  V30 61 1 31 57
M  V30 62 1 32 58
M  V30 63 1 32 59
M  V30 64 1 33 60
M  V30 65 1 33 61
M  V30 66 1 34 62
M  V30 END BOND
M  V30 END CTAB
M  END
>  <Dataset>  (925) 
ChEMBL_Kinases

>  <Ligand_Instance>  (925) 
nan

>  <PDB_ID>  (925) 
nan

>  <Standardized_SMILES>  (925) 
COc1ccc(F)cc1-c1ccnc2[nH]c(C3=CCN(Cc4ccc(NC(C)=O)cc4)CC3)cc12

>  <Name>  (925) 
nan

>  <Pocket>  (925) 
nan

>  <ATP_Site>  (925) 
nan

>  <Peripheral>  (925) 
nan

>  <Num_H_Atoms_ProtBoundConf>  (925) 
nan

>  <Num_Resolved_Atoms>  (925) 
nan

>  <Num_Not_Resolved_Atoms>  (925) 
nan

$$$$
CHEMBL3668486
     RDKit          3D

  0  0  0  0  0  0  0  0  0  0999 V3000
M  V30 BEGIN CTAB
M  V30 COUNTS 47 50 0 0 0
M  V30 BEGIN ATOM
M  V30 1 C 3.836854 -2.792859 1.244663 0
M  V30 2 O 3.331354 -1.464251 1.307225 0
M  V30 3 C 3.491086 -0.577817 0.258447 0
M  V30 4 C 4.149841 -0.982271 -0.868420 0
M  V30 5 C 4.321005 -0.121899 -1.921748 0
M  V30 6 C 3.852767 1.164748 -1.907860 0
M  V30 7 F 3.986863 2.075783 -2.919768 0
M  V30 8 C 3.184140 1.584357 -0.771271 0
M  V30 9 C 3.002625 0.731924 0.298508 0
M  V30 10 C 2.307764 1.103390 1.530539 0
M  V30 11 C 3.046089 1.645997 2.559537 0
M  V30 12 C 2.391653 2.001823 3.734841 0
M  V30 13 N 1.061806 1.812796 3.847881 0
M  V30 14 C 0.335081 1.287310 2.856492 0
M  V30 15 N -0.985604 1.007770 2.739699 0
M  V30 16 C -1.197431 0.481336 1.519598 0
M  V30 17 C -2.473088 0.035303 0.967727 0
M  V30 18 C -2.616306 -0.475649 -0.243826 0
M  V30 19 C -4.045716 -0.828689 -0.495760 0
M  V30 20 N -4.411170 -1.806866 0.476739 0
M  V30 21 S -3.568848 -3.267533 0.382120 0
M  V30 22 N -1.890897 -2.964764 0.637843 0
M  V30 23 O -4.098262 -4.255640 1.386090 0
M  V30 24 O -3.732169 -3.828500 -1.003464 0
M  V30 25 C -4.501368 -1.198527 1.760779 0
M  V30 26 C -3.751812 0.113797 1.722109 0
M  V30 27 C -0.021926 0.400101 0.800227 0
M  V30 28 C 0.937948 0.917809 1.669745 0
M  V30 29 H 3.878936 -3.189928 2.266024 0
M  V30 30 H 4.852778 -2.828121 0.825981 0
M  V30 31 H 3.141256 -3.463483 0.667596 0
M  V30 32 H 4.571639 -1.976473 -1.010779 0
M  V30 33 H 4.838496 -0.407887 -2.831984 0
M  V30 34 H 2.787122 2.584485 -0.687966 0
M  V30 35 H 4.109146 1.818759 2.523212 0
M  V30 36 H 2.836587 2.429191 4.605358 0
M  V30 37 H -1.718406 1.177280 3.484665 0
M  V30 38 H -1.731704 -0.573328 -0.878546 0
M  V30 39 H -4.690242 0.051234 -0.523662 0
M  V30 40 H -4.030771 -1.368587 -1.488832 0
M  V30 41 H -1.439661 -3.600806 1.304753 0
M  V30 42 H -1.430881 -2.875164 -0.287358 0
M  V30 43 H -4.096921 -1.868381 2.549280 0
M  V30 44 H -5.559877 -0.943102 2.043134 0
M  V30 45 H -4.387890 0.957000 1.386268 0
M  V30 46 H -3.452146 0.297153 2.796043 0
M  V30 47 H 0.170348 0.036905 -0.190286 0
M  V30 END ATOM
M  V30 BEGIN BOND
M  V30 1 1 1 2
M  V30 2 1 2 3
M  V30 3 2 3 4
M  V30 4 1 4 5
M  V30 5 2 5 6
M  V30 6 1 6 7
M  V30 7 1 6 8
M  V30 8 2 8 9
M  V30 9 1 9 10
M  V30 10 2 10 11
M  V30 11 1 11 12
M  V30 12 2 12 13
M  V30 13 1 13 14
M  V30 14 1 14 15
M  V30 15 1 15 16
M  V30 16 1 16 17
M  V30 17 2 17 18
M  V30 18 1 18 19
M  V30 19 1 19 20
M  V30 20 1 20 21
M  V30 21 1 21 22
M  V30 22 2 21 23
M  V30 23 2 21 24
M  V30 24 1 20 25
M  V30 25 1 25 26
M  V30 26 2 16 27
M  V30 27 1 27 28
M  V30 28 1 9 3
M  V30 29 1 28 10
M  V30 30 2 28 14
M  V30 31 1 26 17
M  V30 32 1 1 29
M  V30 33 1 1 30
M  V30 34 1 1 31
M  V30 35 1 4 32
M  V30 36 1 5 33
M  V30 37 1 8 34
M  V30 38 1 11 35
M  V30 39 1 12 36
M  V30 40 1 15 37
M  V30 41 1 18 38
M  V30 42 1 19 39
M  V30 43 1 19 40
M  V30 44 1 22 41
M  V30 45 1 22 42
M  V30 46 1 25 43
M  V30 47 1 25 44
M  V30 48 1 26 45
M  V30 49 1 26 46
M  V30 50 1 27 47
M  V30 END BOND
M  V30 END CTAB
M  END
>  <Dataset>  (926) 
ChEMBL_Kinases

>  <Ligand_Instance>  (926) 
nan

>  <PDB_ID>  (926) 
nan

>  <Standardized_SMILES>  (926) 
COc1ccc(F)cc1-c1ccnc2[nH]c(C3=CCN(S(N)(=O)=O)CC3)cc12

>  <Name>  (926) 
nan

>  <Pocket>  (926) 
nan

>  <ATP_Site>  (926) 
nan

>  <Peripheral>  (926) 
nan

>  <Num_H_Atoms_ProtBoundConf>  (926) 
nan

>  <Num_Resolved_Atoms>  (926) 
nan

>  <Num_Not_Resolved_Atoms>  (926) 
nan

$$$$
CHEMBL3668485
     RDKit          3D

  0  0  0  0  0  0  0  0  0  0999 V3000
M  V30 BEGIN CTAB
M  V30 COUNTS 49 52 0 0 0
M  V30 BEGIN ATOM
M  V30 1 C -1.884108 -4.339359 5.912607 0
M  V30 2 N -1.091028 -4.202622 4.695489 0
M  V30 3 C -1.591199 -4.572105 3.432353 0
M  V30 4 O -2.776519 -5.018491 3.516216 0
M  V30 5 N -0.796503 -4.428609 2.259258 0
M  V30 6 C 0.575899 -3.918122 2.116755 0
M  V30 7 C 0.391381 -2.640655 1.342941 0
M  V30 8 C -0.298465 -2.765258 0.221622 0
M  V30 9 C -0.520616 -1.572624 -0.585141 0
M  V30 10 C -0.051810 -0.302823 -0.251603 0
M  V30 11 C -0.438355 0.584477 -1.225829 0
M  V30 12 C -0.228228 1.940500 -1.360739 0
M  V30 13 C 0.522993 2.694868 -0.363452 0
M  V30 14 C -0.249958 3.218607 0.658572 0
M  V30 15 C 0.272949 3.955069 1.685767 0
M  V30 16 F -0.466307 4.478533 2.698779 0
M  V30 17 C 1.649236 4.197723 1.717613 0
M  V30 18 C 2.425494 3.677928 0.700961 0
M  V30 19 C 1.883328 2.936764 -0.328737 0
M  V30 20 O 2.589101 2.380060 -1.385593 0
M  V30 21 C 3.982836 2.588297 -1.412417 0
M  V30 22 C -0.761205 2.546918 -2.480947 0
M  V30 23 C -1.464847 1.777869 -3.392506 0
M  V30 24 N -1.669015 0.452165 -3.258484 0
M  V30 25 C -1.146565 -0.146124 -2.159011 0
M  V30 26 N -1.174881 -1.427551 -1.743666 0
M  V30 27 C -0.814233 -4.078474 -0.175677 0
M  V30 28 C -1.394248 -4.835098 1.000841 0
M  V30 29 H -1.247982 -4.451894 6.818093 0
M  V30 30 H -2.456839 -5.295161 5.821515 0
M  V30 31 H -2.571949 -3.468197 6.014256 0
M  V30 32 H -0.130362 -3.811364 4.838830 0
M  V30 33 H 1.184249 -4.657559 1.577111 0
M  V30 34 H 1.043888 -3.712982 3.094664 0
M  V30 35 H 0.816119 -1.702205 1.721792 0
M  V30 36 H 0.532191 -0.002490 0.627124 0
M  V30 37 H -1.331285 3.079482 0.714720 0
M  V30 38 H 2.082986 4.772806 2.513246 0
M  V30 39 H 3.495837 3.836361 0.678029 0
M  V30 40 H 4.249282 3.659615 -1.225115 0
M  V30 41 H 4.363801 2.267296 -2.407704 0
M  V30 42 H 4.498410 1.987822 -0.634809 0
M  V30 43 H -0.639265 3.596842 -2.654285 0
M  V30 44 H -1.886114 2.270760 -4.282813 0
M  V30 45 H -1.635583 -2.226667 -2.233659 0
M  V30 46 H 0.005844 -4.713693 -0.622799 0
M  V30 47 H -1.622318 -4.029196 -0.929709 0
M  V30 48 H -2.497969 -4.758196 1.068899 0
M  V30 49 H -1.135167 -5.930693 0.912246 0
M  V30 END ATOM
M  V30 BEGIN BOND
M  V30 1 1 1 2
M  V30 2 1 2 3
M  V30 3 2 3 4
M  V30 4 1 3 5
M  V30 5 1 5 6
M  V30 6 1 6 7
M  V30 7 2 7 8
M  V30 8 1 8 9
M  V30 9 2 9 10
M  V30 10 1 10 11
M  V30 11 2 11 12
M  V30 12 1 12 13
M  V30 13 2 13 14
M  V30 14 1 14 15
M  V30 15 1 15 16
M  V30 16 2 15 17
M  V30 17 1 17 18
M  V30 18 2 18 19
M  V30 19 1 19 20
M  V30 20 1 20 21
M  V30 21 1 12 22
M  V30 22 2 22 23
M  V30 23 1 23 24
M  V30 24 2 24 25
M  V30 25 1 25 26
M  V30 26 1 8 27
M  V30 27 1 27 28
M  V30 28 1 28 5
M  V30 29 1 26 9
M  V30 30 1 25 11
M  V30 31 1 19 13
M  V30 32 1 1 29
M  V30 33 1 1 30
M  V30 34 1 1 31
M  V30 35 1 2 32
M  V30 36 1 6 33
M  V30 37 1 6 34
M  V30 38 1 7 35
M  V30 39 1 10 36
M  V30 40 1 14 37
M  V30 41 1 17 38
M  V30 42 1 18 39
M  V30 43 1 21 40
M  V30 44 1 21 41
M  V30 45 1 21 42
M  V30 46 1 22 43
M  V30 47 1 23 44
M  V30 48 1 26 45
M  V30 49 1 27 46
M  V30 50 1 27 47
M  V30 51 1 28 48
M  V30 52 1 28 49
M  V30 END BOND
M  V30 END CTAB
M  END
>  <Dataset>  (927) 
ChEMBL_Kinases

>  <Ligand_Instance>  (927) 
nan

>  <PDB_ID>  (927) 
nan

>  <Standardized_SMILES>  (927) 
CNC(=O)N1CC=C(c2cc3c(-c4cc(F)ccc4OC)ccnc3[nH]2)CC1

>  <Name>  (927) 
nan

>  <Pocket>  (927) 
nan

>  <ATP_Site>  (927) 
nan

>  <Peripheral>  (927) 
nan

>  <Num_H_Atoms_ProtBoundConf>  (927) 
nan

>  <Num_Resolved_Atoms>  (927) 
nan

>  <Num_Not_Resolved_Atoms>  (927) 
nan

$$$$
CHEMBL3668484
     RDKit          3D

  0  0  0  0  0  0  0  0  0  0999 V3000
M  V30 BEGIN CTAB
M  V30 COUNTS 55 59 0 0 0
M  V30 BEGIN ATOM
M  V30 1 F 0.783344 -3.800346 2.775625 0
M  V30 2 C 1.894428 -3.579107 2.016430 0
M  V30 3 C 2.367988 -4.499336 1.110292 0
M  V30 4 C 3.498205 -4.164973 0.400866 0
M  V30 5 C 4.108777 -2.949831 0.611364 0
M  V30 6 C 3.636143 -2.002578 1.531911 0
M  V30 7 C 4.485246 -0.803629 1.561457 0
M  V30 8 N 4.187705 0.189392 0.571456 0
M  V30 9 C 3.099055 1.050728 0.280070 0
M  V30 10 C 3.077830 1.932881 -0.803746 0
M  V30 11 C 1.988987 2.741039 -1.011944 0
M  V30 12 C 0.884238 2.733790 -0.192319 0
M  V30 13 F -0.144103 3.565720 -0.474564 0
M  V30 14 C 0.902763 1.855278 0.889055 0
M  V30 15 C -0.300220 1.898321 1.718252 0
M  V30 16 C -0.265862 2.804851 2.766738 0
M  V30 17 C -1.420164 2.840880 3.555642 0
M  V30 18 N -2.491155 2.071319 3.339210 0
M  V30 19 C -2.532412 1.189730 2.324667 0
M  V30 20 N -3.425479 0.282203 1.830325 0
M  V30 21 C -2.891968 -0.343571 0.746300 0
M  V30 22 C -3.698034 -1.389579 0.033290 0
M  V30 23 C -3.995769 -0.899375 -1.361444 0
M  V30 24 C -3.074027 -1.613013 -2.321529 0
M  V30 25 C -3.517477 -3.065045 -2.326632 0
M  V30 26 N -3.508941 -3.613928 -0.982392 0
M  V30 27 C -2.953510 -2.695414 -0.035776 0
M  V30 28 C -1.638729 0.172941 0.545988 0
M  V30 29 C -1.417335 1.117614 1.518494 0
M  V30 30 C 2.003009 1.055320 1.078872 0
M  V30 31 C 2.517707 -2.368264 2.214617 0
M  V30 32 H 1.820944 -5.424342 1.015504 0
M  V30 33 H 3.841851 -4.905986 -0.298454 0
M  V30 34 H 4.995839 -2.825392 -0.024628 0
M  V30 35 H 4.271472 -0.310972 2.563330 0
M  V30 36 H 5.539850 -1.072977 1.520116 0
M  V30 37 H 4.974530 0.330883 -0.139814 0
M  V30 38 H 3.949158 1.956186 -1.472187 0
M  V30 39 H 2.067301 3.385050 -1.872052 0
M  V30 40 H 0.579569 3.459958 2.993790 0
M  V30 41 H -1.441119 3.542418 4.397740 0
M  V30 42 H -4.349823 0.201888 2.333176 0
M  V30 43 H -4.674788 -1.497206 0.562878 0
M  V30 44 H -5.058602 -1.167902 -1.588663 0
M  V30 45 H -3.895563 0.204223 -1.445777 0
M  V30 46 H -2.041903 -1.501692 -1.943940 0
M  V30 47 H -3.120082 -1.181091 -3.326953 0
M  V30 48 H -2.802471 -3.637959 -2.949726 0
M  V30 49 H -4.507177 -3.130960 -2.776068 0
M  V30 50 H -4.445541 -3.980965 -0.702905 0
M  V30 51 H -1.887404 -2.578492 -0.219556 0
M  V30 52 H -3.069831 -3.171835 0.975020 0
M  V30 53 H -1.002431 -0.161335 -0.259752 0
M  V30 54 H 1.859188 0.454708 1.941389 0
M  V30 55 H 2.181879 -1.641159 2.914204 0
M  V30 END ATOM
M  V30 BEGIN BOND
M  V30 1 1 1 2
M  V30 2 2 2 3
M  V30 3 1 3 4
M  V30 4 2 4 5
M  V30 5 1 5 6
M  V30 6 1 6 7
M  V30 7 1 7 8
M  V30 8 1 8 9
M  V30 9 2 9 10
M  V30 10 1 10 11
M  V30 11 2 11 12
M  V30 12 1 12 13
M  V30 13 1 12 14
M  V30 14 1 14 15
M  V30 15 2 15 16
M  V30 16 1 16 17
M  V30 17 2 17 18
M  V30 18 1 18 19
M  V30 19 1 19 20
M  V30 20 1 20 21
M  V30 21 1 21 22
M  V30 22 1 22 23
M  V30 23 1 23 24
M  V30 24 1 24 25
M  V30 25 1 25 26
M  V30 26 1 26 27
M  V30 27 2 21 28
M  V30 28 1 28 29
M  V30 29 2 14 30
M  V30 30 2 6 31
M  V30 31 1 31 2
M  V30 32 1 30 9
M  V30 33 1 29 15
M  V30 34 2 29 19
M  V30 35 1 27 22
M  V30 36 1 3 32
M  V30 37 1 4 33
M  V30 38 1 5 34
M  V30 39 1 7 35
M  V30 40 1 7 36
M  V30 41 1 8 37
M  V30 42 1 10 38
M  V30 43 1 11 39
M  V30 44 1 16 40
M  V30 45 1 17 41
M  V30 46 1 20 42
M  V30 47 1 22 43
M  V30 48 1 23 44
M  V30 49 1 23 45
M  V30 50 1 24 46
M  V30 51 1 24 47
M  V30 52 1 25 48
M  V30 53 1 25 49
M  V30 54 1 26 50
M  V30 55 1 27 51
M  V30 56 1 27 52
M  V30 57 1 28 53
M  V30 58 1 30 54
M  V30 59 1 31 55
M  V30 END BOND
M  V30 END CTAB
M  END
>  <Dataset>  (928) 
ChEMBL_Kinases

>  <Ligand_Instance>  (928) 
nan

>  <PDB_ID>  (928) 
nan

>  <Standardized_SMILES>  (928) 
Fc1cccc(CNc2ccc(F)c(-c3ccnc4[nH]c(C5CCCNC5)cc34)c2)c1

>  <Name>  (928) 
nan

>  <Pocket>  (928) 
nan

>  <ATP_Site>  (928) 
nan

>  <Peripheral>  (928) 
nan

>  <Num_H_Atoms_ProtBoundConf>  (928) 
nan

>  <Num_Resolved_Atoms>  (928) 
nan

>  <Num_Not_Resolved_Atoms>  (928) 
nan

$$$$
CHEMBL3668483
     RDKit          3D

  0  0  0  0  0  0  0  0  0  0999 V3000
M  V30 BEGIN CTAB
M  V30 COUNTS 54 58 0 0 0
M  V30 BEGIN ATOM
M  V30 1 Cl -0.046193 -3.004452 4.382520 0
M  V30 2 C 0.761110 -1.486085 4.158410 0
M  V30 3 C 1.336082 -0.702464 5.158904 0
M  V30 4 N 1.937585 0.458765 4.875191 0
M  V30 5 C 2.014852 0.923785 3.608674 0
M  V30 6 N 2.573365 2.057761 3.124071 0
M  V30 7 C 2.383993 2.060733 1.775027 0
M  V30 8 C 2.817980 3.091086 0.813187 0
M  V30 9 C 3.729139 2.469727 -0.218031 0
M  V30 10 C 3.248698 2.746115 -1.620839 0
M  V30 11 C 1.828558 2.358964 -1.877214 0
M  V30 12 N 0.998841 2.793479 -0.785365 0
M  V30 13 C 1.672036 3.732748 0.084999 0
M  V30 14 C 1.700616 0.909510 1.445102 0
M  V30 15 C 1.457914 0.177510 2.589847 0
M  V30 16 C 0.828300 -1.026273 2.841036 0
M  V30 17 C 0.287683 -1.703573 1.667327 0
M  V30 18 C 1.055792 -2.597251 0.950701 0
M  V30 19 C 0.471432 -3.191783 -0.140500 0
M  V30 20 N -0.796547 -2.895763 -0.471894 0
M  V30 21 C -1.587887 -2.037634 0.186043 0
M  V30 22 N -2.919801 -1.722028 -0.156457 0
M  V30 23 C -3.712747 -2.236225 -1.248889 0
M  V30 24 C -3.860198 -3.696621 -1.084043 0
M  V30 25 C -3.122274 -4.734578 -1.584018 0
M  V30 26 C -3.459575 -6.047374 -1.273220 0
M  V30 27 C -4.546915 -6.335524 -0.453012 0
M  V30 28 C -5.297029 -5.298548 0.055875 0
M  V30 29 C -4.946268 -3.987191 -0.264830 0
M  V30 30 C -1.001128 -1.441594 1.280639 0
M  V30 31 H 1.254234 -1.108104 6.161691 0
M  V30 32 H 3.061728 2.802110 3.664957 0
M  V30 33 H 3.351345 3.901642 1.385651 0
M  V30 34 H 3.935164 1.417257 -0.029622 0
M  V30 35 H 4.728088 2.992191 -0.148571 0
M  V30 36 H 3.377882 3.809220 -1.906057 0
M  V30 37 H 3.879062 2.182826 -2.360362 0
M  V30 38 H 1.731272 1.278222 -2.097949 0
M  V30 39 H 1.496038 2.893788 -2.790675 0
M  V30 40 H 0.038945 3.062684 -1.030923 0
M  V30 41 H 2.076657 4.557970 -0.536174 0
M  V30 42 H 0.913073 4.122599 0.820960 0
M  V30 43 H 1.404874 0.635021 0.428114 0
M  V30 44 H 2.071905 -2.786685 1.277382 0
M  V30 45 H 1.055647 -3.892295 -0.712495 0
M  V30 46 H -3.429343 -1.017601 0.452627 0
M  V30 47 H -4.660644 -1.712293 -1.373399 0
M  V30 48 H -3.046793 -2.107199 -2.158456 0
M  V30 49 H -2.308900 -4.418012 -2.211270 0
M  V30 50 H -2.797007 -6.768853 -1.731562 0
M  V30 51 H -4.738563 -7.386745 -0.262418 0
M  V30 52 H -6.110309 -5.598708 0.674123 0
M  V30 53 H -5.628407 -3.281106 0.208691 0
M  V30 54 H -1.572401 -0.736604 1.865198 0
M  V30 END ATOM
M  V30 BEGIN BOND
M  V30 1 1 1 2
M  V30 2 2 2 3
M  V30 3 1 3 4
M  V30 4 2 4 5
M  V30 5 1 5 6
M  V30 6 1 6 7
M  V30 7 1 7 8
M  V30 8 1 8 9
M  V30 9 1 9 10
M  V30 10 1 10 11
M  V30 11 1 11 12
M  V30 12 1 12 13
M  V30 13 2 7 14
M  V30 14 1 14 15
M  V30 15 2 15 16
M  V30 16 1 16 17
M  V30 17 2 17 18
M  V30 18 1 18 19
M  V30 19 2 19 20
M  V30 20 1 20 21
M  V30 21 1 21 22
M  V30 22 1 22 23
M  V30 23 1 23 24
M  V30 24 2 24 25
M  V30 25 1 25 26
M  V30 26 2 26 27
M  V30 27 1 27 28
M  V30 28 2 28 29
M  V30 29 2 21 30
M  V30 30 1 16 2
M  V30 31 1 30 17
M  V30 32 1 15 5
M  V30 33 1 29 24
M  V30 34 1 13 8
M  V30 35 1 3 31
M  V30 36 1 6 32
M  V30 37 1 8 33
M  V30 38 1 9 34
M  V30 39 1 9 35
M  V30 40 1 10 36
M  V30 41 1 10 37
M  V30 42 1 11 38
M  V30 43 1 11 39
M  V30 44 1 12 40
M  V30 45 1 13 41
M  V30 46 1 13 42
M  V30 47 1 14 43
M  V30 48 1 18 44
M  V30 49 1 19 45
M  V30 50 1 22 46
M  V30 51 1 23 47
M  V30 52 1 23 48
M  V30 53 1 25 49
M  V30 54 1 26 50
M  V30 55 1 27 51
M  V30 56 1 28 52
M  V30 57 1 29 53
M  V30 58 1 30 54
M  V30 END BOND
M  V30 END CTAB
M  END
>  <Dataset>  (929) 
ChEMBL_Kinases

>  <Ligand_Instance>  (929) 
nan

>  <PDB_ID>  (929) 
nan

>  <Standardized_SMILES>  (929) 
Clc1cnc2[nH]c(C3CCCNC3)cc2c1-c1ccnc(NCc2ccccc2)c1

>  <Name>  (929) 
nan

>  <Pocket>  (929) 
nan

>  <ATP_Site>  (929) 
nan

>  <Peripheral>  (929) 
nan

>  <Num_H_Atoms_ProtBoundConf>  (929) 
nan

>  <Num_Resolved_Atoms>  (929) 
nan

>  <Num_Not_Resolved_Atoms>  (929) 
nan

$$$$
CHEMBL3668482
     RDKit          3D

  0  0  0  0  0  0  0  0  0  0999 V3000
M  V30 BEGIN CTAB
M  V30 COUNTS 54 58 0 0 0
M  V30 BEGIN ATOM
M  V30 1 F 5.380404 -1.171640 1.371190 0
M  V30 2 C 4.046000 -1.251192 1.155673 0
M  V30 3 C 3.608371 -0.892893 -0.084426 0
M  V30 4 C 2.253819 -0.970020 -0.313578 0
M  V30 5 N 1.521108 -0.650386 -1.508467 0
M  V30 6 C 1.008036 0.682862 -1.452253 0
M  V30 7 C 2.093340 1.661649 -1.305672 0
M  V30 8 C 2.734264 2.250004 -2.356766 0
M  V30 9 C 3.733868 3.147521 -2.071666 0
M  V30 10 C 4.141716 3.501927 -0.801769 0
M  V30 11 C 3.494220 2.907281 0.273297 0
M  V30 12 C 2.480554 1.997181 -0.005727 0
M  V30 13 N 1.408010 -1.379516 0.642644 0
M  V30 14 C 1.767798 -1.746554 1.884081 0
M  V30 15 C 0.834565 -2.181480 2.918051 0
M  V30 16 C 1.222670 -2.559911 4.184106 0
M  V30 17 C 0.301219 -2.956871 5.131857 0
M  V30 18 N -1.006713 -2.977516 4.821831 0
M  V30 19 C -1.443082 -2.614735 3.588872 0
M  V30 20 N -2.678958 -2.557082 3.057888 0
M  V30 21 C -2.646562 -2.136808 1.782253 0
M  V30 22 C -3.820364 -1.959045 0.915217 0
M  V30 23 C -3.928333 -0.544329 0.404486 0
M  V30 24 C -3.403519 -0.510137 -1.011813 0
M  V30 25 C -4.472213 -1.212447 -1.847645 0
M  V30 26 N -4.780929 -2.511191 -1.283142 0
M  V30 27 C -3.829815 -2.896576 -0.261645 0
M  V30 28 C -1.296633 -1.925543 1.523722 0
M  V30 29 C -0.513018 -2.214713 2.632902 0
M  V30 30 C 3.131475 -1.665939 2.105019 0
M  V30 31 H 4.169133 -0.551631 -0.933081 0
M  V30 32 H 1.496021 -1.437977 -2.190929 0
M  V30 33 H 0.434237 0.936518 -2.381941 0
M  V30 34 H 0.352334 0.740732 -0.544047 0
M  V30 35 H 2.413458 1.971758 -3.338468 0
M  V30 36 H 4.258579 3.629408 -2.883931 0
M  V30 37 H 4.930501 4.209982 -0.590244 0
M  V30 38 H 3.724192 3.102896 1.323319 0
M  V30 39 H 1.976727 1.533511 0.844196 0
M  V30 40 H 2.258557 -2.553846 4.461196 0
M  V30 41 H 0.578247 -3.256419 6.126633 0
M  V30 42 H -3.534576 -2.824453 3.630207 0
M  V30 43 H -4.714752 -2.134498 1.582753 0
M  V30 44 H -3.390037 0.188151 1.044439 0
M  V30 45 H -5.029146 -0.294013 0.334133 0
M  V30 46 H -2.482251 -1.070060 -1.177319 0
M  V30 47 H -3.229804 0.512780 -1.342104 0
M  V30 48 H -5.387852 -0.592262 -1.756926 0
M  V30 49 H -4.181715 -1.227684 -2.903415 0
M  V30 50 H -5.760875 -2.645492 -1.021036 0
M  V30 51 H -2.812303 -3.020623 -0.685300 0
M  V30 52 H -4.141483 -3.895283 0.106022 0
M  V30 53 H -0.938712 -1.580406 0.569985 0
M  V30 54 H 3.561179 -1.926443 3.046039 0
M  V30 END ATOM
M  V30 BEGIN BOND
M  V30 1 1 1 2
M  V30 2 2 2 3
M  V30 3 1 3 4
M  V30 4 1 4 5
M  V30 5 1 5 6
M  V30 6 1 6 7
M  V30 7 2 7 8
M  V30 8 1 8 9
M  V30 9 2 9 10
M  V30 10 1 10 11
M  V30 11 2 11 12
M  V30 12 2 4 13
M  V30 13 1 13 14
M  V30 14 1 14 15
M  V30 15 2 15 16
M  V30 16 1 16 17
M  V30 17 2 17 18
M  V30 18 1 18 19
M  V30 19 1 19 20
M  V30 20 1 20 21
M  V30 21 1 21 22
M  V30 22 1 22 23
M  V30 23 1 23 24
M  V30 24 1 24 25
M  V30 25 1 25 26
M  V30 26 1 26 27
M  V30 27 2 21 28
M  V30 28 1 28 29
M  V30 29 2 14 30
M  V30 30 1 30 2
M  V30 31 1 12 7
M  V30 32 1 29 15
M  V30 33 2 29 19
M  V30 34 1 27 22
M  V30 35 1 3 31
M  V30 36 1 5 32
M  V30 37 1 6 33
M  V30 38 1 6 34
M  V30 39 1 8 35
M  V30 40 1 9 36
M  V30 41 1 10 37
M  V30 42 1 11 38
M  V30 43 1 12 39
M  V30 44 1 16 40
M  V30 45 1 17 41
M  V30 46 1 20 42
M  V30 47 1 22 43
M  V30 48 1 23 44
M  V30 49 1 23 45
M  V30 50 1 24 46
M  V30 51 1 24 47
M  V30 52 1 25 48
M  V30 53 1 25 49
M  V30 54 1 26 50
M  V30 55 1 27 51
M  V30 56 1 27 52
M  V30 57 1 28 53
M  V30 58 1 30 54
M  V30 END BOND
M  V30 END CTAB
M  END
>  <Dataset>  (930) 
ChEMBL_Kinases

>  <Ligand_Instance>  (930) 
nan

>  <PDB_ID>  (930) 
nan

>  <Standardized_SMILES>  (930) 
Fc1cc(NCc2ccccc2)nc(-c2ccnc3[nH]c(C4CCCNC4)cc23)c1

>  <Name>  (930) 
nan

>  <Pocket>  (930) 
nan

>  <ATP_Site>  (930) 
nan

>  <Peripheral>  (930) 
nan

>  <Num_H_Atoms_ProtBoundConf>  (930) 
nan

>  <Num_Resolved_Atoms>  (930) 
nan

>  <Num_Not_Resolved_Atoms>  (930) 
nan

$$$$
CHEMBL3668481
     RDKit          3D

  0  0  0  0  0  0  0  0  0  0999 V3000
M  V30 BEGIN CTAB
M  V30 COUNTS 54 58 0 0 0
M  V30 BEGIN ATOM
M  V30 1 F 1.210483 -2.592625 3.517194 0
M  V30 2 C 1.757469 -1.735956 2.623228 0
M  V30 3 C 3.077980 -1.803374 2.288409 0
M  V30 4 N 3.656215 -0.980880 1.413102 0
M  V30 5 C 2.938112 -0.001569 0.788395 0
M  V30 6 N 3.511687 0.867509 -0.135571 0
M  V30 7 C 3.110400 2.014668 -0.914851 0
M  V30 8 C 2.812113 3.137912 -0.009161 0
M  V30 9 C 3.922039 3.878379 0.391290 0
M  V30 10 C 3.829385 4.968928 1.219095 0
M  V30 11 C 2.625775 5.409793 1.714871 0
M  V30 12 C 1.503887 4.674314 1.319159 0
M  V30 13 C 1.633807 3.595319 0.494363 0
M  V30 14 C 1.603207 0.034647 1.153318 0
M  V30 15 C 0.930287 -0.787761 2.057626 0
M  V30 16 C -0.464667 -0.604711 2.329350 0
M  V30 17 C -0.926064 0.246194 3.303396 0
M  V30 18 C -2.247099 0.522203 3.658328 0
M  V30 19 N -3.156176 -0.163970 2.915796 0
M  V30 20 C -2.753239 -1.019572 1.938905 0
M  V30 21 N -3.564288 -1.744846 1.147051 0
M  V30 22 C -2.783285 -2.476557 0.297179 0
M  V30 23 C -3.289648 -3.392386 -0.738098 0
M  V30 24 C -3.139118 -4.860918 -0.373005 0
M  V30 25 C -3.244875 -5.737667 -1.604674 0
M  V30 26 C -2.166384 -5.392781 -2.613910 0
M  V30 27 N -1.514366 -4.176377 -2.141905 0
M  V30 28 C -2.537356 -3.162539 -2.023801 0
M  V30 29 C -1.447455 -2.187853 0.579728 0
M  V30 30 C -1.437397 -1.268273 1.615118 0
M  V30 31 H 3.758000 -2.542565 2.717643 0
M  V30 32 H 4.537426 0.635806 -0.335543 0
M  V30 33 H 3.896800 2.349858 -1.616026 0
M  V30 34 H 2.225520 1.763131 -1.561189 0
M  V30 35 H 4.947479 3.664197 0.089979 0
M  V30 36 H 4.669690 5.575649 1.557604 0
M  V30 37 H 2.389944 6.237381 2.365878 0
M  V30 38 H 0.502600 4.939516 1.656589 0
M  V30 39 H 0.753948 3.049963 0.193245 0
M  V30 40 H 0.981493 0.784074 0.684116 0
M  V30 41 H -0.187104 0.800996 3.903221 0
M  V30 42 H -2.480312 1.218126 4.449314 0
M  V30 43 H -4.618505 -1.762299 1.161105 0
M  V30 44 H -4.384748 -3.163396 -0.834820 0
M  V30 45 H -4.039568 -5.106745 0.247046 0
M  V30 46 H -2.274146 -5.093539 0.240049 0
M  V30 47 H -3.106929 -6.778851 -1.297597 0
M  V30 48 H -4.208698 -5.530448 -2.116050 0
M  V30 49 H -1.371479 -6.180646 -2.624207 0
M  V30 50 H -2.546835 -5.232737 -3.631009 0
M  V30 51 H -1.062375 -4.445301 -1.243839 0
M  V30 52 H -3.270745 -3.268081 -2.852421 0
M  V30 53 H -2.127339 -2.132719 -2.079939 0
M  V30 54 H -0.544588 -2.564074 0.125628 0
M  V30 END ATOM
M  V30 BEGIN BOND
M  V30 1 1 1 2
M  V30 2 2 2 3
M  V30 3 1 3 4
M  V30 4 2 4 5
M  V30 5 1 5 6
M  V30 6 1 6 7
M  V30 7 1 7 8
M  V30 8 2 8 9
M  V30 9 1 9 10
M  V30 10 2 10 11
M  V30 11 1 11 12
M  V30 12 2 12 13
M  V30 13 1 5 14
M  V30 14 2 14 15
M  V30 15 1 15 16
M  V30 16 2 16 17
M  V30 17 1 17 18
M  V30 18 2 18 19
M  V30 19 1 19 20
M  V30 20 1 20 21
M  V30 21 1 21 22
M  V30 22 1 22 23
M  V30 23 1 23 24
M  V30 24 1 24 25
M  V30 25 1 25 26
M  V30 26 1 26 27
M  V30 27 1 27 28
M  V30 28 2 22 29
M  V30 29 1 29 30
M  V30 30 1 15 2
M  V30 31 1 30 16
M  V30 32 1 13 8
M  V30 33 2 30 20
M  V30 34 1 28 23
M  V30 35 1 3 31
M  V30 36 1 6 32
M  V30 37 1 7 33
M  V30 38 1 7 34
M  V30 39 1 9 35
M  V30 40 1 10 36
M  V30 41 1 11 37
M  V30 42 1 12 38
M  V30 43 1 13 39
M  V30 44 1 14 40
M  V30 45 1 17 41
M  V30 46 1 18 42
M  V30 47 1 21 43
M  V30 48 1 23 44
M  V30 49 1 24 45
M  V30 50 1 24 46
M  V30 51 1 25 47
M  V30 52 1 25 48
M  V30 53 1 26 49
M  V30 54 1 26 50
M  V30 55 1 27 51
M  V30 56 1 28 52
M  V30 57 1 28 53
M  V30 58 1 29 54
M  V30 END BOND
M  V30 END CTAB
M  END
>  <Dataset>  (931) 
ChEMBL_Kinases

>  <Ligand_Instance>  (931) 
nan

>  <PDB_ID>  (931) 
nan

>  <Standardized_SMILES>  (931) 
Fc1cnc(NCc2ccccc2)cc1-c1ccnc2[nH]c(C3CCCNC3)cc12

>  <Name>  (931) 
nan

>  <Pocket>  (931) 
nan

>  <ATP_Site>  (931) 
nan

>  <Peripheral>  (931) 
nan

>  <Num_H_Atoms_ProtBoundConf>  (931) 
nan

>  <Num_Resolved_Atoms>  (931) 
nan

>  <Num_Not_Resolved_Atoms>  (931) 
nan

$$$$
CHEMBL3668480
     RDKit          3D

  0  0  0  0  0  0  0  0  0  0999 V3000
M  V30 BEGIN CTAB
M  V30 COUNTS 53 57 0 0 0
M  V30 BEGIN ATOM
M  V30 1 F 4.042621 -2.288914 3.826009 0
M  V30 2 C 3.603519 -2.108777 2.540520 0
M  V30 3 C 2.599474 -3.005112 2.168415 0
M  V30 4 N 2.104451 -2.883427 0.914267 0
M  V30 5 C 2.543963 -1.954876 0.054848 0
M  V30 6 C 3.548099 -1.040726 0.390953 0
M  V30 7 C 4.070462 0.041709 -0.503337 0
M  V30 8 N 3.430805 1.298217 -0.205660 0
M  V30 9 C 2.297623 2.128737 0.020987 0
M  V30 10 C 1.935863 3.356101 -0.482175 0
M  V30 11 C 0.815416 3.905186 0.091595 0
M  V30 12 C 0.100279 3.308852 1.083106 0
M  V30 13 Cl -1.310336 3.952363 1.853638 0
M  V30 14 C 0.467742 2.093814 1.567730 0
M  V30 15 C -0.121026 1.130143 2.537884 0
M  V30 16 C -0.050928 1.059872 3.921050 0
M  V30 17 C -0.624825 -0.087976 4.483195 0
M  V30 18 N -1.213234 -1.082408 3.797327 0
M  V30 19 C -1.294841 -1.034953 2.441263 0
M  V30 20 N -1.862905 -1.825424 1.513989 0
M  V30 21 C -1.741437 -1.309853 0.265249 0
M  V30 22 C -2.245654 -1.733943 -1.061975 0
M  V30 23 C -3.699875 -1.327762 -1.129948 0
M  V30 24 C -4.548870 -2.409749 -0.515748 0
M  V30 25 C -4.263519 -3.681673 -1.255595 0
M  V30 26 N -2.919217 -4.085827 -1.304240 0
M  V30 27 C -1.937514 -3.092687 -1.509927 0
M  V30 28 C -1.038138 -0.130669 0.513500 0
M  V30 29 C -0.744124 0.076192 1.847651 0
M  V30 30 N 1.584094 1.534917 1.000454 0
M  V30 31 C 4.083615 -1.139572 1.684598 0
M  V30 32 H 2.201829 -3.771628 2.819188 0
M  V30 33 H 2.162867 -1.851708 -0.960707 0
M  V30 34 H 3.887557 -0.258249 -1.533501 0
M  V30 35 H 5.175291 0.143729 -0.288252 0
M  V30 36 H 4.153093 2.074209 -0.064180 0
M  V30 37 H 2.566310 3.718718 -1.267614 0
M  V30 38 H 0.516014 4.860091 -0.304248 0
M  V30 39 H 0.445582 1.915178 4.313004 0
M  V30 40 H -0.524441 -0.059715 5.584372 0
M  V30 41 H -2.327266 -2.729450 1.741042 0
M  V30 42 H -1.756509 -1.027147 -1.821132 0
M  V30 43 H -3.807456 -0.400430 -0.500294 0
M  V30 44 H -3.959146 -1.084551 -2.175655 0
M  V30 45 H -5.639624 -2.211175 -0.671327 0
M  V30 46 H -4.333778 -2.470660 0.556307 0
M  V30 47 H -4.874771 -4.477549 -0.728850 0
M  V30 48 H -4.662445 -3.552267 -2.296548 0
M  V30 49 H -2.639059 -4.996299 -0.937299 0
M  V30 50 H -1.753144 -3.100327 -2.636778 0
M  V30 51 H -0.973332 -3.431395 -1.101927 0
M  V30 52 H -0.764088 0.539375 -0.305012 0
M  V30 53 H 4.880995 -0.504506 2.097389 0
M  V30 END ATOM
M  V30 BEGIN BOND
M  V30 1 1 1 2
M  V30 2 2 2 3
M  V30 3 1 3 4
M  V30 4 2 4 5
M  V30 5 1 5 6
M  V30 6 1 6 7
M  V30 7 1 7 8
M  V30 8 1 8 9
M  V30 9 2 9 10
M  V30 10 1 10 11
M  V30 11 2 11 12
M  V30 12 1 12 13
M  V30 13 1 12 14
M  V30 14 1 14 15
M  V30 15 2 15 16
M  V30 16 1 16 17
M  V30 17 2 17 18
M  V30 18 1 18 19
M  V30 19 1 19 20
M  V30 20 1 20 21
M  V30 21 1 21 22
M  V30 22 1 22 23
M  V30 23 1 23 24
M  V30 24 1 24 25
M  V30 25 1 25 26
M  V30 26 1 26 27
M  V30 27 2 21 28
M  V30 28 1 28 29
M  V30 29 2 14 30
M  V30 30 2 6 31
M  V30 31 1 31 2
M  V30 32 1 30 9
M  V30 33 1 29 15
M  V30 34 2 29 19
M  V30 35 1 27 22
M  V30 36 1 3 32
M  V30 37 1 5 33
M  V30 38 1 7 34
M  V30 39 1 7 35
M  V30 40 1 8 36
M  V30 41 1 10 37
M  V30 42 1 11 38
M  V30 43 1 16 39
M  V30 44 1 17 40
M  V30 45 1 20 41
M  V30 46 1 22 42
M  V30 47 1 23 43
M  V30 48 1 23 44
M  V30 49 1 24 45
M  V30 50 1 24 46
M  V30 51 1 25 47
M  V30 52 1 25 48
M  V30 53 1 26 49
M  V30 54 1 27 50
M  V30 55 1 27 51
M  V30 56 1 28 52
M  V30 57 1 31 53
M  V30 END BOND
M  V30 END CTAB
M  END
>  <Dataset>  (932) 
ChEMBL_Kinases

>  <Ligand_Instance>  (932) 
nan

>  <PDB_ID>  (932) 
nan

>  <Standardized_SMILES>  (932) 
Fc1cncc(CNc2ccc(Cl)c(-c3ccnc4[nH]c(C5CCCNC5)cc34)n2)c1

>  <Name>  (932) 
nan

>  <Pocket>  (932) 
nan

>  <ATP_Site>  (932) 
nan

>  <Peripheral>  (932) 
nan

>  <Num_H_Atoms_ProtBoundConf>  (932) 
nan

>  <Num_Resolved_Atoms>  (932) 
nan

>  <Num_Not_Resolved_Atoms>  (932) 
nan

$$$$
CHEMBL3668528
     RDKit          3D

  0  0  0  0  0  0  0  0  0  0999 V3000
M  V30 BEGIN CTAB
M  V30 COUNTS 52 56 0 0 0
M  V30 BEGIN ATOM
M  V30 1 C 0.797865 1.551518 -3.815754 0
M  V30 2 O 1.320167 1.636789 -2.511965 0
M  V30 3 C 2.609426 1.354731 -2.140719 0
M  V30 4 C 3.650913 0.937445 -2.935843 0
M  V30 5 C 4.911089 0.686582 -2.429418 0
M  V30 6 C 5.156104 0.857036 -1.063709 0
M  V30 7 F 6.391215 0.602468 -0.617590 0
M  V30 8 C 4.105387 1.277812 -0.262769 0
M  V30 9 C 2.840359 1.528391 -0.778353 0
M  V30 10 C 1.913405 1.957759 0.264418 0
M  V30 11 C 1.878151 3.319691 0.458497 0
M  V30 12 C 1.028262 3.846137 1.429802 0
M  V30 13 N 0.240943 3.024562 2.179343 0
M  V30 14 C 0.270719 1.687555 1.993994 0
M  V30 15 N -0.349595 0.623692 2.536756 0
M  V30 16 C 0.051749 -0.527191 1.974538 0
M  V30 17 C -0.432557 -1.854389 2.341342 0
M  V30 18 C -1.335914 -2.028781 3.289601 0
M  V30 19 C -1.627362 -3.476616 3.435822 0 CFG=1
M  V30 20 C -3.107975 -3.658631 3.260110 0
M  V30 21 N -3.360501 -4.181917 1.953186 0
M  V30 22 S -4.611002 -3.337226 1.100461 0
M  V30 23 C -4.217224 -1.645165 0.829956 0
M  V30 24 O -5.907368 -3.422155 1.842913 0
M  V30 25 O -4.720029 -3.983521 -0.263034 0
M  V30 26 C -2.145484 -4.223693 1.204866 0
M  V30 27 C -1.014814 -4.150245 2.227071 0 CFG=1
M  V30 28 C -0.016786 -3.152107 1.746827 0
M  V30 29 C 1.000619 -0.223510 0.992403 0
M  V30 30 C 1.103340 1.150833 1.040018 0
M  V30 31 H 1.443678 0.974214 -4.513765 0
M  V30 32 H 0.746130 2.593875 -4.232273 0
M  V30 33 H -0.203596 1.064482 -3.851108 0
M  V30 34 H 3.408461 0.821221 -3.984115 0
M  V30 35 H 5.712855 0.359568 -3.074884 0
M  V30 36 H 4.404638 1.377467 0.777892 0
M  V30 37 H 2.454662 4.080746 -0.072049 0
M  V30 38 H 0.900359 4.890861 1.686780 0
M  V30 39 H -1.057889 0.773836 3.313119 0
M  V30 40 H -1.843608 -1.313579 3.915858 0
M  V30 41 H -1.247127 -3.909089 4.386708 0
M  V30 42 H -3.654881 -2.673618 3.321809 0
M  V30 43 H -3.504894 -4.326003 4.064980 0
M  V30 44 H -5.180992 -1.078569 0.759667 0
M  V30 45 H -3.671894 -1.186181 1.672294 0
M  V30 46 H -3.675744 -1.470588 -0.127113 0
M  V30 47 H -1.990976 -5.152864 0.612679 0
M  V30 48 H -2.065742 -3.379945 0.468004 0
M  V30 49 H -0.611176 -5.155279 2.450328 0
M  V30 50 H 0.043338 -3.097555 0.627344 0
M  V30 51 H 1.010387 -3.350578 2.148227 0
M  V30 52 H 1.525252 -0.916816 0.350537 0
M  V30 END ATOM
M  V30 BEGIN BOND
M  V30 1 1 1 2
M  V30 2 1 2 3
M  V30 3 2 3 4
M  V30 4 1 4 5
M  V30 5 2 5 6
M  V30 6 1 6 7
M  V30 7 1 6 8
M  V30 8 2 8 9
M  V30 9 1 9 10
M  V30 10 2 10 11
M  V30 11 1 11 12
M  V30 12 2 12 13
M  V30 13 1 13 14
M  V30 14 1 14 15
M  V30 15 1 15 16
M  V30 16 1 16 17
M  V30 17 2 17 18
M  V30 18 1 18 19
M  V30 19 1 19 20
M  V30 20 1 20 21
M  V30 21 1 21 22
M  V30 22 1 22 23
M  V30 23 2 22 24
M  V30 24 2 22 25
M  V30 25 1 21 26
M  V30 26 1 26 27
M  V30 27 1 27 28
M  V30 28 2 16 29
M  V30 29 1 29 30
M  V30 30 1 9 3
M  V30 31 1 30 10
M  V30 32 2 30 14
M  V30 33 1 28 17
M  V30 34 1 27 19
M  V30 35 1 1 31
M  V30 36 1 1 32
M  V30 37 1 1 33
M  V30 38 1 4 34
M  V30 39 1 5 35
M  V30 40 1 8 36
M  V30 41 1 11 37
M  V30 42 1 12 38
M  V30 43 1 15 39
M  V30 44 1 18 40
M  V30 45 1 19 41 CFG=1
M  V30 46 1 20 42
M  V30 47 1 20 43
M  V30 48 1 23 44
M  V30 49 1 23 45
M  V30 50 1 23 46
M  V30 51 1 26 47
M  V30 52 1 26 48
M  V30 53 1 27 49 CFG=1
M  V30 54 1 28 50
M  V30 55 1 28 51
M  V30 56 1 29 52
M  V30 END BOND
M  V30 END CTAB
M  END
>  <Dataset>  (933) 
ChEMBL_Kinases

>  <Ligand_Instance>  (933) 
nan

>  <PDB_ID>  (933) 
nan

>  <Standardized_SMILES>  (933) 
COc1ccc(F)cc1-c1ccnc2[nH]c(C3=C[C@H]4CN(S(C)(=O)=O)C[C@H]4C3)cc12

>  <Name>  (933) 
nan

>  <Pocket>  (933) 
nan

>  <ATP_Site>  (933) 
nan

>  <Peripheral>  (933) 
nan

>  <Num_H_Atoms_ProtBoundConf>  (933) 
nan

>  <Num_Resolved_Atoms>  (933) 
nan

>  <Num_Not_Resolved_Atoms>  (933) 
nan

$$$$
CHEMBL3668463
     RDKit          3D

  0  0  0  0  0  0  0  0  0  0999 V3000
M  V30 BEGIN CTAB
M  V30 COUNTS 57 61 0 0 0
M  V30 BEGIN ATOM
M  V30 1 O 0.237336 -4.813978 2.832470 0
M  V30 2 C 1.009356 -3.679961 2.578752 0 CFG=2
M  V30 3 C 0.161488 -2.734236 1.736195 0
M  V30 4 N 1.184794 -1.788425 1.331739 0
M  V30 5 C 2.330695 -2.602488 0.944216 0 CFG=1
M  V30 6 C 3.612273 -1.979582 1.514953 0
M  V30 7 N 3.770641 -0.633721 1.051304 0
M  V30 8 C 3.355149 0.436643 0.221031 0
M  V30 9 C 3.977478 1.036247 -0.859906 0
M  V30 10 C 3.253095 2.093318 -1.377582 0
M  V30 11 C 2.042722 2.492530 -0.862875 0
M  V30 12 Cl 1.309088 3.872094 -1.705663 0
M  V30 13 C 1.466390 1.833159 0.238760 0
M  V30 14 C 0.148942 2.330583 0.643562 0
M  V30 15 C 0.165087 3.598356 1.231464 0
M  V30 16 C -1.074159 4.075115 1.681506 0
M  V30 17 N -2.251538 3.399757 1.581417 0
M  V30 18 C -2.259018 2.187467 1.014971 0
M  V30 19 N -3.216518 1.277323 0.709708 0
M  V30 20 C -2.684668 0.194693 0.067169 0
M  V30 21 C -3.480432 -0.940192 -0.465881 0
M  V30 22 C -3.225209 -2.197015 0.227614 0
M  V30 23 C -2.831249 -3.364065 -0.640014 0
M  V30 24 N -2.012017 -2.898578 -1.730872 0
M  V30 25 C -2.960016 -2.205657 -2.607289 0
M  V30 26 C -3.289216 -0.917477 -1.955541 0
M  V30 27 C -1.317999 0.449083 -0.025703 0
M  V30 28 C -1.058228 1.691035 0.563760 0
M  V30 29 N 2.200192 0.839075 0.689750 0
M  V30 30 C 2.185138 -3.928518 1.678068 0
M  V30 31 H -0.676566 -4.430794 3.055764 0
M  V30 32 H 1.309945 -3.154932 3.510421 0
M  V30 33 H -0.350840 -3.243054 0.925491 0
M  V30 34 H -0.529980 -2.201251 2.425977 0
M  V30 35 H 1.485889 -1.335994 2.248296 0
M  V30 36 H 2.451054 -2.721448 -0.132045 0
M  V30 37 H 3.543795 -2.011046 2.640272 0
M  V30 38 H 4.452675 -2.596899 1.190705 0
M  V30 39 H 4.598232 -0.189677 1.528738 0
M  V30 40 H 4.904897 0.584234 -1.112118 0
M  V30 41 H 3.758037 2.556804 -2.232394 0
M  V30 42 H 1.022047 4.251569 1.379135 0
M  V30 43 H -1.096194 5.070563 2.150000 0
M  V30 44 H -4.232659 1.442826 0.968139 0
M  V30 45 H -4.562082 -0.654753 -0.270550 0
M  V30 46 H -4.153762 -2.568137 0.772829 0
M  V30 47 H -2.481793 -2.120103 1.038569 0
M  V30 48 H -3.752879 -3.800005 -1.115696 0
M  V30 49 H -2.393488 -4.164300 -0.050850 0
M  V30 50 H -1.523020 -3.661625 -2.237601 0
M  V30 51 H -3.808314 -2.888536 -2.750258 0
M  V30 52 H -2.459153 -1.970586 -3.591093 0
M  V30 53 H -4.179445 -0.481949 -2.468023 0
M  V30 54 H -2.452745 -0.203410 -2.237789 0
M  V30 55 H -0.587848 -0.219702 -0.486374 0
M  V30 56 H 1.920295 -4.743940 0.973835 0
M  V30 57 H 3.106318 -4.180188 2.260625 0
M  V30 END ATOM
M  V30 BEGIN BOND
M  V30 1 1 1 2
M  V30 2 1 2 3
M  V30 3 1 3 4
M  V30 4 1 4 5
M  V30 5 1 5 6
M  V30 6 1 6 7
M  V30 7 1 7 8
M  V30 8 2 8 9
M  V30 9 1 9 10
M  V30 10 2 10 11
M  V30 11 1 11 12
M  V30 12 1 11 13
M  V30 13 1 13 14
M  V30 14 2 14 15
M  V30 15 1 15 16
M  V30 16 2 16 17
M  V30 17 1 17 18
M  V30 18 1 18 19
M  V30 19 1 19 20
M  V30 20 1 20 21
M  V30 21 1 21 22
M  V30 22 1 22 23
M  V30 23 1 23 24
M  V30 24 1 24 25
M  V30 25 1 25 26
M  V30 26 2 20 27
M  V30 27 1 27 28
M  V30 28 2 13 29
M  V30 29 1 5 30
M  V30 30 1 30 2
M  V30 31 1 29 8
M  V30 32 1 28 14
M  V30 33 2 28 18
M  V30 34 1 26 21
M  V30 35 1 1 31
M  V30 36 1 2 32 CFG=1
M  V30 37 1 3 33
M  V30 38 1 3 34
M  V30 39 1 4 35
M  V30 40 1 5 36 CFG=3
M  V30 41 1 6 37
M  V30 42 1 6 38
M  V30 43 1 7 39
M  V30 44 1 9 40
M  V30 45 1 10 41
M  V30 46 1 15 42
M  V30 47 1 16 43
M  V30 48 1 19 44
M  V30 49 1 21 45
M  V30 50 1 22 46
M  V30 51 1 22 47
M  V30 52 1 23 48
M  V30 53 1 23 49
M  V30 54 1 24 50
M  V30 55 1 25 51
M  V30 56 1 25 52
M  V30 57 1 26 53
M  V30 58 1 26 54
M  V30 59 1 27 55
M  V30 60 1 30 56
M  V30 61 1 30 57
M  V30 END BOND
M  V30 END CTAB
M  END
>  <Dataset>  (934) 
ChEMBL_Kinases

>  <Ligand_Instance>  (934) 
nan

>  <PDB_ID>  (934) 
nan

>  <Standardized_SMILES>  (934) 
O[C@@H]1CN[C@@H](CNc2ccc(Cl)c(-c3ccnc4[nH]c(C5CCNCC5)cc34)n2)C1

>  <Name>  (934) 
nan

>  <Pocket>  (934) 
nan

>  <ATP_Site>  (934) 
nan

>  <Peripheral>  (934) 
nan

>  <Num_H_Atoms_ProtBoundConf>  (934) 
nan

>  <Num_Resolved_Atoms>  (934) 
nan

>  <Num_Not_Resolved_Atoms>  (934) 
nan

$$$$
CHEMBL3668464
     RDKit          3D

  0  0  0  0  0  0  0  0  0  0999 V3000
M  V30 BEGIN CTAB
M  V30 COUNTS 47 50 0 0 0
M  V30 BEGIN ATOM
M  V30 1 C -1.097956 -1.872793 -3.467990 0
M  V30 2 O -0.503278 -0.812589 -2.704063 0
M  V30 3 C 0.835878 -0.939541 -2.396927 0
M  V30 4 C 1.614657 -2.029351 -2.789324 0
M  V30 5 C 2.944521 -2.084967 -2.444890 0
M  V30 6 C 3.506714 -1.050065 -1.704574 0
M  V30 7 F 4.812083 -1.119102 -1.374760 0
M  V30 8 C 2.760803 0.054758 -1.294335 0
M  V30 9 C 1.416658 0.073155 -1.663695 0
M  V30 10 C 0.717162 1.271380 -1.187076 0
M  V30 11 C 0.671732 2.401673 -1.971064 0
M  V30 12 C -0.014720 3.499829 -1.442895 0
M  V30 13 N -0.604069 3.470128 -0.236619 0
M  V30 14 C -0.561339 2.369277 0.529962 0
M  V30 15 N -1.060087 2.066497 1.765522 0
M  V30 16 C -0.753902 0.805827 2.126719 0
M  V30 17 C -1.142287 0.178551 3.392353 0
M  V30 18 C 0.016181 -0.118213 4.314836 0
M  V30 19 C -0.308152 -1.192631 5.316388 0
M  V30 20 C -0.043075 -2.567614 4.763133 0
M  V30 21 C -0.390380 -2.705847 3.301615 0
M  V30 22 N -1.651136 -2.222094 2.916398 0
M  V30 23 C -2.091983 -0.950721 3.247234 0
M  V30 24 C -0.033063 0.310604 1.062913 0
M  V30 25 C 0.111184 1.240823 0.053250 0
M  V30 26 H -2.120558 -1.651267 -3.784384 0
M  V30 27 H -0.475927 -2.124520 -4.365997 0
M  V30 28 H -1.038902 -2.795955 -2.819229 0
M  V30 29 H 1.157604 -2.821526 -3.363060 0
M  V30 30 H 3.594781 -2.908301 -2.724011 0
M  V30 31 H 3.243700 0.837464 -0.718240 0
M  V30 32 H 1.128459 2.458120 -2.933256 0
M  V30 33 H -0.106654 4.443513 -1.989164 0
M  V30 34 H -1.609685 2.809545 2.293129 0
M  V30 35 H -1.722090 0.982950 3.941718 0
M  V30 36 H 0.916955 -0.455138 3.769985 0
M  V30 37 H 0.333070 0.777025 4.889046 0
M  V30 38 H -1.343174 -1.115243 5.697158 0
M  V30 39 H 0.360295 -1.052846 6.190726 0
M  V30 40 H 1.023748 -2.805485 4.932908 0
M  V30 41 H -0.624692 -3.289735 5.370342 0
M  V30 42 H -0.422441 -3.826501 3.136615 0
M  V30 43 H 0.461856 -2.403313 2.646467 0
M  V30 44 H -2.132399 -2.768635 2.195601 0
M  V30 45 H -2.844145 -0.621635 2.470664 0
M  V30 46 H -2.723360 -1.018362 4.181879 0
M  V30 47 H 0.381502 -0.671401 0.990587 0
M  V30 END ATOM
M  V30 BEGIN BOND
M  V30 1 1 1 2
M  V30 2 1 2 3
M  V30 3 2 3 4
M  V30 4 1 4 5
M  V30 5 2 5 6
M  V30 6 1 6 7
M  V30 7 1 6 8
M  V30 8 2 8 9
M  V30 9 1 9 10
M  V30 10 2 10 11
M  V30 11 1 11 12
M  V30 12 2 12 13
M  V30 13 1 13 14
M  V30 14 1 14 15
M  V30 15 1 15 16
M  V30 16 1 16 17
M  V30 17 1 17 18
M  V30 18 1 18 19
M  V30 19 1 19 20
M  V30 20 1 20 21
M  V30 21 1 21 22
M  V30 22 1 22 23
M  V30 23 2 16 24
M  V30 24 1 24 25
M  V30 25 1 9 3
M  V30 26 1 25 10
M  V30 27 2 25 14
M  V30 28 1 23 17
M  V30 29 1 1 26
M  V30 30 1 1 27
M  V30 31 1 1 28
M  V30 32 1 4 29
M  V30 33 1 5 30
M  V30 34 1 8 31
M  V30 35 1 11 32
M  V30 36 1 12 33
M  V30 37 1 15 34
M  V30 38 1 17 35
M  V30 39 1 18 36
M  V30 40 1 18 37
M  V30 41 1 19 38
M  V30 42 1 19 39
M  V30 43 1 20 40
M  V30 44 1 20 41
M  V30 45 1 21 42
M  V30 46 1 21 43
M  V30 47 1 22 44
M  V30 48 1 23 45
M  V30 49 1 23 46
M  V30 50 1 24 47
M  V30 END BOND
M  V30 END CTAB
M  END
>  <Dataset>  (935) 
ChEMBL_Kinases

>  <Ligand_Instance>  (935) 
nan

>  <PDB_ID>  (935) 
nan

>  <Standardized_SMILES>  (935) 
COc1ccc(F)cc1-c1ccnc2[nH]c(C3CCCCNC3)cc12

>  <Name>  (935) 
nan

>  <Pocket>  (935) 
nan

>  <ATP_Site>  (935) 
nan

>  <Peripheral>  (935) 
nan

>  <Num_H_Atoms_ProtBoundConf>  (935) 
nan

>  <Num_Resolved_Atoms>  (935) 
nan

>  <Num_Not_Resolved_Atoms>  (935) 
nan

$$$$
CHEMBL3668465
     RDKit          3D

  0  0  0  0  0  0  0  0  0  0999 V3000
M  V30 BEGIN CTAB
M  V30 COUNTS 55 59 0 0 0
M  V30 BEGIN ATOM
M  V30 1 F -1.230171 -0.995499 4.104785 0
M  V30 2 C -0.096752 -0.836776 3.416492 0
M  V30 3 C 1.034504 -1.403316 3.950174 0
M  V30 4 C 2.265275 -1.318758 3.350520 0
M  V30 5 C 2.400802 -0.628937 2.138546 0
M  V30 6 N 3.631970 -0.502311 1.449211 0
M  V30 7 C 4.095567 0.132504 0.242577 0
M  V30 8 C 4.010590 1.611844 0.263242 0
M  V30 9 C 3.074671 2.485247 -0.194990 0
M  V30 10 C 3.195537 3.844015 -0.047798 0
M  V30 11 C 4.278382 4.424781 0.576922 0
M  V30 12 C 5.254710 3.582373 1.058409 0
M  V30 13 C 5.103985 2.222200 0.895149 0
M  V30 14 C 1.260690 -0.075420 1.629685 0
M  V30 15 C 0.021656 -0.157708 2.228800 0
M  V30 16 C -1.210589 0.423641 1.707590 0
M  V30 17 C -1.495888 1.724247 2.115550 0
M  V30 18 Cl -0.483055 2.678580 3.193127 0
M  V30 19 C -2.652875 2.339438 1.657779 0
M  V30 20 N -3.525070 1.721387 0.822263 0
M  V30 21 C -3.247381 0.458977 0.426760 0
M  V30 22 N -3.866814 -0.432353 -0.371720 0
M  V30 23 C -3.164362 -1.588191 -0.448459 0
M  V30 24 C -3.559212 -2.792328 -1.245764 0
M  V30 25 C -3.718443 -3.930604 -0.294374 0
M  V30 26 C -3.778796 -5.288730 -0.945484 0
M  V30 27 N -2.800376 -5.477508 -1.970901 0
M  V30 28 C -1.817224 -4.435656 -2.036838 0
M  V30 29 C -2.494697 -3.113163 -2.241582 0
M  V30 30 C -2.028538 -1.471708 0.327539 0
M  V30 31 C -2.108073 -0.191137 0.857455 0
M  V30 32 H 1.026243 -1.950199 4.873894 0
M  V30 33 H 3.159026 -1.779690 3.794590 0
M  V30 34 H 4.410622 -1.015857 1.973573 0
M  V30 35 H 3.512473 -0.243397 -0.645379 0
M  V30 36 H 5.128829 -0.149854 0.036357 0
M  V30 37 H 2.242150 2.008431 -0.690029 0
M  V30 38 H 2.391670 4.451239 -0.449379 0
M  V30 39 H 4.262715 5.503355 0.632980 0
M  V30 40 H 6.093339 4.031920 1.541949 0
M  V30 41 H 5.943258 1.650188 1.318085 0
M  V30 42 H 1.202317 0.471719 0.719346 0
M  V30 43 H -2.929474 3.352340 1.940840 0
M  V30 44 H -4.769944 -0.251168 -0.864559 0
M  V30 45 H -4.523876 -2.539838 -1.744742 0
M  V30 46 H -2.888355 -3.904069 0.437804 0
M  V30 47 H -4.659289 -3.792017 0.275640 0
M  V30 48 H -3.610971 -6.033134 -0.137599 0
M  V30 49 H -4.776482 -5.442069 -1.374974 0
M  V30 50 H -3.230057 -5.536406 -2.935500 0
M  V30 51 H -1.157244 -4.497208 -1.176569 0
M  V30 52 H -1.196683 -4.614516 -2.948627 0
M  V30 53 H -2.980543 -3.181346 -3.257268 0
M  V30 54 H -1.801772 -2.273096 -2.312045 0
M  V30 55 H -1.252889 -2.215395 0.484198 0
M  V30 END ATOM
M  V30 BEGIN BOND
M  V30 1 1 1 2
M  V30 2 2 2 3
M  V30 3 1 3 4
M  V30 4 2 4 5
M  V30 5 1 5 6
M  V30 6 1 6 7
M  V30 7 1 7 8
M  V30 8 2 8 9
M  V30 9 1 9 10
M  V30 10 2 10 11
M  V30 11 1 11 12
M  V30 12 2 12 13
M  V30 13 1 5 14
M  V30 14 2 14 15
M  V30 15 1 15 16
M  V30 16 2 16 17
M  V30 17 1 17 18
M  V30 18 1 17 19
M  V30 19 2 19 20
M  V30 20 1 20 21
M  V30 21 1 21 22
M  V30 22 1 22 23
M  V30 23 1 23 24
M  V30 24 1 24 25
M  V30 25 1 25 26
M  V30 26 1 26 27
M  V30 27 1 27 28
M  V30 28 1 28 29
M  V30 29 2 23 30
M  V30 30 1 30 31
M  V30 31 1 15 2
M  V30 32 1 31 16
M  V30 33 1 13 8
M  V30 34 2 31 21
M  V30 35 1 29 24
M  V30 36 1 3 32
M  V30 37 1 4 33
M  V30 38 1 6 34
M  V30 39 1 7 35
M  V30 40 1 7 36
M  V30 41 1 9 37
M  V30 42 1 10 38
M  V30 43 1 11 39
M  V30 44 1 12 40
M  V30 45 1 13 41
M  V30 46 1 14 42
M  V30 47 1 19 43
M  V30 48 1 22 44
M  V30 49 1 24 45
M  V30 50 1 25 46
M  V30 51 1 25 47
M  V30 52 1 26 48
M  V30 53 1 26 49
M  V30 54 1 27 50
M  V30 55 1 28 51
M  V30 56 1 28 52
M  V30 57 1 29 53
M  V30 58 1 29 54
M  V30 59 1 30 55
M  V30 END BOND
M  V30 END CTAB
M  END
>  <Dataset>  (936) 
ChEMBL_Kinases

>  <Ligand_Instance>  (936) 
nan

>  <PDB_ID>  (936) 
nan

>  <Standardized_SMILES>  (936) 
Fc1ccc(NCc2ccccc2)cc1-c1c(Cl)cnc2[nH]c(C3CCNCC3)cc12

>  <Name>  (936) 
nan

>  <Pocket>  (936) 
nan

>  <ATP_Site>  (936) 
nan

>  <Peripheral>  (936) 
nan

>  <Num_H_Atoms_ProtBoundConf>  (936) 
nan

>  <Num_Resolved_Atoms>  (936) 
nan

>  <Num_Not_Resolved_Atoms>  (936) 
nan

$$$$
CHEMBL3668466
     RDKit          3D

  0  0  0  0  0  0  0  0  0  0999 V3000
M  V30 BEGIN CTAB
M  V30 COUNTS 56 60 0 0 0
M  V30 BEGIN ATOM
M  V30 1 F 1.486957 -2.814086 4.781350 0
M  V30 2 C 1.934605 -3.130770 3.541106 0 CFG=2
M  V30 3 C 3.326277 -3.796198 3.554732 0
M  V30 4 N 3.699407 -3.719078 2.127386 0
M  V30 5 C 3.126326 -2.483259 1.666444 0 CFG=2
M  V30 6 C 4.214711 -1.564126 1.113956 0
M  V30 7 N 3.696115 -0.320566 0.690713 0
M  V30 8 C 3.084051 0.874464 0.152776 0
M  V30 9 C 3.674377 1.894365 -0.590141 0
M  V30 10 C 2.813497 2.976880 -0.863383 0
M  V30 11 C 1.522253 2.917173 -0.391984 0
M  V30 12 Cl 0.549184 4.319877 -0.772621 0
M  V30 13 C 0.980730 1.854066 0.348224 0
M  V30 14 C -0.410726 1.853983 0.779045 0
M  V30 15 C -0.466432 2.635315 1.950504 0
M  V30 16 C -1.662838 2.715876 2.686191 0
M  V30 17 N -2.795472 2.038803 2.280991 0
M  V30 18 C -2.686796 1.307617 1.145272 0
M  V30 19 N -3.572356 0.557531 0.430505 0
M  V30 20 C -3.001920 0.045566 -0.672288 0
M  V30 21 C -3.720511 -0.755699 -1.741001 0
M  V30 22 C -4.785938 -1.611359 -1.163111 0
M  V30 23 C -4.626836 -3.098305 -1.332226 0
M  V30 24 N -3.306409 -3.540982 -1.555691 0
M  V30 25 C -2.610805 -2.877900 -2.605325 0
M  V30 26 C -2.809681 -1.390836 -2.702523 0
M  V30 27 C -1.659924 0.429663 -0.754081 0
M  V30 28 C -1.555248 1.204965 0.408124 0
M  V30 29 N 1.818336 0.853805 0.592003 0
M  V30 30 C 2.292499 -1.876878 2.746942 0
M  V30 31 H 1.206840 -3.712214 2.917115 0
M  V30 32 H 3.320426 -4.813324 3.951634 0
M  V30 33 H 3.997814 -3.107524 4.100652 0
M  V30 34 H 3.271824 -4.530047 1.670786 0
M  V30 35 H 2.477874 -2.731376 0.788436 0
M  V30 36 H 4.805520 -2.103697 0.338848 0
M  V30 37 H 4.949005 -1.463352 1.962695 0
M  V30 38 H 4.242970 0.305190 1.377203 0
M  V30 39 H 4.697927 1.682891 -0.851569 0
M  V30 40 H 3.277973 3.777975 -1.417031 0
M  V30 41 H 0.322167 3.246511 2.422105 0
M  V30 42 H -1.732638 3.310324 3.625557 0
M  V30 43 H -4.550378 0.460189 0.803822 0
M  V30 44 H -4.303462 0.036742 -2.356998 0
M  V30 45 H -5.781974 -1.372643 -1.660121 0
M  V30 46 H -4.943795 -1.334096 -0.088053 0
M  V30 47 H -5.005013 -3.565268 -0.367998 0
M  V30 48 H -5.301936 -3.531557 -2.096708 0
M  V30 49 H -2.758963 -3.891106 -0.788051 0
M  V30 50 H -2.817517 -3.383361 -3.556650 0
M  V30 51 H -1.509127 -3.053795 -2.422930 0
M  V30 52 H -1.817291 -0.836982 -2.740278 0
M  V30 53 H -3.239863 -1.219506 -3.743998 0
M  V30 54 H -0.877053 0.220303 -1.454003 0
M  V30 55 H 2.825894 -1.231607 3.445624 0
M  V30 56 H 1.318848 -1.464439 2.410864 0
M  V30 END ATOM
M  V30 BEGIN BOND
M  V30 1 1 1 2
M  V30 2 1 2 3
M  V30 3 1 3 4
M  V30 4 1 4 5
M  V30 5 1 5 6
M  V30 6 1 6 7
M  V30 7 1 7 8
M  V30 8 2 8 9
M  V30 9 1 9 10
M  V30 10 2 10 11
M  V30 11 1 11 12
M  V30 12 1 11 13
M  V30 13 1 13 14
M  V30 14 2 14 15
M  V30 15 1 15 16
M  V30 16 2 16 17
M  V30 17 1 17 18
M  V30 18 1 18 19
M  V30 19 1 19 20
M  V30 20 1 20 21
M  V30 21 1 21 22
M  V30 22 1 22 23
M  V30 23 1 23 24
M  V30 24 1 24 25
M  V30 25 1 25 26
M  V30 26 2 20 27
M  V30 27 1 27 28
M  V30 28 2 13 29
M  V30 29 1 5 30
M  V30 30 1 30 2
M  V30 31 1 29 8
M  V30 32 1 28 14
M  V30 33 2 28 18
M  V30 34 1 26 21
M  V30 35 1 2 31 CFG=3
M  V30 36 1 3 32
M  V30 37 1 3 33
M  V30 38 1 4 34
M  V30 39 1 5 35 CFG=3
M  V30 40 1 6 36
M  V30 41 1 6 37
M  V30 42 1 7 38
M  V30 43 1 9 39
M  V30 44 1 10 40
M  V30 45 1 15 41
M  V30 46 1 16 42
M  V30 47 1 19 43
M  V30 48 1 21 44
M  V30 49 1 22 45
M  V30 50 1 22 46
M  V30 51 1 23 47
M  V30 52 1 23 48
M  V30 53 1 24 49
M  V30 54 1 25 50
M  V30 55 1 25 51
M  V30 56 1 26 52
M  V30 57 1 26 53
M  V30 58 1 27 54
M  V30 59 1 30 55
M  V30 60 1 30 56
M  V30 END BOND
M  V30 END CTAB
M  END
>  <Dataset>  (937) 
ChEMBL_Kinases

>  <Ligand_Instance>  (937) 
nan

>  <PDB_ID>  (937) 
nan

>  <Standardized_SMILES>  (937) 
F[C@@H]1CN[C@H](CNc2ccc(Cl)c(-c3ccnc4[nH]c(C5CCNCC5)cc34)n2)C1

>  <Name>  (937) 
nan

>  <Pocket>  (937) 
nan

>  <ATP_Site>  (937) 
nan

>  <Peripheral>  (937) 
nan

>  <Num_H_Atoms_ProtBoundConf>  (937) 
nan

>  <Num_Resolved_Atoms>  (937) 
nan

>  <Num_Not_Resolved_Atoms>  (937) 
nan

$$$$
CHEMBL3668467
     RDKit          3D

  0  0  0  0  0  0  0  0  0  0999 V3000
M  V30 BEGIN CTAB
M  V30 COUNTS 59 63 0 0 0
M  V30 BEGIN ATOM
M  V30 1 N 2.844874 -6.903241 2.361515 0
M  V30 2 C 1.985641 -6.141942 2.497314 0
M  V30 3 C 0.884892 -5.197342 2.674495 0
M  V30 4 C 1.446799 -3.915390 3.239307 0
M  V30 5 N 2.427365 -3.266261 2.445727 0
M  V30 6 C 2.786723 -2.636336 1.233561 0
M  V30 7 C 2.478457 -1.267482 1.242168 0
M  V30 8 C 2.742031 -0.425547 0.153658 0
M  V30 9 C 2.417699 0.992901 0.207500 0
M  V30 10 C 3.434122 1.786077 0.721766 0
M  V30 11 C 3.313114 3.168865 0.857112 0
M  V30 12 N 2.130063 3.720218 0.455107 0
M  V30 13 C 1.125663 2.975673 -0.047949 0
M  V30 14 N -0.120353 3.250043 -0.513367 0
M  V30 15 C -0.717003 2.110624 -0.905877 0
M  V30 16 C -2.110600 2.082733 -1.474232 0
M  V30 17 C -3.107913 2.618920 -0.445592 0
M  V30 18 C -4.486718 2.386704 -1.005255 0
M  V30 19 N -4.576092 2.621017 -2.385958 0
M  V30 20 C -3.568369 3.407975 -2.991562 0
M  V30 21 C -2.169541 3.032911 -2.651385 0
M  V30 22 C 0.119403 1.030941 -0.713204 0
M  V30 23 C 1.248779 1.614991 -0.179973 0
M  V30 24 C 3.324898 -1.074234 -0.906800 0
M  V30 25 Cl 3.691687 -0.095569 -2.326448 0
M  V30 26 C 3.626629 -2.411142 -0.917006 0
M  V30 27 N 3.357625 -3.180999 0.147729 0
M  V30 28 C -0.093959 -5.821822 3.633765 0
M  V30 29 C -1.509081 -5.382949 3.404367 0
M  V30 30 O -1.872813 -5.362905 2.073196 0
M  V30 31 C -1.133544 -4.342593 1.459532 0
M  V30 32 C 0.280732 -4.916938 1.332872 0
M  V30 33 H 0.570809 -3.217666 3.388386 0
M  V30 34 H 1.827405 -4.067140 4.287138 0
M  V30 35 H 3.394513 -3.145133 2.881027 0
M  V30 36 H 2.009951 -0.753594 2.092070 0
M  V30 37 H 4.411575 1.414786 1.064818 0
M  V30 38 H 4.105904 3.793662 1.259565 0
M  V30 39 H -0.487808 4.223955 -0.532184 0
M  V30 40 H -2.341780 1.048356 -1.747691 0
M  V30 41 H -2.889448 3.717589 -0.384189 0
M  V30 42 H -2.916268 2.095975 0.489640 0
M  V30 43 H -4.766361 1.337914 -0.778413 0
M  V30 44 H -5.179951 3.007879 -0.376531 0
M  V30 45 H -5.214432 2.090877 -2.960648 0
M  V30 46 H -3.672991 3.355968 -4.095290 0
M  V30 47 H -3.784437 4.484346 -2.725756 0
M  V30 48 H -1.579846 2.654516 -3.513501 0
M  V30 49 H -1.638402 3.967430 -2.294850 0
M  V30 50 H -0.049358 -0.007535 -0.919882 0
M  V30 51 H 4.091455 -2.851797 -1.802692 0
M  V30 52 H -0.069183 -6.931507 3.613635 0
M  V30 53 H 0.199394 -5.515829 4.657394 0
M  V30 54 H -1.663791 -4.333801 3.776476 0
M  V30 55 H -2.240503 -6.012274 3.945672 0
M  V30 56 H -1.481509 -4.143973 0.426107 0
M  V30 57 H -1.177084 -3.469071 2.121015 0
M  V30 58 H 0.120289 -5.905748 0.806918 0
M  V30 59 H 0.889518 -4.311022 0.655230 0
M  V30 END ATOM
M  V30 BEGIN BOND
M  V30 1 3 1 2
M  V30 2 1 2 3
M  V30 3 1 3 4
M  V30 4 1 4 5
M  V30 5 1 5 6
M  V30 6 2 6 7
M  V30 7 1 7 8
M  V30 8 1 8 9
M  V30 9 2 9 10
M  V30 10 1 10 11
M  V30 11 2 11 12
M  V30 12 1 12 13
M  V30 13 1 13 14
M  V30 14 1 14 15
M  V30 15 1 15 16
M  V30 16 1 16 17
M  V30 17 1 17 18
M  V30 18 1 18 19
M  V30 19 1 19 20
M  V30 20 1 20 21
M  V30 21 2 15 22
M  V30 22 1 22 23
M  V30 23 2 8 24
M  V30 24 1 24 25
M  V30 25 1 24 26
M  V30 26 2 26 27
M  V30 27 1 3 28
M  V30 28 1 28 29
M  V30 29 1 29 30
M  V30 30 1 30 31
M  V30 31 1 31 32
M  V30 32 1 32 3
M  V30 33 1 27 6
M  V30 34 1 23 9
M  V30 35 2 23 13
M  V30 36 1 21 16
M  V30 37 1 4 33
M  V30 38 1 4 34
M  V30 39 1 5 35
M  V30 40 1 7 36
M  V30 41 1 10 37
M  V30 42 1 11 38
M  V30 43 1 14 39
M  V30 44 1 16 40
M  V30 45 1 17 41
M  V30 46 1 17 42
M  V30 47 1 18 43
M  V30 48 1 18 44
M  V30 49 1 19 45
M  V30 50 1 20 46
M  V30 51 1 20 47
M  V30 52 1 21 48
M  V30 53 1 21 49
M  V30 54 1 22 50
M  V30 55 1 26 51
M  V30 56 1 28 52
M  V30 57 1 28 53
M  V30 58 1 29 54
M  V30 59 1 29 55
M  V30 60 1 31 56
M  V30 61 1 31 57
M  V30 62 1 32 58
M  V30 63 1 32 59
M  V30 END BOND
M  V30 END CTAB
M  END
>  <Dataset>  (938) 
ChEMBL_Kinases

>  <Ligand_Instance>  (938) 
nan

>  <PDB_ID>  (938) 
nan

>  <Standardized_SMILES>  (938) 
N#CC1(CNc2cc(-c3ccnc4[nH]c(C5CCNCC5)cc34)c(Cl)cn2)CCOCC1

>  <Name>  (938) 
nan

>  <Pocket>  (938) 
nan

>  <ATP_Site>  (938) 
nan

>  <Peripheral>  (938) 
nan

>  <Num_H_Atoms_ProtBoundConf>  (938) 
nan

>  <Num_Resolved_Atoms>  (938) 
nan

>  <Num_Not_Resolved_Atoms>  (938) 
nan

$$$$
CHEMBL3668468
     RDKit          3D

  0  0  0  0  0  0  0  0  0  0999 V3000
M  V30 BEGIN CTAB
M  V30 COUNTS 56 60 0 0 0
M  V30 BEGIN ATOM
M  V30 1 F 1.296320 -3.989811 2.590272 0
M  V30 2 C 1.520700 -3.760203 1.253319 0
M  V30 3 F 1.135308 -4.835515 0.474122 0
M  V30 4 C 0.799398 -2.468636 0.848746 0
M  V30 5 N 1.605781 -1.479893 1.595939 0
M  V30 6 C 2.959604 -1.903478 1.402988 0 CFG=2
M  V30 7 C 3.858689 -1.016931 0.651485 0
M  V30 8 N 3.542076 -0.621587 -0.676293 0
M  V30 9 C 2.620045 0.495451 -0.674723 0
M  V30 10 C 2.637752 1.350637 -1.763896 0
M  V30 11 C 1.850723 2.495871 -1.807017 0
M  V30 12 C 1.018223 2.808148 -0.744780 0
M  V30 13 Cl -0.085018 4.145290 -0.522441 0
M  V30 14 C 1.005437 1.952933 0.323172 0
M  V30 15 C 0.193777 1.884176 1.561952 0
M  V30 16 C 0.494571 2.326984 2.829289 0
M  V30 17 C -0.389518 1.977566 3.812085 0
M  V30 18 N -1.525635 1.245478 3.655022 0
M  V30 19 C -1.842935 0.800189 2.414217 0
M  V30 20 N -2.906189 0.121412 1.893729 0
M  V30 21 C -2.806163 -0.027627 0.579304 0
M  V30 22 C -3.694726 -0.612177 -0.442579 0
M  V30 23 C -4.333884 -1.894938 0.072583 0
M  V30 24 C -3.257108 -2.931872 0.271908 0
M  V30 25 N -2.585927 -3.143650 -0.978657 0
M  V30 26 C -1.998136 -1.989551 -1.574657 0
M  V30 27 C -3.040816 -0.902562 -1.751608 0
M  V30 28 C -1.619919 0.588875 0.271948 0
M  V30 29 C -0.967347 1.129357 1.374631 0
M  V30 30 N 1.795880 0.870462 0.284280 0
M  V30 31 C 2.956717 -3.355326 0.967748 0
M  V30 32 H 0.967666 -2.369109 -0.234487 0
M  V30 33 H -0.242897 -2.465240 1.166182 0
M  V30 34 H 1.318630 -1.663266 2.600529 0
M  V30 35 H 3.436860 -1.962513 2.458475 0
M  V30 36 H 4.037809 -0.100446 1.285244 0
M  V30 37 H 4.870403 -1.518153 0.609186 0
M  V30 38 H 3.879266 -1.024770 -1.553439 0
M  V30 39 H 3.248076 1.198341 -2.656862 0
M  V30 40 H 1.778246 3.235621 -2.613787 0
M  V30 41 H 1.392996 2.894437 2.894636 0
M  V30 42 H -0.118944 2.341659 4.817748 0
M  V30 43 H -3.725826 -0.253301 2.457108 0
M  V30 44 H -4.571216 0.087076 -0.644482 0
M  V30 45 H -4.832645 -1.713599 1.047775 0
M  V30 46 H -5.015733 -2.295804 -0.704885 0
M  V30 47 H -2.604883 -2.600477 1.088654 0
M  V30 48 H -3.762882 -3.878547 0.544311 0
M  V30 49 H -1.945222 -3.972176 -0.963563 0
M  V30 50 H -1.724965 -2.298829 -2.628974 0
M  V30 51 H -1.092585 -1.631802 -1.099650 0
M  V30 52 H -2.634357 -0.005104 -2.262859 0
M  V30 53 H -3.846624 -1.340153 -2.409312 0
M  V30 54 H -1.209674 0.675840 -0.727111 0
M  V30 55 H 3.141421 -3.410161 -0.105879 0
M  V30 56 H 3.642904 -3.994460 1.566197 0
M  V30 END ATOM
M  V30 BEGIN BOND
M  V30 1 1 1 2
M  V30 2 1 2 3
M  V30 3 1 2 4
M  V30 4 1 4 5
M  V30 5 1 5 6
M  V30 6 1 6 7
M  V30 7 1 7 8
M  V30 8 1 8 9
M  V30 9 2 9 10
M  V30 10 1 10 11
M  V30 11 2 11 12
M  V30 12 1 12 13
M  V30 13 1 12 14
M  V30 14 1 14 15
M  V30 15 2 15 16
M  V30 16 1 16 17
M  V30 17 2 17 18
M  V30 18 1 18 19
M  V30 19 1 19 20
M  V30 20 1 20 21
M  V30 21 1 21 22
M  V30 22 1 22 23
M  V30 23 1 23 24
M  V30 24 1 24 25
M  V30 25 1 25 26
M  V30 26 1 26 27
M  V30 27 2 21 28
M  V30 28 1 28 29
M  V30 29 2 14 30
M  V30 30 1 6 31
M  V30 31 1 31 2
M  V30 32 1 30 9
M  V30 33 1 29 15
M  V30 34 2 29 19
M  V30 35 1 27 22
M  V30 36 1 4 32
M  V30 37 1 4 33
M  V30 38 1 5 34
M  V30 39 1 6 35 CFG=1
M  V30 40 1 7 36
M  V30 41 1 7 37
M  V30 42 1 8 38
M  V30 43 1 10 39
M  V30 44 1 11 40
M  V30 45 1 16 41
M  V30 46 1 17 42
M  V30 47 1 20 43
M  V30 48 1 22 44
M  V30 49 1 23 45
M  V30 50 1 23 46
M  V30 51 1 24 47
M  V30 52 1 24 48
M  V30 53 1 25 49
M  V30 54 1 26 50
M  V30 55 1 26 51
M  V30 56 1 27 52
M  V30 57 1 27 53
M  V30 58 1 28 54
M  V30 59 1 31 55
M  V30 60 1 31 56
M  V30 END BOND
M  V30 END CTAB
M  END
>  <Dataset>  (939) 
ChEMBL_Kinases

>  <Ligand_Instance>  (939) 
nan

>  <PDB_ID>  (939) 
nan

>  <Standardized_SMILES>  (939) 
FC1(F)CN[C@H](CNc2ccc(Cl)c(-c3ccnc4[nH]c(C5CCNCC5)cc34)n2)C1

>  <Name>  (939) 
nan

>  <Pocket>  (939) 
nan

>  <ATP_Site>  (939) 
nan

>  <Peripheral>  (939) 
nan

>  <Num_H_Atoms_ProtBoundConf>  (939) 
nan

>  <Num_Resolved_Atoms>  (939) 
nan

>  <Num_Not_Resolved_Atoms>  (939) 
nan

$$$$
CHEMBL3668469
     RDKit          3D

  0  0  0  0  0  0  0  0  0  0999 V3000
M  V30 BEGIN CTAB
M  V30 COUNTS 55 59 0 0 0
M  V30 BEGIN ATOM
M  V30 1 Cl 0.035873 -1.838184 4.888867 0
M  V30 2 C 1.187663 -1.279229 3.704099 0
M  V30 3 C 2.336287 -2.007563 3.534186 0
M  V30 4 C 3.320499 -1.677064 2.637654 0
M  V30 5 C 3.146674 -0.534922 1.851585 0
M  V30 6 N 4.085977 -0.077059 0.897997 0
M  V30 7 C 4.207580 0.998618 -0.050458 0
M  V30 8 C 3.221804 0.958802 -1.155267 0
M  V30 9 C 3.639549 0.130879 -2.207690 0
M  V30 10 C 2.893677 -0.063303 -3.365860 0
M  V30 11 C 1.682623 0.574404 -3.515649 0
M  V30 12 C 1.279482 1.380006 -2.488644 0
M  V30 13 C 2.005754 1.571771 -1.356597 0
M  V30 14 C 1.997088 0.182826 2.030696 0
M  V30 15 C 1.008232 -0.151263 2.932921 0
M  V30 16 C -0.234474 0.574707 3.165487 0
M  V30 17 C -0.322629 1.582646 4.103009 0
M  V30 18 C -1.558710 2.181997 4.216167 0
M  V30 19 N -2.630608 1.832476 3.477219 0
M  V30 20 C -2.523473 0.834091 2.556019 0
M  V30 21 N -3.442412 0.322301 1.718216 0
M  V30 22 C -2.866910 -0.655114 0.993017 0
M  V30 23 C -3.371829 -1.576576 -0.083885 0
M  V30 24 C -3.314907 -2.987027 0.483711 0
M  V30 25 C -3.620765 -4.026353 -0.546238 0
M  V30 26 C -3.499736 -3.451498 -1.929887 0
M  V30 27 N -2.295805 -2.669625 -2.001907 0
M  V30 28 C -2.518741 -1.428094 -1.301582 0
M  V30 29 C -1.551857 -0.753949 1.391497 0
M  V30 30 C -1.311300 0.186769 2.387693 0
M  V30 31 H 2.556019 -2.903469 4.096851 0
M  V30 32 H 4.228897 -2.255320 2.505030 0
M  V30 33 H 4.940967 -0.719863 0.887149 0
M  V30 34 H 5.230918 1.048660 -0.467649 0
M  V30 35 H 4.031619 1.978562 0.493642 0
M  V30 36 H 4.571335 -0.427752 -2.215895 0
M  V30 37 H 3.217132 -0.698609 -4.170291 0
M  V30 38 H 1.073758 0.458471 -4.383277 0
M  V30 39 H 0.339609 1.939644 -2.487448 0
M  V30 40 H 1.728820 2.203463 -0.533973 0
M  V30 41 H 1.711886 1.086529 1.511677 0
M  V30 42 H 0.525448 1.868895 4.697010 0
M  V30 43 H -1.662543 2.977010 4.942766 0
M  V30 44 H -4.447299 0.564670 1.574392 0
M  V30 45 H -4.433880 -1.334379 -0.249283 0
M  V30 46 H -4.073841 -3.050715 1.298439 0
M  V30 47 H -2.305862 -3.151311 0.936163 0
M  V30 48 H -4.676005 -4.393682 -0.410140 0
M  V30 49 H -2.983770 -4.922512 -0.419689 0
M  V30 50 H -3.522482 -4.239613 -2.710389 0
M  V30 51 H -4.346472 -2.789322 -2.119960 0
M  V30 52 H -1.445919 -3.177740 -1.688977 0
M  V30 53 H -3.008314 -0.727899 -2.008676 0
M  V30 54 H -1.538414 -1.001810 -0.998542 0
M  V30 55 H -0.751129 -1.408312 1.061940 0
M  V30 END ATOM
M  V30 BEGIN BOND
M  V30 1 1 1 2
M  V30 2 2 2 3
M  V30 3 1 3 4
M  V30 4 2 4 5
M  V30 5 1 5 6
M  V30 6 1 6 7
M  V30 7 1 7 8
M  V30 8 2 8 9
M  V30 9 1 9 10
M  V30 10 2 10 11
M  V30 11 1 11 12
M  V30 12 2 12 13
M  V30 13 1 5 14
M  V30 14 2 14 15
M  V30 15 1 15 16
M  V30 16 2 16 17
M  V30 17 1 17 18
M  V30 18 2 18 19
M  V30 19 1 19 20
M  V30 20 1 20 21
M  V30 21 1 21 22
M  V30 22 1 22 23
M  V30 23 1 23 24
M  V30 24 1 24 25
M  V30 25 1 25 26
M  V30 26 1 26 27
M  V30 27 1 27 28
M  V30 28 2 22 29
M  V30 29 1 29 30
M  V30 30 1 15 2
M  V30 31 1 30 16
M  V30 32 1 13 8
M  V30 33 2 30 20
M  V30 34 1 28 23
M  V30 35 1 3 31
M  V30 36 1 4 32
M  V30 37 1 6 33
M  V30 38 1 7 34
M  V30 39 1 7 35
M  V30 40 1 9 36
M  V30 41 1 10 37
M  V30 42 1 11 38
M  V30 43 1 12 39
M  V30 44 1 13 40
M  V30 45 1 14 41
M  V30 46 1 17 42
M  V30 47 1 18 43
M  V30 48 1 21 44
M  V30 49 1 23 45
M  V30 50 1 24 46
M  V30 51 1 24 47
M  V30 52 1 25 48
M  V30 53 1 25 49
M  V30 54 1 26 50
M  V30 55 1 26 51
M  V30 56 1 27 52
M  V30 57 1 28 53
M  V30 58 1 28 54
M  V30 59 1 29 55
M  V30 END BOND
M  V30 END CTAB
M  END
>  <Dataset>  (940) 
ChEMBL_Kinases

>  <Ligand_Instance>  (940) 
nan

>  <PDB_ID>  (940) 
nan

>  <Standardized_SMILES>  (940) 
Clc1ccc(NCc2ccccc2)cc1-c1ccnc2[nH]c(C3CCCNC3)cc12

>  <Name>  (940) 
nan

>  <Pocket>  (940) 
nan

>  <ATP_Site>  (940) 
nan

>  <Peripheral>  (940) 
nan

>  <Num_H_Atoms_ProtBoundConf>  (940) 
nan

>  <Num_Resolved_Atoms>  (940) 
nan

>  <Num_Not_Resolved_Atoms>  (940) 
nan

$$$$
CHEMBL3668479
     RDKit          3D

  0  0  0  0  0  0  0  0  0  0999 V3000
M  V30 BEGIN CTAB
M  V30 COUNTS 52 56 0 0 0
M  V30 BEGIN ATOM
M  V30 1 Cl 0.272698 -0.099844 5.639844 0
M  V30 2 C 1.251729 0.499703 4.301130 0
M  V30 3 C 2.640860 0.500543 4.475563 0
M  V30 4 C 3.421500 0.976068 3.411478 0
M  V30 5 C 2.868865 1.437645 2.215386 0
M  V30 6 O 3.886083 1.831271 1.389725 0
M  V30 7 C 3.669350 2.350719 0.121070 0
M  V30 8 C 2.958503 1.484715 -0.821305 0
M  V30 9 C 3.668375 0.572821 -1.558392 0
M  V30 10 C 2.983916 -0.228513 -2.447615 0
M  V30 11 C 1.621359 -0.108644 -2.586367 0
M  V30 12 N 0.901631 0.790011 -1.863963 0
M  V30 13 C 1.604105 1.568711 -0.993024 0
M  V30 14 N 1.536506 1.406047 2.121832 0
M  V30 15 C 0.740329 0.963162 3.101813 0
M  V30 16 C -0.705634 0.848717 3.064482 0
M  V30 17 C -1.596447 1.505567 3.885532 0
M  V30 18 C -2.976224 1.354931 3.792559 0
M  V30 19 N -3.470689 0.508719 2.833910 0
M  V30 20 C -2.651411 -0.162038 2.003677 0
M  V30 21 N -2.838682 -1.045196 1.011680 0
M  V30 22 C -1.689615 -1.468380 0.466033 0
M  V30 23 C -1.358806 -2.446416 -0.597888 0
M  V30 24 C -2.331194 -2.378442 -1.715910 0
M  V30 25 C -3.366501 -3.484247 -1.515952 0
M  V30 26 C -2.629882 -4.795713 -1.672975 0
M  V30 27 N -1.534747 -4.912204 -0.777130 0
M  V30 28 C -1.307887 -3.805439 0.074195 0
M  V30 29 C -0.684828 -0.795498 1.171099 0
M  V30 30 C -1.289060 0.013615 2.125006 0
M  V30 31 H 3.060174 0.139069 5.411983 0
M  V30 32 H 4.492300 0.920926 3.680028 0
M  V30 33 H 3.103456 3.329825 0.147086 0
M  V30 34 H 4.684592 2.660623 -0.274517 0
M  V30 35 H 4.713917 0.401014 -1.529185 0
M  V30 36 H 3.387789 -1.002133 -3.107278 0
M  V30 37 H 1.008255 -0.705487 -3.269172 0
M  V30 38 H 0.976908 2.285921 -0.437868 0
M  V30 39 H -1.160470 2.178613 4.636632 0
M  V30 40 H -3.613388 1.905559 4.468702 0
M  V30 41 H -3.756394 -1.361324 0.697229 0
M  V30 42 H -0.315136 -2.268107 -0.996656 0
M  V30 43 H -1.841621 -2.479807 -2.718247 0
M  V30 44 H -2.826416 -1.382874 -1.755343 0
M  V30 45 H -3.728479 -3.430018 -0.471574 0
M  V30 46 H -4.146148 -3.388480 -2.285056 0
M  V30 47 H -3.381916 -5.632095 -1.532198 0
M  V30 48 H -2.281446 -4.870328 -2.720600 0
M  V30 49 H -0.723854 -5.458310 -1.075284 0
M  V30 50 H -0.267842 -3.902577 0.507556 0
M  V30 51 H -1.991993 -3.825530 0.952354 0
M  V30 52 H 0.377849 -0.893414 0.999603 0
M  V30 END ATOM
M  V30 BEGIN BOND
M  V30 1 1 1 2
M  V30 2 2 2 3
M  V30 3 1 3 4
M  V30 4 2 4 5
M  V30 5 1 5 6
M  V30 6 1 6 7
M  V30 7 1 7 8
M  V30 8 2 8 9
M  V30 9 1 9 10
M  V30 10 2 10 11
M  V30 11 1 11 12
M  V30 12 2 12 13
M  V30 13 1 5 14
M  V30 14 2 14 15
M  V30 15 1 15 16
M  V30 16 2 16 17
M  V30 17 1 17 18
M  V30 18 2 18 19
M  V30 19 1 19 20
M  V30 20 1 20 21
M  V30 21 1 21 22
M  V30 22 1 22 23
M  V30 23 1 23 24
M  V30 24 1 24 25
M  V30 25 1 25 26
M  V30 26 1 26 27
M  V30 27 1 27 28
M  V30 28 2 22 29
M  V30 29 1 29 30
M  V30 30 1 15 2
M  V30 31 1 30 16
M  V30 32 1 13 8
M  V30 33 2 30 20
M  V30 34 1 28 23
M  V30 35 1 3 31
M  V30 36 1 4 32
M  V30 37 1 7 33
M  V30 38 1 7 34
M  V30 39 1 9 35
M  V30 40 1 10 36
M  V30 41 1 11 37
M  V30 42 1 13 38
M  V30 43 1 17 39
M  V30 44 1 18 40
M  V30 45 1 21 41
M  V30 46 1 23 42
M  V30 47 1 24 43
M  V30 48 1 24 44
M  V30 49 1 25 45
M  V30 50 1 25 46
M  V30 51 1 26 47
M  V30 52 1 26 48
M  V30 53 1 27 49
M  V30 54 1 28 50
M  V30 55 1 28 51
M  V30 56 1 29 52
M  V30 END BOND
M  V30 END CTAB
M  END
>  <Dataset>  (941) 
ChEMBL_Kinases

>  <Ligand_Instance>  (941) 
nan

>  <PDB_ID>  (941) 
nan

>  <Standardized_SMILES>  (941) 
Clc1ccc(OCc2cccnc2)nc1-c1ccnc2[nH]c(C3CCCNC3)cc12

>  <Name>  (941) 
nan

>  <Pocket>  (941) 
nan

>  <ATP_Site>  (941) 
nan

>  <Peripheral>  (941) 
nan

>  <Num_H_Atoms_ProtBoundConf>  (941) 
nan

>  <Num_Resolved_Atoms>  (941) 
nan

>  <Num_Not_Resolved_Atoms>  (941) 
nan

$$$$
CHEMBL3668471
     RDKit          3D

  0  0  0  0  0  0  0  0  0  0999 V3000
M  V30 BEGIN CTAB
M  V30 COUNTS 44 47 0 0 0
M  V30 BEGIN ATOM
M  V30 1 C -1.494823 -4.010939 -1.302052 0
M  V30 2 O -0.880921 -2.755122 -1.456131 0
M  V30 3 C 0.473318 -2.638053 -1.696355 0
M  V30 4 C 1.438603 -3.635447 -1.826978 0
M  V30 5 C 2.742224 -3.313635 -2.066078 0
M  V30 6 F 3.617904 -4.336416 -2.180143 0
M  V30 7 C 3.165375 -2.005932 -2.188893 0
M  V30 8 F 4.470413 -1.744641 -2.425974 0
M  V30 9 C 2.202816 -1.003468 -2.058935 0
M  V30 10 C 0.862736 -1.318492 -1.813740 0
M  V30 11 C 0.055430 -0.115267 -1.718375 0
M  V30 12 C -0.530002 0.406449 -2.854660 0
M  V30 13 C -1.296970 1.552650 -2.753630 0
M  V30 14 N -1.495773 2.187071 -1.568554 0
M  V30 15 C -0.917510 1.665335 -0.468201 0
M  V30 16 N -0.949459 2.084440 0.811917 0
M  V30 17 C -0.212924 1.233504 1.573084 0
M  V30 18 C 0.086367 1.224403 3.039127 0
M  V30 19 C -0.449004 -0.068144 3.669603 0
M  V30 20 C -0.564057 0.248901 5.149826 0
M  V30 21 C 0.729515 0.929369 5.539364 0
M  V30 22 N 1.797224 0.645055 4.604553 0
M  V30 23 C 1.550922 1.279119 3.309561 0
M  V30 24 C 0.310015 0.236055 0.762289 0
M  V30 25 C -0.141596 0.523198 -0.510513 0
M  V30 26 H -2.589043 -3.911800 -1.408251 0
M  V30 27 H -1.127580 -4.660086 -2.141894 0
M  V30 28 H -1.198546 -4.520393 -0.370237 0
M  V30 29 H 1.034446 -4.621795 -1.719538 0
M  V30 30 H 2.622803 -0.008270 -2.169452 0
M  V30 31 H -0.375545 -0.098881 -3.818078 0
M  V30 32 H -1.734980 1.927283 -3.657695 0
M  V30 33 H -1.421549 2.902567 1.260994 0
M  V30 34 H -0.410299 2.090437 3.530798 0
M  V30 35 H -1.439971 -0.327751 3.234153 0
M  V30 36 H 0.322278 -0.852956 3.530076 0
M  V30 37 H -0.769315 -0.646004 5.753000 0
M  V30 38 H -1.384941 0.988644 5.235728 0
M  V30 39 H 1.037833 0.493487 6.510707 0
M  V30 40 H 0.614394 2.028555 5.680680 0
M  V30 41 H 2.677215 1.020286 5.023363 0
M  V30 42 H 2.005827 2.289762 3.238283 0
M  V30 43 H 2.024346 0.571359 2.567823 0
M  V30 44 H 0.940690 -0.605255 1.027016 0
M  V30 END ATOM
M  V30 BEGIN BOND
M  V30 1 1 1 2
M  V30 2 1 2 3
M  V30 3 2 3 4
M  V30 4 1 4 5
M  V30 5 1 5 6
M  V30 6 2 5 7
M  V30 7 1 7 8
M  V30 8 1 7 9
M  V30 9 2 9 10
M  V30 10 1 10 11
M  V30 11 2 11 12
M  V30 12 1 12 13
M  V30 13 2 13 14
M  V30 14 1 14 15
M  V30 15 1 15 16
M  V30 16 1 16 17
M  V30 17 1 17 18
M  V30 18 1 18 19
M  V30 19 1 19 20
M  V30 20 1 20 21
M  V30 21 1 21 22
M  V30 22 1 22 23
M  V30 23 2 17 24
M  V30 24 1 24 25
M  V30 25 1 10 3
M  V30 26 1 25 11
M  V30 27 2 25 15
M  V30 28 1 23 18
M  V30 29 1 1 26
M  V30 30 1 1 27
M  V30 31 1 1 28
M  V30 32 1 4 29
M  V30 33 1 9 30
M  V30 34 1 12 31
M  V30 35 1 13 32
M  V30 36 1 16 33
M  V30 37 1 18 34
M  V30 38 1 19 35
M  V30 39 1 19 36
M  V30 40 1 20 37
M  V30 41 1 20 38
M  V30 42 1 21 39
M  V30 43 1 21 40
M  V30 44 1 22 41
M  V30 45 1 23 42
M  V30 46 1 23 43
M  V30 47 1 24 44
M  V30 END BOND
M  V30 END CTAB
M  END
>  <Dataset>  (942) 
ChEMBL_Kinases

>  <Ligand_Instance>  (942) 
nan

>  <PDB_ID>  (942) 
nan

>  <Standardized_SMILES>  (942) 
COc1cc(F)c(F)cc1-c1ccnc2[nH]c(C3CCCNC3)cc12

>  <Name>  (942) 
nan

>  <Pocket>  (942) 
nan

>  <ATP_Site>  (942) 
nan

>  <Peripheral>  (942) 
nan

>  <Num_H_Atoms_ProtBoundConf>  (942) 
nan

>  <Num_Resolved_Atoms>  (942) 
nan

>  <Num_Not_Resolved_Atoms>  (942) 
nan

$$$$
CHEMBL3668472
     RDKit          3D

  0  0  0  0  0  0  0  0  0  0999 V3000
M  V30 BEGIN CTAB
M  V30 COUNTS 54 58 0 0 0
M  V30 BEGIN ATOM
M  V30 1 F 0.677967 -4.200824 1.196007 0
M  V30 2 C 1.621795 -3.348278 0.760877 0
M  V30 3 C 2.732145 -3.089293 1.547927 0
M  V30 4 C 3.728524 -2.223992 1.167051 0
M  V30 5 C 3.620176 -1.591345 -0.043318 0
M  V30 6 C 4.563187 -0.632654 -0.688201 0
M  V30 7 N 4.379213 0.705670 -0.202565 0
M  V30 8 C 3.361862 1.646105 0.102277 0
M  V30 9 C 3.335881 2.990867 -0.213690 0
M  V30 10 C 2.259328 3.719445 0.246221 0
M  V30 11 C 1.302024 3.071166 0.974123 0
M  V30 12 Cl 0.021109 4.193453 1.462936 0
M  V30 13 C 1.325514 1.704104 1.298765 0
M  V30 14 C 0.144624 1.373447 2.088438 0
M  V30 15 C -0.013163 2.104345 3.277501 0
M  V30 16 C -1.058713 1.934904 4.141051 0
M  V30 17 N -1.961056 1.027400 3.820542 0
M  V30 18 C -1.881967 0.283924 2.697051 0
M  V30 19 N -2.646051 -0.681988 2.123088 0
M  V30 20 C -2.083409 -1.088030 0.948077 0
M  V30 21 C -2.724190 -2.120944 0.054948 0
M  V30 22 C -4.083323 -2.491711 0.564861 0
M  V30 23 C -4.585383 -3.681314 -0.206365 0
M  V30 24 C -4.072351 -3.577278 -1.619768 0
M  V30 25 N -3.893556 -2.216835 -2.039313 0
M  V30 26 C -2.908014 -1.478350 -1.321485 0
M  V30 27 C -0.929735 -0.395896 0.721663 0
M  V30 28 C -0.822817 0.441732 1.803642 0
M  V30 29 N 2.400088 1.025044 0.826104 0
M  V30 30 C 2.486450 -1.870638 -0.824314 0
M  V30 31 C 1.481806 -2.728859 -0.463342 0
M  V30 32 F 0.424322 -2.965957 -1.233604 0
M  V30 33 H 2.876032 -3.555290 2.535113 0
M  V30 34 H 4.623786 -1.957442 1.701304 0
M  V30 35 H 5.598607 -0.954968 -0.390889 0
M  V30 36 H 4.502535 -0.684478 -1.774654 0
M  V30 37 H 5.263200 1.241431 0.038389 0
M  V30 38 H 4.172612 3.324324 -0.793063 0
M  V30 39 H 2.285191 4.761815 -0.020027 0
M  V30 40 H 0.733386 2.847567 3.535938 0
M  V30 41 H -1.184391 2.490788 5.054627 0
M  V30 42 H -3.512160 -0.978644 2.627147 0
M  V30 43 H -2.068851 -2.987713 -0.135729 0
M  V30 44 H -4.095356 -2.672134 1.663978 0
M  V30 45 H -4.808846 -1.662425 0.359040 0
M  V30 46 H -5.697463 -3.764564 -0.167343 0
M  V30 47 H -4.119630 -4.590666 0.270360 0
M  V30 48 H -4.897067 -3.982466 -2.270794 0
M  V30 49 H -3.207479 -4.243044 -1.829285 0
M  V30 50 H -3.660065 -2.269959 -3.076553 0
M  V30 51 H -3.285778 -0.456390 -1.139448 0
M  V30 52 H -1.933019 -1.395634 -1.842884 0
M  V30 53 H -0.239632 -0.466807 -0.104286 0
M  V30 54 H 2.343061 -1.404174 -1.799428 0
M  V30 END ATOM
M  V30 BEGIN BOND
M  V30 1 1 1 2
M  V30 2 2 2 3
M  V30 3 1 3 4
M  V30 4 2 4 5
M  V30 5 1 5 6
M  V30 6 1 6 7
M  V30 7 1 7 8
M  V30 8 2 8 9
M  V30 9 1 9 10
M  V30 10 2 10 11
M  V30 11 1 11 12
M  V30 12 1 11 13
M  V30 13 1 13 14
M  V30 14 2 14 15
M  V30 15 1 15 16
M  V30 16 2 16 17
M  V30 17 1 17 18
M  V30 18 1 18 19
M  V30 19 1 19 20
M  V30 20 1 20 21
M  V30 21 1 21 22
M  V30 22 1 22 23
M  V30 23 1 23 24
M  V30 24 1 24 25
M  V30 25 1 25 26
M  V30 26 2 20 27
M  V30 27 1 27 28
M  V30 28 2 13 29
M  V30 29 1 5 30
M  V30 30 2 30 31
M  V30 31 1 31 32
M  V30 32 1 31 2
M  V30 33 1 29 8
M  V30 34 1 28 14
M  V30 35 2 28 18
M  V30 36 1 26 21
M  V30 37 1 3 33
M  V30 38 1 4 34
M  V30 39 1 6 35
M  V30 40 1 6 36
M  V30 41 1 7 37
M  V30 42 1 9 38
M  V30 43 1 10 39
M  V30 44 1 15 40
M  V30 45 1 16 41
M  V30 46 1 19 42
M  V30 47 1 21 43
M  V30 48 1 22 44
M  V30 49 1 22 45
M  V30 50 1 23 46
M  V30 51 1 23 47
M  V30 52 1 24 48
M  V30 53 1 24 49
M  V30 54 1 25 50
M  V30 55 1 26 51
M  V30 56 1 26 52
M  V30 57 1 27 53
M  V30 58 1 30 54
M  V30 END BOND
M  V30 END CTAB
M  END
>  <Dataset>  (943) 
ChEMBL_Kinases

>  <Ligand_Instance>  (943) 
nan

>  <PDB_ID>  (943) 
nan

>  <Standardized_SMILES>  (943) 
Fc1ccc(CNc2ccc(Cl)c(-c3ccnc4[nH]c(C5CCCNC5)cc34)n2)cc1F

>  <Name>  (943) 
nan

>  <Pocket>  (943) 
nan

>  <ATP_Site>  (943) 
nan

>  <Peripheral>  (943) 
nan

>  <Num_H_Atoms_ProtBoundConf>  (943) 
nan

>  <Num_Resolved_Atoms>  (943) 
nan

>  <Num_Not_Resolved_Atoms>  (943) 
nan

$$$$
CHEMBL3668473
     RDKit          3D

  0  0  0  0  0  0  0  0  0  0999 V3000
M  V30 BEGIN CTAB
M  V30 COUNTS 54 58 0 0 0
M  V30 BEGIN ATOM
M  V30 1 F 3.574300 -4.089997 1.234212 0
M  V30 2 C 3.068976 -3.280379 0.243543 0
M  V30 3 C 1.906807 -3.725901 -0.331086 0
M  V30 4 C 1.322828 -2.956514 -1.342909 0
M  V30 5 C 1.875708 -1.774883 -1.777666 0
M  V30 6 C 3.035446 -1.342413 -1.197252 0
M  V30 7 C 3.853770 -0.098024 -1.407364 0
M  V30 8 N 3.558386 0.883325 -0.409047 0
M  V30 9 C 2.876910 1.827696 0.378949 0
M  V30 10 C 2.997951 3.207982 0.481526 0
M  V30 11 C 2.121572 3.756542 1.393524 0
M  V30 12 C 1.233562 3.014799 2.116159 0
M  V30 13 Cl 0.243047 3.931654 3.212522 0
M  V30 14 C 1.145010 1.647837 1.984172 0
M  V30 15 C 0.115136 1.059417 2.818423 0
M  V30 16 C 0.243185 1.247493 4.173681 0
M  V30 17 C -0.696121 0.718700 5.015807 0
M  V30 18 N -1.782367 -0.000091 4.609403 0
M  V30 19 C -1.915809 -0.188741 3.266376 0
M  V30 20 N -2.814528 -0.805353 2.481594 0
M  V30 21 C -2.493649 -0.694976 1.185957 0
M  V30 22 C -3.376703 -1.288224 0.108030 0
M  V30 23 C -2.772806 -1.199215 -1.226474 0
M  V30 24 C -2.970043 -2.313651 -2.183059 0
M  V30 25 C -3.516458 -3.568275 -1.564413 0
M  V30 26 N -2.978703 -3.629870 -0.190157 0
M  V30 27 C -3.780900 -2.657020 0.530285 0
M  V30 28 C -1.306116 0.037459 1.062396 0
M  V30 29 C -0.991111 0.327088 2.396290 0
M  V30 30 N 1.995888 1.095625 1.094128 0
M  V30 31 C 3.635299 -2.102169 -0.177298 0
M  V30 32 H 1.428614 -4.646973 -0.022983 0
M  V30 33 H 0.400485 -3.239634 -1.847115 0
M  V30 34 H 1.538910 -1.094776 -2.542221 0
M  V30 35 H 3.577061 0.358381 -2.411112 0
M  V30 36 H 4.894575 -0.387148 -1.524251 0
M  V30 37 H 4.465219 0.995297 0.138683 0
M  V30 38 H 3.749363 3.602712 -0.166671 0
M  V30 39 H 2.245980 4.849915 1.447729 0
M  V30 40 H 1.045328 1.800524 4.674594 0
M  V30 41 H -0.673866 0.822198 6.084359 0
M  V30 42 H -3.628029 -1.279698 2.968280 0
M  V30 43 H -4.361631 -0.691762 0.123088 0
M  V30 44 H -1.670279 -0.951100 -1.205756 0
M  V30 45 H -3.205657 -0.265679 -1.716322 0
M  V30 46 H -3.700611 -2.028385 -2.979099 0
M  V30 47 H -1.998048 -2.593919 -2.686017 0
M  V30 48 H -4.626510 -3.527488 -1.497513 0
M  V30 49 H -3.117383 -4.452870 -2.075367 0
M  V30 50 H -3.206350 -4.592097 0.202568 0
M  V30 51 H -3.554086 -2.802639 1.616305 0
M  V30 52 H -4.861264 -2.855156 0.332701 0
M  V30 53 H -0.819920 0.276982 0.153418 0
M  V30 54 H 4.560589 -1.860053 0.361148 0
M  V30 END ATOM
M  V30 BEGIN BOND
M  V30 1 1 1 2
M  V30 2 2 2 3
M  V30 3 1 3 4
M  V30 4 2 4 5
M  V30 5 1 5 6
M  V30 6 1 6 7
M  V30 7 1 7 8
M  V30 8 1 8 9
M  V30 9 2 9 10
M  V30 10 1 10 11
M  V30 11 2 11 12
M  V30 12 1 12 13
M  V30 13 1 12 14
M  V30 14 1 14 15
M  V30 15 2 15 16
M  V30 16 1 16 17
M  V30 17 2 17 18
M  V30 18 1 18 19
M  V30 19 1 19 20
M  V30 20 1 20 21
M  V30 21 1 21 22
M  V30 22 1 22 23
M  V30 23 1 23 24
M  V30 24 1 24 25
M  V30 25 1 25 26
M  V30 26 1 26 27
M  V30 27 2 21 28
M  V30 28 1 28 29
M  V30 29 2 14 30
M  V30 30 2 6 31
M  V30 31 1 31 2
M  V30 32 1 30 9
M  V30 33 1 29 15
M  V30 34 2 29 19
M  V30 35 1 27 22
M  V30 36 1 3 32
M  V30 37 1 4 33
M  V30 38 1 5 34
M  V30 39 1 7 35
M  V30 40 1 7 36
M  V30 41 1 8 37
M  V30 42 1 10 38
M  V30 43 1 11 39
M  V30 44 1 16 40
M  V30 45 1 17 41
M  V30 46 1 20 42
M  V30 47 1 22 43
M  V30 48 1 23 44
M  V30 49 1 23 45
M  V30 50 1 24 46
M  V30 51 1 24 47
M  V30 52 1 25 48
M  V30 53 1 25 49
M  V30 54 1 26 50
M  V30 55 1 27 51
M  V30 56 1 27 52
M  V30 57 1 28 53
M  V30 58 1 31 54
M  V30 END BOND
M  V30 END CTAB
M  END
>  <Dataset>  (944) 
ChEMBL_Kinases

>  <Ligand_Instance>  (944) 
nan

>  <PDB_ID>  (944) 
nan

>  <Standardized_SMILES>  (944) 
Fc1cccc(CNc2ccc(Cl)c(-c3ccnc4[nH]c(C5CCCNC5)cc34)n2)c1

>  <Name>  (944) 
nan

>  <Pocket>  (944) 
nan

>  <ATP_Site>  (944) 
nan

>  <Peripheral>  (944) 
nan

>  <Num_H_Atoms_ProtBoundConf>  (944) 
nan

>  <Num_Resolved_Atoms>  (944) 
nan

>  <Num_Not_Resolved_Atoms>  (944) 
nan

$$$$
CHEMBL3668474
     RDKit          3D

  0  0  0  0  0  0  0  0  0  0999 V3000
M  V30 BEGIN CTAB
M  V30 COUNTS 54 58 0 0 0
M  V30 BEGIN ATOM
M  V30 1 F 0.192486 -5.204136 0.122462 0
M  V30 2 C 1.144569 -4.273343 0.319348 0
M  V30 3 C 1.196021 -3.302310 1.287900 0
M  V30 4 C 2.191676 -2.388207 1.434695 0
M  V30 5 C 3.265783 -2.380704 0.577048 0
M  V30 6 C 4.427554 -1.488566 0.598859 0
M  V30 7 N 4.354767 -0.299054 -0.194270 0
M  V30 8 C 3.459734 0.805287 -0.159996 0
M  V30 9 C 3.726694 1.912046 -0.962300 0
M  V30 10 C 2.995761 3.071974 -1.053511 0
M  V30 11 C 1.883024 3.094314 -0.236638 0
M  V30 12 Cl 0.888548 4.542899 -0.292234 0
M  V30 13 C 1.576654 2.024276 0.572616 0
M  V30 14 C 0.360313 2.110129 1.366658 0
M  V30 15 C 0.279531 3.003532 2.451499 0
M  V30 16 C -0.870775 2.954288 3.171251 0
M  V30 17 N -1.923518 2.159652 2.965033 0
M  V30 18 C -1.887073 1.290596 1.933398 0
M  V30 19 N -2.756386 0.384809 1.433767 0
M  V30 20 C -2.235010 -0.235922 0.331622 0
M  V30 21 C -2.793916 -1.283164 -0.558601 0
M  V30 22 C -4.261640 -1.153976 -0.644209 0
M  V30 23 C -5.087147 -2.033172 0.237000 0
M  V30 24 C -4.367707 -3.097686 0.997165 0
M  V30 25 N -2.984277 -2.785534 1.267326 0
M  V30 26 C -2.347474 -2.633965 -0.030906 0
M  V30 27 C -1.002722 0.342329 0.193042 0
M  V30 28 C -0.724721 1.292428 1.150653 0
M  V30 29 N 2.346385 0.889696 0.620508 0
M  V30 30 C 3.239419 -3.363782 -0.424175 0
M  V30 31 C 2.229241 -4.290018 -0.572634 0
M  V30 32 H 0.331084 -3.323482 1.967131 0
M  V30 33 H 2.196953 -1.642076 2.210257 0
M  V30 34 H 5.328415 -2.092371 0.277219 0
M  V30 35 H 4.702329 -1.241887 1.676915 0
M  V30 36 H 5.101528 -0.242462 -0.927201 0
M  V30 37 H 4.616060 1.906790 -1.625711 0
M  V30 38 H 3.267794 3.875479 -1.697836 0
M  V30 39 H 1.109956 3.675156 2.659888 0
M  V30 40 H -0.979549 3.627067 4.021240 0
M  V30 41 H -3.696780 0.159392 1.805029 0
M  V30 42 H -2.289690 -1.211999 -1.572642 0
M  V30 43 H -4.548899 -1.244869 -1.730492 0
M  V30 44 H -4.522647 -0.076633 -0.417582 0
M  V30 45 H -5.701493 -1.438240 0.941824 0
M  V30 46 H -5.814810 -2.566628 -0.418045 0
M  V30 47 H -4.358045 -4.069973 0.459179 0
M  V30 48 H -4.854478 -3.284812 1.974849 0
M  V30 49 H -2.554537 -3.618188 1.720206 0
M  V30 50 H -1.256720 -2.592818 0.031567 0
M  V30 51 H -2.714157 -3.415382 -0.741151 0
M  V30 52 H -0.287216 0.100601 -0.585526 0
M  V30 53 H 4.055385 -3.431673 -1.152819 0
M  V30 54 H 2.244680 -5.039164 -1.369973 0
M  V30 END ATOM
M  V30 BEGIN BOND
M  V30 1 1 1 2
M  V30 2 2 2 3
M  V30 3 1 3 4
M  V30 4 2 4 5
M  V30 5 1 5 6
M  V30 6 1 6 7
M  V30 7 1 7 8
M  V30 8 2 8 9
M  V30 9 1 9 10
M  V30 10 2 10 11
M  V30 11 1 11 12
M  V30 12 1 11 13
M  V30 13 1 13 14
M  V30 14 2 14 15
M  V30 15 1 15 16
M  V30 16 2 16 17
M  V30 17 1 17 18
M  V30 18 1 18 19
M  V30 19 1 19 20
M  V30 20 1 20 21
M  V30 21 1 21 22
M  V30 22 1 22 23
M  V30 23 1 23 24
M  V30 24 1 24 25
M  V30 25 1 25 26
M  V30 26 2 20 27
M  V30 27 1 27 28
M  V30 28 2 13 29
M  V30 29 1 5 30
M  V30 30 2 30 31
M  V30 31 1 31 2
M  V30 32 1 29 8
M  V30 33 1 28 14
M  V30 34 2 28 18
M  V30 35 1 26 21
M  V30 36 1 3 32
M  V30 37 1 4 33
M  V30 38 1 6 34
M  V30 39 1 6 35
M  V30 40 1 7 36
M  V30 41 1 9 37
M  V30 42 1 10 38
M  V30 43 1 15 39
M  V30 44 1 16 40
M  V30 45 1 19 41
M  V30 46 1 21 42
M  V30 47 1 22 43
M  V30 48 1 22 44
M  V30 49 1 23 45
M  V30 50 1 23 46
M  V30 51 1 24 47
M  V30 52 1 24 48
M  V30 53 1 25 49
M  V30 54 1 26 50
M  V30 55 1 26 51
M  V30 56 1 27 52
M  V30 57 1 30 53
M  V30 58 1 31 54
M  V30 END BOND
M  V30 END CTAB
M  END
>  <Dataset>  (945) 
ChEMBL_Kinases

>  <Ligand_Instance>  (945) 
nan

>  <PDB_ID>  (945) 
nan

>  <Standardized_SMILES>  (945) 
Fc1ccc(CNc2ccc(Cl)c(-c3ccnc4[nH]c(C5CCCNC5)cc34)n2)cc1

>  <Name>  (945) 
nan

>  <Pocket>  (945) 
nan

>  <ATP_Site>  (945) 
nan

>  <Peripheral>  (945) 
nan

>  <Num_H_Atoms_ProtBoundConf>  (945) 
nan

>  <Num_Resolved_Atoms>  (945) 
nan

>  <Num_Not_Resolved_Atoms>  (945) 
nan

$$$$
CHEMBL3668475
     RDKit          3D

  0  0  0  0  0  0  0  0  0  0999 V3000
M  V30 BEGIN CTAB
M  V30 COUNTS 54 58 0 0 0
M  V30 BEGIN ATOM
M  V30 1 Cl 0.827202 -3.357775 3.482472 0
M  V30 2 C 1.649837 -2.358084 2.301034 0
M  V30 3 C 2.862505 -2.728439 1.770577 0
M  V30 4 N 3.504757 -1.978268 0.868570 0
M  V30 5 C 2.988448 -0.796628 0.422108 0
M  V30 6 N 3.652184 -0.020329 -0.526287 0
M  V30 7 C 3.449629 1.265519 -1.140220 0
M  V30 8 C 3.587883 2.356700 -0.135369 0
M  V30 9 C 4.916909 2.738670 0.072250 0
M  V30 10 C 5.312064 3.734092 0.942888 0
M  V30 11 C 4.355906 4.412747 1.667921 0
M  V30 12 C 3.046460 4.042983 1.468827 0
M  V30 13 C 2.659104 3.054185 0.603210 0
M  V30 14 C 1.771737 -0.472447 0.984585 0
M  V30 15 C 1.038378 -1.181528 1.918088 0
M  V30 16 C -0.229780 -0.691045 2.409057 0
M  V30 17 C -0.198537 0.141711 3.530899 0
M  V30 18 C -1.407804 0.619569 4.000017 0
M  V30 19 N -2.593752 0.303314 3.406656 0
M  V30 20 C -2.625174 -0.497602 2.327722 0
M  V30 21 N -3.622926 -0.984576 1.532701 0
M  V30 22 C -3.113745 -1.770486 0.551382 0
M  V30 23 C -3.999974 -2.404031 -0.433129 0
M  V30 24 C -4.105945 -3.913917 -0.262905 0
M  V30 25 C -4.606633 -4.562787 -1.532656 0
M  V30 26 C -3.651327 -4.335239 -2.686599 0
M  V30 27 N -2.729731 -3.295508 -2.255308 0
M  V30 28 C -3.486898 -2.150070 -1.829762 0
M  V30 29 C -1.747072 -1.783063 0.729160 0
M  V30 30 C -1.443391 -0.997715 1.825123 0
M  V30 31 H 3.356007 -3.645729 2.058255 0
M  V30 32 H 4.540666 -0.478040 -0.907362 0
M  V30 33 H 4.154217 1.471423 -1.966459 0
M  V30 34 H 2.438667 1.316180 -1.631497 0
M  V30 35 H 5.762179 2.280130 -0.438685 0
M  V30 36 H 6.341994 4.021838 1.096122 0
M  V30 37 H 4.544646 5.206755 2.375537 0
M  V30 38 H 2.231060 4.533014 2.005414 0
M  V30 39 H 1.650379 2.744081 0.412385 0
M  V30 40 H 1.315838 0.451358 0.657293 0
M  V30 41 H 0.720574 0.421526 4.037314 0
M  V30 42 H -1.392461 1.276416 4.884504 0
M  V30 43 H -4.622198 -0.703958 1.766675 0
M  V30 44 H -5.044889 -1.986847 -0.286676 0
M  V30 45 H -4.915217 -4.108301 0.501737 0
M  V30 46 H -3.203525 -4.385794 0.115353 0
M  V30 47 H -4.775981 -5.629398 -1.327770 0
M  V30 48 H -5.573714 -4.120785 -1.833592 0
M  V30 49 H -3.055982 -5.291591 -2.768991 0
M  V30 50 H -4.126770 -4.045850 -3.622351 0
M  V30 51 H -2.162330 -3.737653 -1.501327 0
M  V30 52 H -4.376801 -1.966995 -2.471354 0
M  V30 53 H -2.911432 -1.205869 -1.852236 0
M  V30 54 H -1.064285 -2.329320 0.093398 0
M  V30 END ATOM
M  V30 BEGIN BOND
M  V30 1 1 1 2
M  V30 2 2 2 3
M  V30 3 1 3 4
M  V30 4 2 4 5
M  V30 5 1 5 6
M  V30 6 1 6 7
M  V30 7 1 7 8
M  V30 8 2 8 9
M  V30 9 1 9 10
M  V30 10 2 10 11
M  V30 11 1 11 12
M  V30 12 2 12 13
M  V30 13 1 5 14
M  V30 14 2 14 15
M  V30 15 1 15 16
M  V30 16 2 16 17
M  V30 17 1 17 18
M  V30 18 2 18 19
M  V30 19 1 19 20
M  V30 20 1 20 21
M  V30 21 1 21 22
M  V30 22 1 22 23
M  V30 23 1 23 24
M  V30 24 1 24 25
M  V30 25 1 25 26
M  V30 26 1 26 27
M  V30 27 1 27 28
M  V30 28 2 22 29
M  V30 29 1 29 30
M  V30 30 1 15 2
M  V30 31 1 30 16
M  V30 32 1 13 8
M  V30 33 2 30 20
M  V30 34 1 28 23
M  V30 35 1 3 31
M  V30 36 1 6 32
M  V30 37 1 7 33
M  V30 38 1 7 34
M  V30 39 1 9 35
M  V30 40 1 10 36
M  V30 41 1 11 37
M  V30 42 1 12 38
M  V30 43 1 13 39
M  V30 44 1 14 40
M  V30 45 1 17 41
M  V30 46 1 18 42
M  V30 47 1 21 43
M  V30 48 1 23 44
M  V30 49 1 24 45
M  V30 50 1 24 46
M  V30 51 1 25 47
M  V30 52 1 25 48
M  V30 53 1 26 49
M  V30 54 1 26 50
M  V30 55 1 27 51
M  V30 56 1 28 52
M  V30 57 1 28 53
M  V30 58 1 29 54
M  V30 END BOND
M  V30 END CTAB
M  END
>  <Dataset>  (946) 
ChEMBL_Kinases

>  <Ligand_Instance>  (946) 
nan

>  <PDB_ID>  (946) 
nan

>  <Standardized_SMILES>  (946) 
Clc1cnc(NCc2ccccc2)cc1-c1ccnc2[nH]c(C3CCCNC3)cc12

>  <Name>  (946) 
nan

>  <Pocket>  (946) 
nan

>  <ATP_Site>  (946) 
nan

>  <Peripheral>  (946) 
nan

>  <Num_H_Atoms_ProtBoundConf>  (946) 
nan

>  <Num_Resolved_Atoms>  (946) 
nan

>  <Num_Not_Resolved_Atoms>  (946) 
nan

$$$$
CHEMBL3668476
     RDKit          3D

  0  0  0  0  0  0  0  0  0  0999 V3000
M  V30 BEGIN CTAB
M  V30 COUNTS 55 59 0 0 0
M  V30 BEGIN ATOM
M  V30 1 F -0.176063 -1.337632 4.798553 0
M  V30 2 C 0.819792 -1.013823 3.941910 0
M  V30 3 C 1.966609 -1.775412 3.967662 0
M  V30 4 C 3.010071 -1.495365 3.123124 0
M  V30 5 C 2.951749 -0.434996 2.210467 0
M  V30 6 N 4.018140 -0.144588 1.357398 0
M  V30 7 C 4.277227 0.818534 0.325325 0
M  V30 8 C 3.409532 0.652033 -0.868152 0
M  V30 9 C 3.965502 -0.295771 -1.719846 0
M  V30 10 C 3.368431 -0.650958 -2.933310 0
M  V30 11 C 2.174787 -0.051566 -3.329672 0
M  V30 12 C 1.650401 0.886783 -2.458154 0
M  V30 13 C 2.235197 1.234079 -1.271058 0
M  V30 14 C 1.770980 0.271082 2.253856 0
M  V30 15 C 0.684897 0.047477 3.072176 0
M  V30 16 C -0.521332 0.850769 3.043033 0
M  V30 17 C -0.718521 1.989855 3.819941 0
M  V30 18 C -1.914798 2.705415 3.728140 0
M  V30 19 N -2.859979 2.264977 2.875460 0
M  V30 20 C -2.699509 1.168060 2.111407 0
M  V30 21 N -3.525239 0.591013 1.217363 0
M  V30 22 C -2.932526 -0.498860 0.692492 0
M  V30 23 C -3.314441 -1.528264 -0.312409 0
M  V30 24 C -3.343146 -2.909888 0.346492 0
M  V30 25 C -3.239418 -3.960856 -0.711248 0
M  V30 26 C -3.588495 -3.463447 -2.092709 0
M  V30 27 N -2.741292 -2.388934 -2.512598 0
M  V30 28 C -2.304338 -1.566981 -1.428640 0
M  V30 29 C -1.670507 -0.611569 1.287434 0
M  V30 30 C -1.535216 0.452069 2.185581 0
M  V30 31 H 2.088127 -2.610166 4.643038 0
M  V30 32 H 3.910192 -2.118504 3.165949 0
M  V30 33 H 4.857154 -0.787032 1.487197 0
M  V30 34 H 5.342646 0.877735 0.053257 0
M  V30 35 H 4.058172 1.865737 0.727249 0
M  V30 36 H 4.889805 -0.868560 -1.581295 0
M  V30 37 H 3.754208 -1.374600 -3.626546 0
M  V30 38 H 1.671543 -0.277802 -4.238669 0
M  V30 39 H 0.727245 1.416354 -2.662473 0
M  V30 40 H 1.881783 1.956682 -0.565574 0
M  V30 41 H 1.625913 1.113540 1.593810 0
M  V30 42 H 0.107008 2.253226 4.470589 0
M  V30 43 H -2.012742 3.585149 4.357538 0
M  V30 44 H -4.478890 0.845951 0.899471 0
M  V30 45 H -4.341065 -1.298672 -0.689249 0
M  V30 46 H -4.316595 -3.017939 0.876100 0
M  V30 47 H -2.525796 -2.981144 1.089272 0
M  V30 48 H -3.927383 -4.798687 -0.467177 0
M  V30 49 H -2.210689 -4.413231 -0.730542 0
M  V30 50 H -4.676106 -3.179482 -2.077232 0
M  V30 51 H -3.471482 -4.349491 -2.771362 0
M  V30 52 H -1.872122 -2.801634 -2.950741 0
M  V30 53 H -1.339559 -1.900062 -0.974124 0
M  V30 54 H -2.139426 -0.533260 -1.787184 0
M  V30 55 H -0.875351 -1.348281 1.145930 0
M  V30 END ATOM
M  V30 BEGIN BOND
M  V30 1 1 1 2
M  V30 2 2 2 3
M  V30 3 1 3 4
M  V30 4 2 4 5
M  V30 5 1 5 6
M  V30 6 1 6 7
M  V30 7 1 7 8
M  V30 8 2 8 9
M  V30 9 1 9 10
M  V30 10 2 10 11
M  V30 11 1 11 12
M  V30 12 2 12 13
M  V30 13 1 5 14
M  V30 14 2 14 15
M  V30 15 1 15 16
M  V30 16 2 16 17
M  V30 17 1 17 18
M  V30 18 2 18 19
M  V30 19 1 19 20
M  V30 20 1 20 21
M  V30 21 1 21 22
M  V30 22 1 22 23
M  V30 23 1 23 24
M  V30 24 1 24 25
M  V30 25 1 25 26
M  V30 26 1 26 27
M  V30 27 1 27 28
M  V30 28 2 22 29
M  V30 29 1 29 30
M  V30 30 1 15 2
M  V30 31 1 30 16
M  V30 32 1 13 8
M  V30 33 2 30 20
M  V30 34 1 28 23
M  V30 35 1 3 31
M  V30 36 1 4 32
M  V30 37 1 6 33
M  V30 38 1 7 34
M  V30 39 1 7 35
M  V30 40 1 9 36
M  V30 41 1 10 37
M  V30 42 1 11 38
M  V30 43 1 12 39
M  V30 44 1 13 40
M  V30 45 1 14 41
M  V30 46 1 17 42
M  V30 47 1 18 43
M  V30 48 1 21 44
M  V30 49 1 23 45
M  V30 50 1 24 46
M  V30 51 1 24 47
M  V30 52 1 25 48
M  V30 53 1 25 49
M  V30 54 1 26 50
M  V30 55 1 26 51
M  V30 56 1 27 52
M  V30 57 1 28 53
M  V30 58 1 28 54
M  V30 59 1 29 55
M  V30 END BOND
M  V30 END CTAB
M  END
>  <Dataset>  (947) 
ChEMBL_Kinases

>  <Ligand_Instance>  (947) 
nan

>  <PDB_ID>  (947) 
nan

>  <Standardized_SMILES>  (947) 
Fc1ccc(NCc2ccccc2)cc1-c1ccnc2[nH]c(C3CCCNC3)cc12

>  <Name>  (947) 
nan

>  <Pocket>  (947) 
nan

>  <ATP_Site>  (947) 
nan

>  <Peripheral>  (947) 
nan

>  <Num_H_Atoms_ProtBoundConf>  (947) 
nan

>  <Num_Resolved_Atoms>  (947) 
nan

>  <Num_Not_Resolved_Atoms>  (947) 
nan

$$$$
CHEMBL3668477
     RDKit          3D

  0  0  0  0  0  0  0  0  0  0999 V3000
M  V30 BEGIN CTAB
M  V30 COUNTS 54 58 0 0 0
M  V30 BEGIN ATOM
M  V30 1 F 1.630769 0.559177 5.284784 0
M  V30 2 C 2.477878 0.150690 4.303291 0
M  V30 3 C 2.896982 -1.161502 4.169964 0
M  V30 4 C 3.755068 -1.586619 3.183754 0
M  V30 5 C 4.211087 -0.651068 2.294052 0
M  V30 6 C 3.811702 0.671689 2.398880 0
M  V30 7 C 2.937245 1.098197 3.404861 0
M  V30 8 C 2.559153 2.524090 3.429687 0
M  V30 9 N 1.232024 2.770470 2.846531 0
M  V30 10 C 1.516676 2.281377 1.514866 0
M  V30 11 C 2.157303 3.165254 0.637712 0
M  V30 12 C 2.489086 2.808324 -0.652533 0
M  V30 13 C 2.151691 1.525508 -1.026605 0
M  V30 14 Cl 2.501653 0.902135 -2.639368 0
M  V30 15 C 1.515165 0.628416 -0.174947 0
M  V30 16 C 1.129744 -0.729284 -0.537868 0
M  V30 17 C 2.208305 -1.546608 -0.899640 0
M  V30 18 C 1.943760 -2.875460 -1.237663 0
M  V30 19 N 0.719234 -3.428227 -1.239994 0
M  V30 20 C -0.326191 -2.636879 -0.889897 0
M  V30 21 N -1.651092 -2.836574 -0.797984 0
M  V30 22 C -2.263479 -1.679159 -0.410837 0
M  V30 23 C -3.728702 -1.496015 -0.238748 0
M  V30 24 C -4.420527 -2.665431 0.359370 0
M  V30 25 C -5.340424 -3.402728 -0.574621 0
M  V30 26 C -4.744695 -3.652818 -1.934833 0
M  V30 27 N -4.085841 -2.486771 -2.441801 0
M  V30 28 C -4.343068 -1.316399 -1.648453 0
M  V30 29 C -1.307526 -0.675814 -0.237852 0
M  V30 30 C -0.111145 -1.326566 -0.551448 0
M  V30 31 N 1.208859 1.032667 1.090153 0
M  V30 32 H 2.543047 -1.913733 4.871642 0
M  V30 33 H 4.100676 -2.599076 3.053764 0
M  V30 34 H 4.888112 -0.872479 1.473903 0
M  V30 35 H 4.180677 1.401646 1.686657 0
M  V30 36 H 3.321084 3.167379 2.978941 0
M  V30 37 H 2.486630 2.824078 4.498959 0
M  V30 38 H 0.445231 3.185736 3.388001 0
M  V30 39 H 2.438646 4.191427 0.909676 0
M  V30 40 H 2.982958 3.452050 -1.363103 0
M  V30 41 H 3.231522 -1.192508 -0.928777 0
M  V30 42 H 2.820611 -3.485288 -1.517280 0
M  V30 43 H -2.035860 -3.773487 -1.005235 0
M  V30 44 H -3.918145 -0.552149 0.285576 0
M  V30 45 H -5.094672 -2.297300 1.195447 0
M  V30 46 H -3.740413 -3.399736 0.840845 0
M  V30 47 H -5.558705 -4.404961 -0.127547 0
M  V30 48 H -6.327633 -2.890311 -0.710448 0
M  V30 49 H -4.113628 -4.549411 -1.923664 0
M  V30 50 H -5.619043 -3.943133 -2.596264 0
M  V30 51 H -3.121602 -2.600141 -2.761734 0
M  V30 52 H -5.414652 -1.143759 -1.561809 0
M  V30 53 H -3.864101 -0.445672 -2.127385 0
M  V30 54 H -1.470481 0.353305 0.065724 0
M  V30 END ATOM
M  V30 BEGIN BOND
M  V30 1 1 1 2
M  V30 2 2 2 3
M  V30 3 1 3 4
M  V30 4 2 4 5
M  V30 5 1 5 6
M  V30 6 2 6 7
M  V30 7 1 7 8
M  V30 8 1 8 9
M  V30 9 1 9 10
M  V30 10 2 10 11
M  V30 11 1 11 12
M  V30 12 2 12 13
M  V30 13 1 13 14
M  V30 14 1 13 15
M  V30 15 1 15 16
M  V30 16 2 16 17
M  V30 17 1 17 18
M  V30 18 2 18 19
M  V30 19 1 19 20
M  V30 20 1 20 21
M  V30 21 1 21 22
M  V30 22 1 22 23
M  V30 23 1 23 24
M  V30 24 1 24 25
M  V30 25 1 25 26
M  V30 26 1 26 27
M  V30 27 1 27 28
M  V30 28 2 22 29
M  V30 29 1 29 30
M  V30 30 2 15 31
M  V30 31 1 7 2
M  V30 32 1 31 10
M  V30 33 1 30 16
M  V30 34 2 30 20
M  V30 35 1 28 23
M  V30 36 1 3 32
M  V30 37 1 4 33
M  V30 38 1 5 34
M  V30 39 1 6 35
M  V30 40 1 8 36
M  V30 41 1 8 37
M  V30 42 1 9 38
M  V30 43 1 11 39
M  V30 44 1 12 40
M  V30 45 1 17 41
M  V30 46 1 18 42
M  V30 47 1 21 43
M  V30 48 1 23 44
M  V30 49 1 24 45
M  V30 50 1 24 46
M  V30 51 1 25 47
M  V30 52 1 25 48
M  V30 53 1 26 49
M  V30 54 1 26 50
M  V30 55 1 27 51
M  V30 56 1 28 52
M  V30 57 1 28 53
M  V30 58 1 29 54
M  V30 END BOND
M  V30 END CTAB
M  END
>  <Dataset>  (948) 
ChEMBL_Kinases

>  <Ligand_Instance>  (948) 
nan

>  <PDB_ID>  (948) 
nan

>  <Standardized_SMILES>  (948) 
Fc1ccccc1CNc1ccc(Cl)c(-c2ccnc3[nH]c(C4CCCNC4)cc23)n1

>  <Name>  (948) 
nan

>  <Pocket>  (948) 
nan

>  <ATP_Site>  (948) 
nan

>  <Peripheral>  (948) 
nan

>  <Num_H_Atoms_ProtBoundConf>  (948) 
nan

>  <Num_Resolved_Atoms>  (948) 
nan

>  <Num_Not_Resolved_Atoms>  (948) 
nan

$$$$
CHEMBL3668478
     RDKit          3D

  0  0  0  0  0  0  0  0  0  0999 V3000
M  V30 BEGIN CTAB
M  V30 COUNTS 53 57 0 0 0
M  V30 BEGIN ATOM
M  V30 1 Cl 2.146229 -3.390688 1.810848 0
M  V30 2 C 2.416706 -1.673119 2.176855 0
M  V30 3 C 3.223645 -1.353283 3.246549 0
M  V30 4 C 3.352639 0.019614 3.456539 0
M  V30 5 C 2.722517 0.988959 2.656917 0
M  V30 6 N 2.999694 2.392277 2.903198 0
M  V30 7 C 3.876876 3.038631 1.936442 0
M  V30 8 C 3.129751 3.143614 0.672546 0
M  V30 9 C 3.036113 2.249441 -0.387327 0
M  V30 10 C 2.248375 2.520229 -1.514801 0
M  V30 11 C 1.570670 3.747700 -1.495798 0
M  V30 12 N 1.656425 4.602077 -0.495277 0
M  V30 13 C 2.429189 4.317632 0.596846 0
M  V30 14 N 1.980809 0.503429 1.677624 0
M  V30 15 C 1.766735 -0.784586 1.356603 0
M  V30 16 C 0.872427 -1.178258 0.289721 0
M  V30 17 C 1.649064 -1.032706 -0.879636 0
M  V30 18 C 1.025071 -1.146652 -2.128484 0
M  V30 19 N -0.317149 -1.395058 -2.241855 0
M  V30 20 C -1.056125 -1.536612 -1.125880 0
M  V30 21 N -2.329479 -1.804135 -0.792252 0
M  V30 22 C -2.512937 -1.868242 0.561843 0
M  V30 23 C -3.788991 -2.212903 1.268733 0
M  V30 24 C -4.893248 -2.281830 0.268443 0
M  V30 25 C -5.037889 -3.665964 -0.333894 0
M  V30 26 C -3.777021 -4.435983 -0.488833 0
M  V30 27 N -2.839856 -4.292974 0.609454 0
M  V30 28 C -3.591623 -3.694352 1.723177 0
M  V30 29 C -1.291305 -1.624170 1.212841 0
M  V30 30 C -0.491619 -1.437145 0.125878 0
M  V30 31 H 3.646165 -2.155253 3.808040 0
M  V30 32 H 3.968365 0.296123 4.290381 0
M  V30 33 H 2.685537 2.995197 3.678487 0
M  V30 34 H 4.330352 3.980849 2.295920 0
M  V30 35 H 4.745360 2.329354 1.748866 0
M  V30 36 H 3.638704 1.343059 -0.281946 0
M  V30 37 H 2.218587 1.778742 -2.272945 0
M  V30 38 H 0.965943 3.920109 -2.388704 0
M  V30 39 H 2.404494 5.133976 1.347577 0
M  V30 40 H 2.685741 -0.842517 -1.097969 0
M  V30 41 H 1.451505 -1.064366 -3.124976 0
M  V30 42 H -3.052803 -1.936506 -1.548727 0
M  V30 43 H -3.914336 -1.598644 2.151912 0
M  V30 44 H -4.842711 -1.494681 -0.487652 0
M  V30 45 H -5.861409 -2.078290 0.825097 0
M  V30 46 H -5.831526 -4.249508 0.181388 0
M  V30 47 H -5.432050 -3.476474 -1.370825 0
M  V30 48 H -3.296474 -4.306741 -1.501770 0
M  V30 49 H -4.042851 -5.541655 -0.449981 0
M  V30 50 H -2.397198 -5.222505 0.895868 0
M  V30 51 H -3.019360 -3.769672 2.639383 0
M  V30 52 H -4.576409 -4.168456 1.818705 0
M  V30 53 H -1.063252 -1.601064 2.244455 0
M  V30 END ATOM
M  V30 BEGIN BOND
M  V30 1 1 1 2
M  V30 2 2 2 3
M  V30 3 1 3 4
M  V30 4 2 4 5
M  V30 5 1 5 6
M  V30 6 1 6 7
M  V30 7 1 7 8
M  V30 8 2 8 9
M  V30 9 1 9 10
M  V30 10 2 10 11
M  V30 11 1 11 12
M  V30 12 2 12 13
M  V30 13 1 5 14
M  V30 14 2 14 15
M  V30 15 1 15 16
M  V30 16 2 16 17
M  V30 17 1 17 18
M  V30 18 2 18 19
M  V30 19 1 19 20
M  V30 20 1 20 21
M  V30 21 1 21 22
M  V30 22 1 22 23
M  V30 23 1 23 24
M  V30 24 1 24 25
M  V30 25 1 25 26
M  V30 26 1 26 27
M  V30 27 1 27 28
M  V30 28 2 22 29
M  V30 29 1 29 30
M  V30 30 1 15 2
M  V30 31 1 30 16
M  V30 32 1 13 8
M  V30 33 2 30 20
M  V30 34 1 28 23
M  V30 35 1 3 31
M  V30 36 1 4 32
M  V30 37 1 6 33
M  V30 38 1 7 34
M  V30 39 1 7 35
M  V30 40 1 9 36
M  V30 41 1 10 37
M  V30 42 1 11 38
M  V30 43 1 13 39
M  V30 44 1 17 40
M  V30 45 1 18 41
M  V30 46 1 21 42
M  V30 47 1 23 43
M  V30 48 1 24 44
M  V30 49 1 24 45
M  V30 50 1 25 46
M  V30 51 1 25 47
M  V30 52 1 26 48
M  V30 53 1 26 49
M  V30 54 1 27 50
M  V30 55 1 28 51
M  V30 56 1 28 52
M  V30 57 1 29 53
M  V30 END BOND
M  V30 END CTAB
M  END
>  <Dataset>  (949) 
ChEMBL_Kinases

>  <Ligand_Instance>  (949) 
nan

>  <PDB_ID>  (949) 
nan

>  <Standardized_SMILES>  (949) 
Clc1ccc(NCc2cccnc2)nc1-c1ccnc2[nH]c(C3CCCNC3)cc12

>  <Name>  (949) 
nan

>  <Pocket>  (949) 
nan

>  <ATP_Site>  (949) 
nan

>  <Peripheral>  (949) 
nan

>  <Num_H_Atoms_ProtBoundConf>  (949) 
nan

>  <Num_Resolved_Atoms>  (949) 
nan

>  <Num_Not_Resolved_Atoms>  (949) 
nan

$$$$
CHEMBL3668470
     RDKit          3D

  0  0  0  0  0  0  0  0  0  0999 V3000
M  V30 BEGIN CTAB
M  V30 COUNTS 57 61 0 0 0
M  V30 BEGIN ATOM
M  V30 1 C 1.362655 -0.967101 1.885394 0
M  V30 2 N 2.150436 -0.034281 1.081440 0
M  V30 3 C 3.554494 -0.194605 1.273418 0
M  V30 4 C 3.879330 0.031847 2.704009 0
M  V30 5 C 3.883403 -1.015840 3.615473 0
M  V30 6 C 4.179218 -0.839662 4.945000 0
M  V30 7 C 4.475148 0.454611 5.326943 0
M  V30 8 C 4.473501 1.500436 4.430891 0
M  V30 9 C 4.174961 1.309421 3.098747 0
M  V30 10 C 1.544408 0.930441 0.197761 0
M  V30 11 C 2.251251 1.842666 -0.587542 0
M  V30 12 C 1.493084 2.682409 -1.368497 0
M  V30 13 C 0.116955 2.644981 -1.392172 0
M  V30 14 Cl -0.856450 3.707273 -2.386654 0
M  V30 15 C -0.551699 1.732854 -0.605417 0
M  V30 16 C -2.009144 1.556566 -0.520023 0
M  V30 17 C -2.990883 2.539043 -0.501245 0
M  V30 18 C -4.315045 2.158498 -0.408831 0
M  V30 19 N -4.681464 0.866043 -0.336812 0
M  V30 20 C -3.771803 -0.133551 -0.350913 0
M  V30 21 N -3.856296 -1.492675 -0.295362 0
M  V30 22 C -2.633983 -2.048080 -0.346488 0
M  V30 23 C -2.307064 -3.511518 -0.310274 0
M  V30 24 C -3.447365 -4.362268 -0.739577 0
M  V30 25 C -3.656043 -4.430108 -2.211145 0
M  V30 26 C -2.510489 -3.929732 -3.019373 0
M  V30 27 N -1.224820 -4.152047 -2.446945 0
M  V30 28 C -1.076668 -3.855406 -1.066985 0
M  V30 29 C -1.775231 -0.974650 -0.437147 0
M  V30 30 C -2.429189 0.222567 -0.443231 0
M  V30 31 N 0.220964 0.930248 0.143340 0
M  V30 32 H 0.280087 -0.892839 1.690503 0
M  V30 33 H 1.678785 -2.006624 1.742466 0
M  V30 34 H 1.503233 -0.732894 2.966384 0
M  V30 35 H 3.863163 -1.264952 1.079174 0
M  V30 36 H 4.201812 0.440640 0.659897 0
M  V30 37 H 3.646940 -2.019338 3.290847 0
M  V30 38 H 4.186644 -1.643130 5.662112 0
M  V30 39 H 4.722316 0.689127 6.359296 0
M  V30 40 H 4.704326 2.501899 4.737935 0
M  V30 41 H 4.166127 2.109948 2.376929 0
M  V30 42 H 3.309942 1.823186 -0.527910 0
M  V30 43 H 2.018821 3.414276 -2.000675 0
M  V30 44 H -2.606593 3.546907 -0.559967 0
M  V30 45 H -5.020512 2.982877 -0.399378 0
M  V30 46 H -4.782372 -1.969659 -0.223650 0
M  V30 47 H -2.100694 -3.797342 0.768208 0
M  V30 48 H -4.362331 -4.100381 -0.169354 0
M  V30 49 H -3.198309 -5.403589 -0.377636 0
M  V30 50 H -3.930192 -5.490816 -2.492105 0
M  V30 51 H -4.560174 -3.814504 -2.469272 0
M  V30 52 H -2.527592 -4.531278 -3.978488 0
M  V30 53 H -2.681830 -2.879996 -3.380694 0
M  V30 54 H -0.513020 -3.636542 -2.996000 0
M  V30 55 H -0.278498 -3.079995 -0.900750 0
M  V30 56 H -0.621490 -4.781363 -0.600043 0
M  V30 57 H -0.702746 -1.145755 -0.494521 0
M  V30 END ATOM
M  V30 BEGIN BOND
M  V30 1 1 1 2
M  V30 2 1 2 3
M  V30 3 1 3 4
M  V30 4 2 4 5
M  V30 5 1 5 6
M  V30 6 2 6 7
M  V30 7 1 7 8
M  V30 8 2 8 9
M  V30 9 1 2 10
M  V30 10 2 10 11
M  V30 11 1 11 12
M  V30 12 2 12 13
M  V30 13 1 13 14
M  V30 14 1 13 15
M  V30 15 1 15 16
M  V30 16 2 16 17
M  V30 17 1 17 18
M  V30 18 2 18 19
M  V30 19 1 19 20
M  V30 20 1 20 21
M  V30 21 1 21 22
M  V30 22 1 22 23
M  V30 23 1 23 24
M  V30 24 1 24 25
M  V30 25 1 25 26
M  V30 26 1 26 27
M  V30 27 1 27 28
M  V30 28 2 22 29
M  V30 29 1 29 30
M  V30 30 2 15 31
M  V30 31 1 9 4
M  V30 32 1 31 10
M  V30 33 1 30 16
M  V30 34 2 30 20
M  V30 35 1 28 23
M  V30 36 1 1 32
M  V30 37 1 1 33
M  V30 38 1 1 34
M  V30 39 1 3 35
M  V30 40 1 3 36
M  V30 41 1 5 37
M  V30 42 1 6 38
M  V30 43 1 7 39
M  V30 44 1 8 40
M  V30 45 1 9 41
M  V30 46 1 11 42
M  V30 47 1 12 43
M  V30 48 1 17 44
M  V30 49 1 18 45
M  V30 50 1 21 46
M  V30 51 1 23 47
M  V30 52 1 24 48
M  V30 53 1 24 49
M  V30 54 1 25 50
M  V30 55 1 25 51
M  V30 56 1 26 52
M  V30 57 1 26 53
M  V30 58 1 27 54
M  V30 59 1 28 55
M  V30 60 1 28 56
M  V30 61 1 29 57
M  V30 END BOND
M  V30 END CTAB
M  END
>  <Dataset>  (950) 
ChEMBL_Kinases

>  <Ligand_Instance>  (950) 
nan

>  <PDB_ID>  (950) 
nan

>  <Standardized_SMILES>  (950) 
CN(Cc1ccccc1)c1ccc(Cl)c(-c2ccnc3[nH]c(C4CCCNC4)cc23)n1

>  <Name>  (950) 
nan

>  <Pocket>  (950) 
nan

>  <ATP_Site>  (950) 
nan

>  <Peripheral>  (950) 
nan

>  <Num_H_Atoms_ProtBoundConf>  (950) 
nan

>  <Num_Resolved_Atoms>  (950) 
nan

>  <Num_Not_Resolved_Atoms>  (950) 
nan

$$$$
CHEMBL3668527
     RDKit          3D

  0  0  0  0  0  0  0  0  0  0999 V3000
M  V30 BEGIN CTAB
M  V30 COUNTS 59 62 0 0 0
M  V30 BEGIN ATOM
M  V30 1 C 3.795892 -0.017038 4.925584 0
M  V30 2 O 3.580651 0.761548 3.782488 0
M  V30 3 C 4.364011 0.722576 2.642682 0
M  V30 4 C 5.444598 -0.136005 2.596336 0
M  V30 5 C 6.190309 -0.129683 1.429142 0
M  V30 6 C 5.909416 0.676738 0.335504 0
M  V30 7 F 6.711205 0.601147 -0.763132 0
M  V30 8 C 4.802925 1.524923 0.441508 0
M  V30 9 C 4.035112 1.550039 1.583388 0
M  V30 10 C 2.893535 2.462883 1.617247 0
M  V30 11 C 3.014218 3.757466 2.084720 0
M  V30 12 C 1.886797 4.554167 2.083275 0
M  V30 13 N 0.691730 4.103454 1.643056 0
M  V30 14 C 0.551144 2.855454 1.186499 0
M  V30 15 N -0.522001 2.185387 0.700858 0
M  V30 16 C -0.103695 0.948912 0.382398 0
M  V30 17 C -0.926275 -0.118999 -0.178301 0
M  V30 18 C -2.211670 0.061241 -0.427293 0
M  V30 19 C -3.096723 -0.980378 -0.994169 0 CFG=1
M  V30 20 C -4.083899 -0.270850 -1.929862 0
M  V30 21 O -4.763510 0.732716 -1.239518 0
M  V30 22 N -2.441261 -1.984375 -1.753773 0
M  V30 23 C -3.079482 -3.248658 -1.797754 0
M  V30 24 C -3.086536 -3.965111 -0.502745 0
M  V30 25 O -2.633279 -3.662830 0.628292 0
M  V30 26 N -3.692567 -5.245713 -0.400359 0
M  V30 27 C -3.536173 -5.674799 0.976535 0
M  V30 28 C -4.302758 -5.851240 -1.563013 0
M  V30 29 C -1.027480 -1.973091 -1.738042 0
M  V30 30 C -0.379462 -1.440505 -0.495555 0
M  V30 31 C 1.240389 0.831828 0.666531 0
M  V30 32 C 1.652183 2.052168 1.179409 0
M  V30 33 H 4.166903 -1.035262 4.743170 0
M  V30 34 H 4.443364 0.579807 5.613028 0
M  V30 35 H 2.820744 -0.130140 5.447580 0
M  V30 36 H 5.712095 -0.793218 3.427729 0
M  V30 37 H 7.031695 -0.805198 1.406629 0
M  V30 38 H 4.602973 2.143229 -0.421398 0
M  V30 39 H 3.966322 4.135400 2.441786 0
M  V30 40 H 2.002398 5.571376 2.455748 0
M  V30 41 H -1.499906 2.592316 0.603274 0
M  V30 42 H -2.641438 1.034862 -0.200675 0
M  V30 43 H -3.734139 -1.396910 -0.185455 0
M  V30 44 H -4.786279 -0.964083 -2.406349 0
M  V30 45 H -3.520100 0.244939 -2.731932 0
M  V30 46 H -5.125405 0.332340 -0.410021 0
M  V30 47 H -4.157566 -3.049734 -2.073341 0
M  V30 48 H -2.687095 -3.860201 -2.636622 0
M  V30 49 H -3.943706 -6.705976 1.140012 0
M  V30 50 H -3.917611 -4.946030 1.711598 0
M  V30 51 H -2.426514 -5.778727 1.145871 0
M  V30 52 H -4.866627 -6.776951 -1.292355 0
M  V30 53 H -3.494610 -6.123687 -2.273717 0
M  V30 54 H -5.006605 -5.201367 -2.089946 0
M  V30 55 H -0.645555 -2.972034 -2.029661 0
M  V30 56 H -0.701142 -1.304959 -2.583240 0
M  V30 57 H 0.710047 -1.309266 -0.767149 0
M  V30 58 H -0.359639 -2.138482 0.355638 0
M  V30 59 H 1.848920 -0.040352 0.517412 0
M  V30 END ATOM
M  V30 BEGIN BOND
M  V30 1 1 1 2
M  V30 2 1 2 3
M  V30 3 2 3 4
M  V30 4 1 4 5
M  V30 5 2 5 6
M  V30 6 1 6 7
M  V30 7 1 6 8
M  V30 8 2 8 9
M  V30 9 1 9 10
M  V30 10 2 10 11
M  V30 11 1 11 12
M  V30 12 2 12 13
M  V30 13 1 13 14
M  V30 14 1 14 15
M  V30 15 1 15 16
M  V30 16 1 16 17
M  V30 17 2 17 18
M  V30 18 1 18 19
M  V30 19 1 19 20
M  V30 20 1 20 21
M  V30 21 1 19 22
M  V30 22 1 22 23
M  V30 23 1 23 24
M  V30 24 2 24 25
M  V30 25 1 24 26
M  V30 26 1 26 27
M  V30 27 1 26 28
M  V30 28 1 22 29
M  V30 29 1 29 30
M  V30 30 2 16 31
M  V30 31 1 31 32
M  V30 32 1 9 3
M  V30 33 1 32 10
M  V30 34 2 32 14
M  V30 35 1 30 17
M  V30 36 1 1 33
M  V30 37 1 1 34
M  V30 38 1 1 35
M  V30 39 1 4 36
M  V30 40 1 5 37
M  V30 41 1 8 38
M  V30 42 1 11 39
M  V30 43 1 12 40
M  V30 44 1 15 41
M  V30 45 1 18 42
M  V30 46 1 19 43 CFG=1
M  V30 47 1 20 44
M  V30 48 1 20 45
M  V30 49 1 21 46
M  V30 50 1 23 47
M  V30 51 1 23 48
M  V30 52 1 27 49
M  V30 53 1 27 50
M  V30 54 1 27 51
M  V30 55 1 28 52
M  V30 56 1 28 53
M  V30 57 1 28 54
M  V30 58 1 29 55
M  V30 59 1 29 56
M  V30 60 1 30 57
M  V30 61 1 30 58
M  V30 62 1 31 59
M  V30 END BOND
M  V30 END CTAB
M  END
>  <Dataset>  (951) 
ChEMBL_Kinases

>  <Ligand_Instance>  (951) 
nan

>  <PDB_ID>  (951) 
nan

>  <Standardized_SMILES>  (951) 
COc1ccc(F)cc1-c1ccnc2[nH]c(C3=C[C@@H](CO)N(CC(=O)N(C)C)CC3)cc12

>  <Name>  (951) 
nan

>  <Pocket>  (951) 
nan

>  <ATP_Site>  (951) 
nan

>  <Peripheral>  (951) 
nan

>  <Num_H_Atoms_ProtBoundConf>  (951) 
nan

>  <Num_Resolved_Atoms>  (951) 
nan

>  <Num_Not_Resolved_Atoms>  (951) 
nan

$$$$
CHEMBL3668526
     RDKit          3D

  0  0  0  0  0  0  0  0  0  0999 V3000
M  V30 BEGIN CTAB
M  V30 COUNTS 59 62 0 0 0
M  V30 BEGIN ATOM
M  V30 1 C 1.371462 0.490591 5.500551 0
M  V30 2 O 1.960926 1.010517 4.341702 0
M  V30 3 C 3.078309 0.541243 3.707721 0
M  V30 4 C 3.661511 -0.576189 4.317357 0
M  V30 5 C 4.792136 -1.150293 3.783509 0
M  V30 6 C 5.338098 -0.614340 2.647539 0
M  V30 7 F 6.445405 -1.142069 2.088390 0
M  V30 8 C 4.796125 0.480856 2.018602 0
M  V30 9 C 3.668622 1.055759 2.549673 0
M  V30 10 C 2.906221 2.219729 2.073518 0
M  V30 11 C 3.213271 3.505122 2.467249 0
M  V30 12 C 2.424102 4.497571 1.946611 0
M  V30 13 N 1.412058 4.284960 1.109642 0
M  V30 14 C 1.072269 3.039643 0.694543 0
M  V30 15 N 0.149492 2.474944 -0.107430 0
M  V30 16 C 0.303934 1.157090 -0.133308 0
M  V30 17 C -0.460657 0.155862 -0.859855 0
M  V30 18 C -1.491833 0.351939 -1.660727 0
M  V30 19 C -2.326540 -0.591102 -2.435563 0
M  V30 20 N -1.761675 -1.925971 -2.442095 0
M  V30 21 C -2.513007 -2.716921 -1.489814 0
M  V30 22 C -3.913544 -2.935958 -1.999388 0
M  V30 23 O -4.263993 -2.442357 -3.125518 0
M  V30 24 N -4.753245 -3.708064 -1.138372 0
M  V30 25 C -4.355729 -4.267389 0.146429 0
M  V30 26 C -6.101073 -3.925272 -1.620162 0
M  V30 27 C -0.365899 -1.833171 -2.181627 0 CFG=2
M  V30 28 C 0.452326 -3.041736 -2.485026 0
M  V30 29 O 0.114575 -4.182236 -1.803617 0
M  V30 30 C -0.138632 -1.307994 -0.777628 0
M  V30 31 C 1.364237 0.839586 0.679874 0
M  V30 32 C 1.846328 2.028636 1.200561 0
M  V30 33 H 2.062035 0.364823 6.352649 0
M  V30 34 H 0.854629 -0.458037 5.245889 0
M  V30 35 H 0.546590 1.190856 5.814587 0
M  V30 36 H 3.270786 -1.035902 5.212575 0
M  V30 37 H 5.265356 -2.027208 4.247875 0
M  V30 38 H 5.145605 0.976501 1.129768 0
M  V30 39 H 4.039921 3.652659 3.147978 0
M  V30 40 H 2.644411 5.515116 2.238571 0
M  V30 41 H -0.566341 3.039809 -0.617462 0
M  V30 42 H -1.800090 1.405990 -1.785196 0
M  V30 43 H -2.345953 -0.280320 -3.508672 0
M  V30 44 H -3.373225 -0.565612 -2.047761 0
M  V30 45 H -2.663021 -2.189427 -0.514741 0
M  V30 46 H -2.098972 -3.712631 -1.295925 0
M  V30 47 H -4.448592 -5.391313 0.085874 0
M  V30 48 H -5.028153 -3.945942 0.972470 0
M  V30 49 H -3.311143 -4.018953 0.329315 0
M  V30 50 H -6.742486 -4.274372 -0.767457 0
M  V30 51 H -6.512554 -3.015156 -2.103443 0
M  V30 52 H -6.055907 -4.763247 -2.345424 0
M  V30 53 H 0.024951 -1.024996 -2.870313 0
M  V30 54 H 1.504546 -2.785802 -2.159784 0
M  V30 55 H 0.516408 -3.177167 -3.575795 0
M  V30 56 H -0.148898 -4.868840 -2.480137 0
M  V30 57 H 0.942871 -1.408251 -0.565450 0
M  V30 58 H -0.719435 -1.821495 -0.012346 0
M  V30 59 H 1.739946 -0.169008 0.868563 0
M  V30 END ATOM
M  V30 BEGIN BOND
M  V30 1 1 1 2
M  V30 2 1 2 3
M  V30 3 2 3 4
M  V30 4 1 4 5
M  V30 5 2 5 6
M  V30 6 1 6 7
M  V30 7 1 6 8
M  V30 8 2 8 9
M  V30 9 1 9 10
M  V30 10 2 10 11
M  V30 11 1 11 12
M  V30 12 2 12 13
M  V30 13 1 13 14
M  V30 14 1 14 15
M  V30 15 1 15 16
M  V30 16 1 16 17
M  V30 17 2 17 18
M  V30 18 1 18 19
M  V30 19 1 19 20
M  V30 20 1 20 21
M  V30 21 1 21 22
M  V30 22 2 22 23
M  V30 23 1 22 24
M  V30 24 1 24 25
M  V30 25 1 24 26
M  V30 26 1 20 27
M  V30 27 1 27 28
M  V30 28 1 28 29
M  V30 29 1 27 30
M  V30 30 2 16 31
M  V30 31 1 31 32
M  V30 32 1 9 3
M  V30 33 1 32 10
M  V30 34 2 32 14
M  V30 35 1 30 17
M  V30 36 1 1 33
M  V30 37 1 1 34
M  V30 38 1 1 35
M  V30 39 1 4 36
M  V30 40 1 5 37
M  V30 41 1 8 38
M  V30 42 1 11 39
M  V30 43 1 12 40
M  V30 44 1 15 41
M  V30 45 1 18 42
M  V30 46 1 19 43
M  V30 47 1 19 44
M  V30 48 1 21 45
M  V30 49 1 21 46
M  V30 50 1 25 47
M  V30 51 1 25 48
M  V30 52 1 25 49
M  V30 53 1 26 50
M  V30 54 1 26 51
M  V30 55 1 26 52
M  V30 56 1 27 53 CFG=3
M  V30 57 1 28 54
M  V30 58 1 28 55
M  V30 59 1 29 56
M  V30 60 1 30 57
M  V30 61 1 30 58
M  V30 62 1 31 59
M  V30 END BOND
M  V30 END CTAB
M  END
>  <Dataset>  (952) 
ChEMBL_Kinases

>  <Ligand_Instance>  (952) 
nan

>  <PDB_ID>  (952) 
nan

>  <Standardized_SMILES>  (952) 
COc1ccc(F)cc1-c1ccnc2[nH]c(C3=CCN(CC(=O)N(C)C)[C@H](CO)C3)cc12

>  <Name>  (952) 
nan

>  <Pocket>  (952) 
nan

>  <ATP_Site>  (952) 
nan

>  <Peripheral>  (952) 
nan

>  <Num_H_Atoms_ProtBoundConf>  (952) 
nan

>  <Num_Resolved_Atoms>  (952) 
nan

>  <Num_Not_Resolved_Atoms>  (952) 
nan

$$$$
CHEMBL3668525
     RDKit          3D

  0  0  0  0  0  0  0  0  0  0999 V3000
M  V30 BEGIN CTAB
M  V30 COUNTS 59 63 0 0 0
M  V30 BEGIN ATOM
M  V30 1 C 4.328630 -1.137075 1.829890 0
M  V30 2 O 3.544354 0.046590 1.763222 0
M  V30 3 C 2.702205 0.332010 2.840852 0
M  V30 4 C 2.619543 -0.507006 3.957354 0
M  V30 5 C 1.763207 -0.166052 4.993466 0
M  V30 6 C 1.025258 1.011915 4.855974 0
M  V30 7 F 0.179688 1.362493 5.864388 0
M  V30 8 C 1.089731 1.856341 3.763694 0
M  V30 9 C 1.949487 1.499802 2.739971 0
M  V30 10 C 2.060804 2.346174 1.571806 0
M  V30 11 C 3.025567 3.332608 1.653626 0
M  V30 12 F 3.810821 3.491913 2.760611 0
M  V30 13 C 3.160275 4.167605 0.540668 0
M  V30 14 N 2.395242 4.027855 -0.560340 0
M  V30 15 C 1.461415 3.058480 -0.616527 0
M  V30 16 N 0.562472 2.670666 -1.551450 0
M  V30 17 C -0.167159 1.612939 -1.111009 0
M  V30 18 C -1.248664 0.938287 -1.905128 0
M  V30 19 C -0.869990 -0.461369 -2.267633 0
M  V30 20 C -2.181226 -1.164452 -2.614199 0
M  V30 21 N -2.983445 -1.353938 -1.452401 0
M  V30 22 C -2.452405 -2.375846 -0.585965 0
M  V30 23 C -2.571573 -3.694379 -1.221351 0
M  V30 24 O -3.070770 -3.933558 -2.372598 0
M  V30 25 N -2.040218 -4.689622 -0.352132 0
M  V30 26 C -1.405408 -4.955937 0.948105 0
M  V30 27 C -0.735492 -6.144308 0.330441 0
M  V30 28 O -0.631995 -7.236981 1.182057 0
M  V30 29 C -1.951021 -6.138914 -0.565996 0
M  V30 30 C -3.226220 -0.137644 -0.753989 0
M  V30 31 C -2.606190 1.091572 -1.314725 0
M  V30 32 C 0.247655 1.274450 0.155871 0
M  V30 33 C 1.259241 2.183178 0.444832 0
M  V30 34 H 4.912452 -1.061765 2.771982 0
M  V30 35 H 4.984500 -1.244562 0.965313 0
M  V30 36 H 3.632788 -2.015883 1.936858 0
M  V30 37 H 3.231651 -1.406949 3.984116 0
M  V30 38 H 1.675225 -0.789325 5.867217 0
M  V30 39 H 0.474289 2.753704 3.749378 0
M  V30 40 H 3.913809 4.952464 0.579638 0
M  V30 41 H 0.511701 3.184001 -2.468157 0
M  V30 42 H -1.254925 1.510389 -2.879810 0
M  V30 43 H -0.256112 -0.499863 -3.210552 0
M  V30 44 H -0.281073 -0.983327 -1.511501 0
M  V30 45 H -2.724064 -0.419546 -3.265402 0
M  V30 46 H -2.037227 -2.041589 -3.231214 0
M  V30 47 H -1.405740 -2.166921 -0.269335 0
M  V30 48 H -3.045871 -2.316209 0.370632 0
M  V30 49 H -0.779790 -4.136770 1.313290 0
M  V30 50 H -2.175830 -5.274859 1.683258 0
M  V30 51 H 0.201552 -5.856177 -0.186376 0
M  V30 52 H -0.111447 -7.942721 0.715926 0
M  V30 53 H -2.782482 -6.686031 -0.104853 0
M  V30 54 H -1.736462 -6.419825 -1.617661 0
M  V30 55 H -2.979101 -0.269844 0.318750 0
M  V30 56 H -4.345140 0.011648 -0.756241 0
M  V30 57 H -2.558891 1.831966 -0.464163 0
M  V30 58 H -3.334228 1.565551 -2.029838 0
M  V30 59 H -0.104535 0.499712 0.796904 0
M  V30 END ATOM
M  V30 BEGIN BOND
M  V30 1 1 1 2
M  V30 2 1 2 3
M  V30 3 2 3 4
M  V30 4 1 4 5
M  V30 5 2 5 6
M  V30 6 1 6 7
M  V30 7 1 6 8
M  V30 8 2 8 9
M  V30 9 1 9 10
M  V30 10 2 10 11
M  V30 11 1 11 12
M  V30 12 1 11 13
M  V30 13 2 13 14
M  V30 14 1 14 15
M  V30 15 1 15 16
M  V30 16 1 16 17
M  V30 17 1 17 18
M  V30 18 1 18 19
M  V30 19 1 19 20
M  V30 20 1 20 21
M  V30 21 1 21 22
M  V30 22 1 22 23
M  V30 23 2 23 24
M  V30 24 1 23 25
M  V30 25 1 25 26
M  V30 26 1 26 27
M  V30 27 1 27 28
M  V30 28 1 27 29
M  V30 29 1 21 30
M  V30 30 1 30 31
M  V30 31 2 17 32
M  V30 32 1 32 33
M  V30 33 1 9 3
M  V30 34 1 33 10
M  V30 35 2 33 15
M  V30 36 1 31 18
M  V30 37 1 29 25
M  V30 38 1 1 34
M  V30 39 1 1 35
M  V30 40 1 1 36
M  V30 41 1 4 37
M  V30 42 1 5 38
M  V30 43 1 8 39
M  V30 44 1 13 40
M  V30 45 1 16 41
M  V30 46 1 18 42
M  V30 47 1 19 43
M  V30 48 1 19 44
M  V30 49 1 20 45
M  V30 50 1 20 46
M  V30 51 1 22 47
M  V30 52 1 22 48
M  V30 53 1 26 49
M  V30 54 1 26 50
M  V30 55 1 27 51
M  V30 56 1 28 52
M  V30 57 1 29 53
M  V30 58 1 29 54
M  V30 59 1 30 55
M  V30 60 1 30 56
M  V30 61 1 31 57
M  V30 62 1 31 58
M  V30 63 1 32 59
M  V30 END BOND
M  V30 END CTAB
M  END
>  <Dataset>  (953) 
ChEMBL_Kinases

>  <Ligand_Instance>  (953) 
nan

>  <PDB_ID>  (953) 
nan

>  <Standardized_SMILES>  (953) 
COc1ccc(F)cc1-c1c(F)cnc2[nH]c(C3CCN(CC(=O)N4CC(O)C4)CC3)cc12

>  <Name>  (953) 
nan

>  <Pocket>  (953) 
nan

>  <ATP_Site>  (953) 
nan

>  <Peripheral>  (953) 
nan

>  <Num_H_Atoms_ProtBoundConf>  (953) 
nan

>  <Num_Resolved_Atoms>  (953) 
nan

>  <Num_Not_Resolved_Atoms>  (953) 
nan

$$$$
CHEMBL3668524
     RDKit          3D

  0  0  0  0  0  0  0  0  0  0999 V3000
M  V30 BEGIN CTAB
M  V30 COUNTS 51 54 0 0 0
M  V30 BEGIN ATOM
M  V30 1 C 3.189019 0.049565 4.830143 0
M  V30 2 O 3.203357 0.422442 3.488969 0
M  V30 3 C 3.987086 -0.071568 2.484588 0
M  V30 4 C 4.923691 -1.058017 2.656081 0
M  V30 5 C 5.693065 -1.520864 1.593478 0
M  V30 6 C 5.511282 -0.977157 0.340170 0
M  V30 7 F 6.286899 -1.458072 -0.681454 0
M  V30 8 C 4.574492 0.019130 0.135245 0
M  V30 9 C 3.808917 0.475134 1.208390 0
M  V30 10 C 2.816116 1.526180 1.007913 0
M  V30 11 C 3.216579 2.842047 1.162091 0
M  V30 12 C 2.351552 3.898229 0.993339 0
M  V30 13 N 1.053218 3.636421 0.662224 0
M  V30 14 C 0.689799 2.333376 0.517717 0
M  V30 15 N -0.519652 1.835442 0.198553 0
M  V30 16 C -0.482511 0.477328 0.150467 0
M  V30 17 C -1.592750 -0.433684 -0.161658 0
M  V30 18 C -1.382387 -1.753232 -0.165449 0
M  V30 19 C -2.539314 -2.654622 -0.488681 0 CFG=2
M  V30 20 C -2.548671 -2.821477 -1.984531 0
M  V30 21 N -3.691611 -2.088901 0.060497 0
M  V30 22 S -4.899248 -3.105500 0.618222 0
M  V30 23 C -5.588402 -4.126288 -0.634600 0
M  V30 24 O -4.329321 -4.029630 1.682708 0
M  V30 25 O -5.989090 -2.308364 1.269712 0
M  V30 26 C -4.061576 -0.781757 -0.326562 0
M  V30 27 C -2.914375 0.156864 -0.462566 0
M  V30 28 C 0.826410 0.086551 0.456702 0
M  V30 29 C 1.517104 1.241053 0.675647 0
M  V30 30 H 3.650234 0.892559 5.415916 0
M  V30 31 H 2.133076 -0.017589 5.168259 0
M  V30 32 H 3.719505 -0.868163 5.086410 0
M  V30 33 H 5.046541 -1.468860 3.653407 0
M  V30 34 H 6.395550 -2.293025 1.833951 0
M  V30 35 H 4.458827 0.422391 -0.860730 0
M  V30 36 H 4.229523 3.093073 1.422402 0
M  V30 37 H 2.683026 4.911367 1.117742 0
M  V30 38 H -1.391283 2.379258 0.006567 0
M  V30 39 H -0.375566 -2.118984 0.067335 0
M  V30 40 H -2.329330 -3.613162 0.029470 0
M  V30 41 H -3.530337 -2.513976 -2.414055 0
M  V30 42 H -2.344684 -3.898892 -2.214696 0
M  V30 43 H -1.750420 -2.243945 -2.495494 0
M  V30 44 H -4.856637 -4.462378 -1.394174 0
M  V30 45 H -6.446399 -3.578605 -1.094095 0
M  V30 46 H -6.016123 -5.030172 -0.155269 0
M  V30 47 H -4.752086 -0.375260 0.456070 0
M  V30 48 H -4.680204 -0.819503 -1.249394 0
M  V30 49 H -2.854684 0.469972 -1.546232 0
M  V30 50 H -3.087687 1.100313 0.087672 0
M  V30 51 H 1.237185 -0.903757 0.516241 0
M  V30 END ATOM
M  V30 BEGIN BOND
M  V30 1 1 1 2
M  V30 2 1 2 3
M  V30 3 2 3 4
M  V30 4 1 4 5
M  V30 5 2 5 6
M  V30 6 1 6 7
M  V30 7 1 6 8
M  V30 8 2 8 9
M  V30 9 1 9 10
M  V30 10 2 10 11
M  V30 11 1 11 12
M  V30 12 2 12 13
M  V30 13 1 13 14
M  V30 14 1 14 15
M  V30 15 1 15 16
M  V30 16 1 16 17
M  V30 17 2 17 18
M  V30 18 1 18 19
M  V30 19 1 19 20
M  V30 20 1 19 21
M  V30 21 1 21 22
M  V30 22 1 22 23
M  V30 23 2 22 24
M  V30 24 2 22 25
M  V30 25 1 21 26
M  V30 26 1 26 27
M  V30 27 2 16 28
M  V30 28 1 28 29
M  V30 29 1 9 3
M  V30 30 1 29 10
M  V30 31 2 29 14
M  V30 32 1 27 17
M  V30 33 1 1 30
M  V30 34 1 1 31
M  V30 35 1 1 32
M  V30 36 1 4 33
M  V30 37 1 5 34
M  V30 38 1 8 35
M  V30 39 1 11 36
M  V30 40 1 12 37
M  V30 41 1 15 38
M  V30 42 1 18 39
M  V30 43 1 19 40 CFG=1
M  V30 44 1 20 41
M  V30 45 1 20 42
M  V30 46 1 20 43
M  V30 47 1 23 44
M  V30 48 1 23 45
M  V30 49 1 23 46
M  V30 50 1 26 47
M  V30 51 1 26 48
M  V30 52 1 27 49
M  V30 53 1 27 50
M  V30 54 1 28 51
M  V30 END BOND
M  V30 END CTAB
M  END
>  <Dataset>  (954) 
ChEMBL_Kinases

>  <Ligand_Instance>  (954) 
nan

>  <PDB_ID>  (954) 
nan

>  <Standardized_SMILES>  (954) 
COc1ccc(F)cc1-c1ccnc2[nH]c(C3=C[C@H](C)N(S(C)(=O)=O)CC3)cc12

>  <Name>  (954) 
nan

>  <Pocket>  (954) 
nan

>  <ATP_Site>  (954) 
nan

>  <Peripheral>  (954) 
nan

>  <Num_H_Atoms_ProtBoundConf>  (954) 
nan

>  <Num_Resolved_Atoms>  (954) 
nan

>  <Num_Not_Resolved_Atoms>  (954) 
nan

$$$$
CHEMBL3668523
     RDKit          3D

  0  0  0  0  0  0  0  0  0  0999 V3000
M  V30 BEGIN CTAB
M  V30 COUNTS 57 60 0 0 0
M  V30 BEGIN ATOM
M  V30 1 C 3.089323 -1.500473 4.538104 0
M  V30 2 O 2.812403 -0.402561 3.693158 0
M  V30 3 C 3.849029 0.228601 3.042058 0
M  V30 4 C 5.150758 -0.191114 3.200136 0
M  V30 5 C 6.100472 0.539156 2.481810 0
M  V30 6 C 5.806742 1.605023 1.664857 0
M  V30 7 C 4.476703 1.962283 1.560676 0
M  V30 8 C 3.474561 1.295914 2.234911 0
M  V30 9 C 2.080884 1.703646 2.096905 0
M  V30 10 C 1.440036 2.631453 2.902615 0
M  V30 11 C 0.107958 2.891394 2.622167 0
M  V30 12 N -0.573751 2.290251 1.618394 0
M  V30 13 C 0.047414 1.381395 0.825588 0
M  V30 14 N -0.373976 0.644241 -0.222105 0
M  V30 15 C 0.623810 -0.141601 -0.703556 0
M  V30 16 C 0.636047 -1.111627 -1.819870 0
M  V30 17 C 0.121079 -2.444728 -1.289304 0
M  V30 18 C -1.302807 -2.245274 -0.835559 0
M  V30 19 N -2.128688 -1.667001 -1.866044 0
M  V30 20 C -3.381214 -2.390526 -1.999385 0
M  V30 21 C -4.188964 -2.156352 -0.775535 0
M  V30 22 O -3.884255 -1.466023 0.218016 0
M  V30 23 N -5.479025 -2.745680 -0.620852 0
M  V30 24 C -6.227211 -2.488282 0.598914 0
M  V30 25 C -6.165280 -3.613681 -1.581263 0
M  V30 26 C -1.478179 -1.497601 -3.132288 0
M  V30 27 C -0.224287 -0.704477 -2.967905 0
M  V30 28 C 1.697256 0.167760 0.129187 0
M  V30 29 C 1.372347 1.106579 1.085685 0
M  V30 30 H 3.688542 -1.216170 5.413383 0
M  V30 31 H 2.124134 -1.953163 4.848354 0
M  V30 32 H 3.672642 -2.271603 3.986013 0
M  V30 33 H 5.403447 -1.026964 3.838203 0
M  V30 34 H 7.129910 0.216330 2.600922 0
M  V30 35 H 6.613025 2.122639 1.137349 0
M  V30 36 H 4.227259 2.807007 0.915746 0
M  V30 37 H 2.013436 3.086196 3.686260 0
M  V30 38 H -0.317242 3.632329 3.301815 0
M  V30 39 H -1.339667 0.695045 -0.596561 0
M  V30 40 H 1.709113 -1.286358 -2.090307 0
M  V30 41 H 0.726101 -2.784378 -0.415878 0
M  V30 42 H 0.146691 -3.222907 -2.080170 0
M  V30 43 H -1.682214 -3.254545 -0.522969 0
M  V30 44 H -1.340907 -1.577321 0.046865 0
M  V30 45 H -3.906340 -2.009031 -2.893076 0
M  V30 46 H -3.150483 -3.472382 -2.120612 0
M  V30 47 H -6.099425 -3.314326 1.322648 0
M  V30 48 H -5.853446 -1.538367 1.039633 0
M  V30 49 H -7.306353 -2.313541 0.385787 0
M  V30 50 H -6.934569 -2.983982 -2.066185 0
M  V30 51 H -5.455978 -3.947610 -2.368534 0
M  V30 52 H -6.621529 -4.490744 -1.080402 0
M  V30 53 H -2.177482 -0.868976 -3.754848 0
M  V30 54 H -1.271716 -2.434331 -3.676881 0
M  V30 55 H -0.480469 0.380554 -2.955454 0
M  V30 56 H 0.391475 -0.851210 -3.900450 0
M  V30 57 H 2.674872 -0.316639 -0.009079 0
M  V30 END ATOM
M  V30 BEGIN BOND
M  V30 1 1 1 2
M  V30 2 1 2 3
M  V30 3 2 3 4
M  V30 4 1 4 5
M  V30 5 2 5 6
M  V30 6 1 6 7
M  V30 7 2 7 8
M  V30 8 1 8 9
M  V30 9 2 9 10
M  V30 10 1 10 11
M  V30 11 2 11 12
M  V30 12 1 12 13
M  V30 13 1 13 14
M  V30 14 1 14 15
M  V30 15 1 15 16
M  V30 16 1 16 17
M  V30 17 1 17 18
M  V30 18 1 18 19
M  V30 19 1 19 20
M  V30 20 1 20 21
M  V30 21 2 21 22
M  V30 22 1 21 23
M  V30 23 1 23 24
M  V30 24 1 23 25
M  V30 25 1 19 26
M  V30 26 1 26 27
M  V30 27 2 15 28
M  V30 28 1 28 29
M  V30 29 1 8 3
M  V30 30 1 29 9
M  V30 31 2 29 13
M  V30 32 1 27 16
M  V30 33 1 1 30
M  V30 34 1 1 31
M  V30 35 1 1 32
M  V30 36 1 4 33
M  V30 37 1 5 34
M  V30 38 1 6 35
M  V30 39 1 7 36
M  V30 40 1 10 37
M  V30 41 1 11 38
M  V30 42 1 14 39
M  V30 43 1 16 40
M  V30 44 1 17 41
M  V30 45 1 17 42
M  V30 46 1 18 43
M  V30 47 1 18 44
M  V30 48 1 20 45
M  V30 49 1 20 46
M  V30 50 1 24 47
M  V30 51 1 24 48
M  V30 52 1 24 49
M  V30 53 1 25 50
M  V30 54 1 25 51
M  V30 55 1 25 52
M  V30 56 1 26 53
M  V30 57 1 26 54
M  V30 58 1 27 55
M  V30 59 1 27 56
M  V30 60 1 28 57
M  V30 END BOND
M  V30 END CTAB
M  END
>  <Dataset>  (955) 
ChEMBL_Kinases

>  <Ligand_Instance>  (955) 
nan

>  <PDB_ID>  (955) 
nan

>  <Standardized_SMILES>  (955) 
COc1ccccc1-c1ccnc2[nH]c(C3CCN(CC(=O)N(C)C)CC3)cc12

>  <Name>  (955) 
nan

>  <Pocket>  (955) 
nan

>  <ATP_Site>  (955) 
nan

>  <Peripheral>  (955) 
nan

>  <Num_H_Atoms_ProtBoundConf>  (955) 
nan

>  <Num_Resolved_Atoms>  (955) 
nan

>  <Num_Not_Resolved_Atoms>  (955) 
nan

$$$$
CHEMBL3668522
     RDKit          3D

  0  0  0  0  0  0  0  0  0  0999 V3000
M  V30 BEGIN CTAB
M  V30 COUNTS 56 59 0 0 0
M  V30 BEGIN ATOM
M  V30 1 C 2.240463 -0.391492 4.809862 0
M  V30 2 O 2.447581 0.396403 3.677736 0
M  V30 3 C 3.479084 0.254093 2.761186 0
M  V30 4 C 4.354446 -0.781791 3.046669 0
M  V30 5 C 5.437822 -1.026137 2.193731 0
M  V30 6 C 5.619369 -0.232186 1.081311 0
M  V30 7 F 6.660508 -0.444012 0.235878 0
M  V30 8 C 4.753731 0.801089 0.788763 0
M  V30 9 C 3.703832 1.034844 1.618264 0
M  V30 10 C 2.653709 2.073462 1.508151 0
M  V30 11 C 2.748004 3.320724 2.084487 0
M  V30 12 C 1.683911 4.176543 1.898146 0
M  V30 13 N 0.603489 3.820458 1.190638 0
M  V30 14 C 0.481666 2.613201 0.617031 0
M  V30 15 N -0.476443 2.019384 -0.132109 0
M  V30 16 C -0.118701 0.771274 -0.479405 0
M  V30 17 C -0.925841 -0.141942 -1.279742 0
M  V30 18 C -2.131492 0.326363 -1.642690 0
M  V30 19 C -3.067121 -0.507631 -2.467498 0
M  V30 20 N -2.628621 -1.871692 -2.553589 0
M  V30 21 C -2.958880 -2.691816 -1.423723 0
M  V30 22 C -4.410162 -2.964638 -1.278586 0
M  V30 23 O -5.607688 -2.859428 -1.634237 0
M  V30 24 N -4.712432 -3.782577 -0.154321 0
M  V30 25 C -6.125906 -4.087475 0.038308 0
M  V30 26 C -3.741368 -4.333740 0.803518 0
M  V30 27 C -1.244001 -1.921876 -2.910192 0
M  V30 28 C -0.458394 -1.491183 -1.686082 0
M  V30 29 C 1.117691 0.601032 0.088376 0
M  V30 30 C 1.928073 -0.577463 0.011567 0
M  V30 31 N 2.568910 -1.542051 -0.056445 0
M  V30 32 C 1.527974 1.723430 0.779566 0
M  V30 33 H 2.404002 -1.468650 4.594260 0
M  V30 34 H 2.849886 -0.033519 5.672106 0
M  V30 35 H 1.173101 -0.261661 5.139761 0
M  V30 36 H 4.312770 -1.462932 3.882112 0
M  V30 37 H 6.150611 -1.836641 2.386707 0
M  V30 38 H 4.815360 1.464236 -0.046892 0
M  V30 39 H 3.643844 3.561979 2.647797 0
M  V30 40 H 1.722017 5.163164 2.335116 0
M  V30 41 H -1.356092 2.561062 -0.356097 0
M  V30 42 H -2.551619 1.293014 -1.405130 0
M  V30 43 H -4.098869 -0.373911 -2.155405 0
M  V30 44 H -2.977427 -0.092039 -3.511441 0
M  V30 45 H -2.562680 -2.210233 -0.497858 0
M  V30 46 H -2.447778 -3.672194 -1.526137 0
M  V30 47 H -6.760632 -3.193669 0.063128 0
M  V30 48 H -6.440191 -4.821001 -0.756508 0
M  V30 49 H -6.260064 -4.631621 0.997650 0
M  V30 50 H -2.883013 -4.692500 0.176484 0
M  V30 51 H -3.379275 -3.512024 1.439781 0
M  V30 52 H -4.209326 -5.175325 1.337516 0
M  V30 53 H -0.916443 -2.890058 -3.283781 0
M  V30 54 H -1.061685 -1.169782 -3.703968 0
M  V30 55 H 0.608933 -1.476903 -2.009408 0
M  V30 56 H -0.555139 -2.157825 -0.831516 0
M  V30 END ATOM
M  V30 BEGIN BOND
M  V30 1 1 1 2
M  V30 2 1 2 3
M  V30 3 2 3 4
M  V30 4 1 4 5
M  V30 5 2 5 6
M  V30 6 1 6 7
M  V30 7 1 6 8
M  V30 8 2 8 9
M  V30 9 1 9 10
M  V30 10 2 10 11
M  V30 11 1 11 12
M  V30 12 2 12 13
M  V30 13 1 13 14
M  V30 14 1 14 15
M  V30 15 1 15 16
M  V30 16 1 16 17
M  V30 17 2 17 18
M  V30 18 1 18 19
M  V30 19 1 19 20
M  V30 20 1 20 21
M  V30 21 1 21 22
M  V30 22 2 22 23
M  V30 23 1 22 24
M  V30 24 1 24 25
M  V30 25 1 24 26
M  V30 26 1 20 27
M  V30 27 1 27 28
M  V30 28 2 16 29
M  V30 29 1 29 30
M  V30 30 3 30 31
M  V30 31 1 29 32
M  V30 32 1 9 3
M  V30 33 1 32 10
M  V30 34 2 32 14
M  V30 35 1 28 17
M  V30 36 1 1 33
M  V30 37 1 1 34
M  V30 38 1 1 35
M  V30 39 1 4 36
M  V30 40 1 5 37
M  V30 41 1 8 38
M  V30 42 1 11 39
M  V30 43 1 12 40
M  V30 44 1 15 41
M  V30 45 1 18 42
M  V30 46 1 19 43
M  V30 47 1 19 44
M  V30 48 1 21 45
M  V30 49 1 21 46
M  V30 50 1 25 47
M  V30 51 1 25 48
M  V30 52 1 25 49
M  V30 53 1 26 50
M  V30 54 1 26 51
M  V30 55 1 26 52
M  V30 56 1 27 53
M  V30 57 1 27 54
M  V30 58 1 28 55
M  V30 59 1 28 56
M  V30 END BOND
M  V30 END CTAB
M  END
>  <Dataset>  (956) 
ChEMBL_Kinases

>  <Ligand_Instance>  (956) 
nan

>  <PDB_ID>  (956) 
nan

>  <Standardized_SMILES>  (956) 
COc1ccc(F)cc1-c1ccnc2[nH]c(C3=CCN(CC(=O)N(C)C)CC3)c(C#N)c12

>  <Name>  (956) 
nan

>  <Pocket>  (956) 
nan

>  <ATP_Site>  (956) 
nan

>  <Peripheral>  (956) 
nan

>  <Num_H_Atoms_ProtBoundConf>  (956) 
nan

>  <Num_Resolved_Atoms>  (956) 
nan

>  <Num_Not_Resolved_Atoms>  (956) 
nan

$$$$
CHEMBL3668521
     RDKit          3D

  0  0  0  0  0  0  0  0  0  0999 V3000
M  V30 BEGIN CTAB
M  V30 COUNTS 57 60 0 0 0
M  V30 BEGIN ATOM
M  V30 1 C -1.486692 3.656540 3.723041 0
M  V30 2 O -0.337814 2.872645 3.553879 0
M  V30 3 C -0.008332 1.745064 4.280063 0
M  V30 4 C -0.757458 1.203603 5.297971 0
M  V30 5 C -0.405539 0.076943 6.005641 0
M  V30 6 C 0.769750 -0.561550 5.686679 0
M  V30 7 F 1.160058 -1.682701 6.357266 0
M  V30 8 C 1.563891 -0.051863 4.663931 0
M  V30 9 C 1.162945 1.084655 3.984285 0
M  V30 10 C 2.113536 1.486185 2.961095 0
M  V30 11 C 3.170528 2.348511 3.284038 0
M  V30 12 F 3.278094 2.786938 4.557865 0
M  V30 13 C 4.128695 2.791686 2.381810 0
M  V30 14 N 4.046746 2.368339 1.099677 0
M  V30 15 C 3.059923 1.539809 0.715131 0
M  V30 16 N 2.671157 0.941652 -0.424572 0
M  V30 17 C 1.581390 0.183673 -0.312815 0
M  V30 18 C 0.950862 -0.560735 -1.415731 0
M  V30 19 C 0.955034 -2.040895 -1.232136 0
M  V30 20 C -0.057153 -2.721893 -2.174110 0
M  V30 21 N -1.386019 -2.341364 -1.876727 0
M  V30 22 C -2.323046 -3.311664 -1.482501 0
M  V30 23 C -2.805814 -4.277960 -2.455129 0
M  V30 24 O -3.621417 -5.046302 -1.829999 0
M  V30 25 N -2.595501 -4.551586 -3.856508 0
M  V30 26 C -1.738773 -3.833974 -4.746550 0
M  V30 27 C -3.311677 -5.655230 -4.464903 0
M  V30 28 C -1.385083 -1.169396 -1.039595 0
M  V30 29 C -0.476150 -0.090141 -1.570371 0
M  V30 30 C 1.215922 0.282365 0.996618 0
M  V30 31 C 2.113191 1.111035 1.638032 0
M  V30 32 H -1.993488 3.701108 2.714830 0
M  V30 33 H -1.199551 4.701635 3.996162 0
M  V30 34 H -2.223817 3.218630 4.398903 0
M  V30 35 H -1.674795 1.673200 5.573496 0
M  V30 36 H -0.988468 -0.341993 6.793657 0
M  V30 37 H 2.477585 -0.605751 4.467008 0
M  V30 38 H 4.909578 3.457222 2.719640 0
M  V30 39 H 3.272786 1.137148 -1.282092 0
M  V30 40 H 1.555167 -0.274610 -2.335943 0
M  V30 41 H 0.771125 -2.424448 -0.241438 0
M  V30 42 H 1.951518 -2.459134 -1.561860 0
M  V30 43 H 0.188290 -3.781548 -2.161808 0
M  V30 44 H 0.187144 -2.367432 -3.221334 0
M  V30 45 H -1.889451 -3.852993 -0.594833 0
M  V30 46 H -3.204738 -2.766405 -1.020179 0
M  V30 47 H -0.702902 -4.220848 -4.561949 0
M  V30 48 H -1.763547 -2.746832 -4.522672 0
M  V30 49 H -2.023465 -3.959591 -5.808627 0
M  V30 50 H -2.585056 -6.358539 -4.895395 0
M  V30 51 H -4.023084 -6.123292 -3.758799 0
M  V30 52 H -3.845650 -5.199179 -5.342021 0
M  V30 53 H -2.412088 -0.788912 -0.845108 0
M  V30 54 H -0.999300 -1.467032 -0.045414 0
M  V30 55 H -0.619812 0.781188 -0.905981 0
M  V30 56 H -0.713489 0.180321 -2.622145 0
M  V30 57 H 0.366264 -0.208051 1.449621 0
M  V30 END ATOM
M  V30 BEGIN BOND
M  V30 1 1 1 2
M  V30 2 1 2 3
M  V30 3 2 3 4
M  V30 4 1 4 5
M  V30 5 2 5 6
M  V30 6 1 6 7
M  V30 7 1 6 8
M  V30 8 2 8 9
M  V30 9 1 9 10
M  V30 10 2 10 11
M  V30 11 1 11 12
M  V30 12 1 11 13
M  V30 13 2 13 14
M  V30 14 1 14 15
M  V30 15 1 15 16
M  V30 16 1 16 17
M  V30 17 1 17 18
M  V30 18 1 18 19
M  V30 19 1 19 20
M  V30 20 1 20 21
M  V30 21 1 21 22
M  V30 22 1 22 23
M  V30 23 2 23 24
M  V30 24 1 23 25
M  V30 25 1 25 26
M  V30 26 1 25 27
M  V30 27 1 21 28
M  V30 28 1 28 29
M  V30 29 2 17 30
M  V30 30 1 30 31
M  V30 31 1 9 3
M  V30 32 1 31 10
M  V30 33 2 31 15
M  V30 34 1 29 18
M  V30 35 1 1 32
M  V30 36 1 1 33
M  V30 37 1 1 34
M  V30 38 1 4 35
M  V30 39 1 5 36
M  V30 40 1 8 37
M  V30 41 1 13 38
M  V30 42 1 16 39
M  V30 43 1 18 40
M  V30 44 1 19 41
M  V30 45 1 19 42
M  V30 46 1 20 43
M  V30 47 1 20 44
M  V30 48 1 22 45
M  V30 49 1 22 46
M  V30 50 1 26 47
M  V30 51 1 26 48
M  V30 52 1 26 49
M  V30 53 1 27 50
M  V30 54 1 27 51
M  V30 55 1 27 52
M  V30 56 1 28 53
M  V30 57 1 28 54
M  V30 58 1 29 55
M  V30 59 1 29 56
M  V30 60 1 30 57
M  V30 END BOND
M  V30 END CTAB
M  END
>  <Dataset>  (957) 
ChEMBL_Kinases

>  <Ligand_Instance>  (957) 
nan

>  <PDB_ID>  (957) 
nan

>  <Standardized_SMILES>  (957) 
COc1ccc(F)cc1-c1c(F)cnc2[nH]c(C3CCN(CC(=O)N(C)C)CC3)cc12

>  <Name>  (957) 
nan

>  <Pocket>  (957) 
nan

>  <ATP_Site>  (957) 
nan

>  <Peripheral>  (957) 
nan

>  <Num_H_Atoms_ProtBoundConf>  (957) 
nan

>  <Num_Resolved_Atoms>  (957) 
nan

>  <Num_Not_Resolved_Atoms>  (957) 
nan

$$$$
CHEMBL3668520
     RDKit          3D

  0  0  0  0  0  0  0  0  0  0999 V3000
M  V30 BEGIN CTAB
M  V30 COUNTS 63 66 0 0 0
M  V30 BEGIN ATOM
M  V30 1 C 4.766959 -1.471241 3.085042 0
M  V30 2 O 4.160837 -0.210762 2.811921 0
M  V30 3 C 3.682018 0.553889 3.877683 0
M  V30 4 C 3.753477 0.168779 5.214930 0
M  V30 5 C 3.235834 1.035567 6.146951 0
M  V30 6 C 2.657153 2.247185 5.847738 0
M  V30 7 F 2.183883 3.005644 6.888443 0
M  V30 8 C 2.592845 2.616961 4.516000 0
M  V30 9 C 3.105985 1.766057 3.546984 0
M  V30 10 C 2.955101 2.306791 2.195776 0
M  V30 11 C 4.004706 3.076400 1.719673 0
M  V30 12 C 3.822878 3.566444 0.436498 0
M  V30 13 N 2.727613 3.326883 -0.301258 0
M  V30 14 C 1.711471 2.574019 0.176868 0
M  V30 15 N 0.526792 2.208218 -0.384116 0
M  V30 16 C -0.059348 1.471312 0.557113 0
M  V30 17 C -1.372796 0.900420 0.299937 0
M  V30 18 C -2.032967 1.065379 -0.831398 0
M  V30 19 C -3.369115 0.492371 -1.106222 0
M  V30 20 C -3.341246 -0.983181 -0.774156 0
M  V30 21 N -3.041393 -1.786579 -1.941924 0
M  V30 22 C -3.114991 -3.198517 -1.732658 0 CFG=2
M  V30 23 C -2.194234 -3.744257 -0.729956 0
M  V30 24 O -2.282441 -5.004798 -0.547096 0
M  V30 25 O -1.325859 -4.265860 0.217172 0
M  V30 26 C -2.964091 -3.902747 -3.077525 0
M  V30 27 C -3.036217 -5.385409 -2.933777 0
M  V30 28 C -4.095741 -3.383687 -3.937234 0
M  V30 29 C -1.652548 -3.533559 -3.736258 0
M  V30 30 C -2.438720 -1.242088 0.387636 0
M  V30 31 C -2.225074 0.036972 1.200394 0
M  V30 32 C 0.681899 1.335192 1.707903 0
M  V30 33 C 1.825299 2.050230 1.455744 0
M  V30 34 H 4.054711 -2.136638 3.640536 0
M  V30 35 H 5.677447 -1.367749 3.683704 0
M  V30 36 H 4.977251 -1.965736 2.119951 0
M  V30 37 H 4.209423 -0.783145 5.434323 0
M  V30 38 H 3.293195 0.733011 7.179549 0
M  V30 39 H 2.131518 3.572360 4.328832 0
M  V30 40 H 4.906837 3.302731 2.263685 0
M  V30 41 H 4.615506 4.182989 -0.000086 0
M  V30 42 H 0.247994 2.494428 -1.332619 0
M  V30 43 H -1.590240 1.655649 -1.629492 0
M  V30 44 H -4.154511 0.929127 -0.453198 0
M  V30 45 H -3.689699 0.643297 -2.148393 0
M  V30 46 H -4.378418 -1.311447 -0.470548 0
M  V30 47 H -2.093409 -1.499496 -2.299444 0
M  V30 48 H -4.174933 -3.436898 -1.421119 0
M  V30 49 H -0.666264 -3.660973 0.707810 0
M  V30 50 H -3.781661 -5.734607 -2.168936 0
M  V30 51 H -2.040505 -5.817262 -2.708375 0
M  V30 52 H -3.330242 -5.838786 -3.929536 0
M  V30 53 H -3.974626 -2.275936 -3.961624 0
M  V30 54 H -4.068634 -3.757200 -4.974315 0
M  V30 55 H -5.074587 -3.609245 -3.442287 0
M  V30 56 H -0.836779 -3.437964 -2.974171 0
M  V30 57 H -1.733744 -2.657581 -4.374942 0
M  V30 58 H -1.351273 -4.390064 -4.386540 0
M  V30 59 H -1.443722 -1.535536 -0.061943 0
M  V30 60 H -2.741255 -2.068239 1.040704 0
M  V30 61 H -3.212745 0.508544 1.362438 0
M  V30 62 H -1.704690 -0.153629 2.135981 0
M  V30 63 H 0.424622 0.791397 2.603520 0
M  V30 END ATOM
M  V30 BEGIN BOND
M  V30 1 1 1 2
M  V30 2 1 2 3
M  V30 3 2 3 4
M  V30 4 1 4 5
M  V30 5 2 5 6
M  V30 6 1 6 7
M  V30 7 1 6 8
M  V30 8 2 8 9
M  V30 9 1 9 10
M  V30 10 2 10 11
M  V30 11 1 11 12
M  V30 12 2 12 13
M  V30 13 1 13 14
M  V30 14 1 14 15
M  V30 15 1 15 16
M  V30 16 1 16 17
M  V30 17 2 17 18
M  V30 18 1 18 19
M  V30 19 1 19 20
M  V30 20 1 20 21
M  V30 21 1 21 22
M  V30 22 1 22 23
M  V30 23 2 23 24
M  V30 24 1 23 25
M  V30 25 1 22 26
M  V30 26 1 26 27
M  V30 27 1 26 28
M  V30 28 1 26 29
M  V30 29 1 20 30
M  V30 30 1 30 31
M  V30 31 2 16 32
M  V30 32 1 32 33
M  V30 33 1 9 3
M  V30 34 1 33 10
M  V30 35 2 33 14
M  V30 36 1 31 17
M  V30 37 1 1 34
M  V30 38 1 1 35
M  V30 39 1 1 36
M  V30 40 1 4 37
M  V30 41 1 5 38
M  V30 42 1 8 39
M  V30 43 1 11 40
M  V30 44 1 12 41
M  V30 45 1 15 42
M  V30 46 1 18 43
M  V30 47 1 19 44
M  V30 48 1 19 45
M  V30 49 1 20 46
M  V30 50 1 21 47
M  V30 51 1 22 48 CFG=1
M  V30 52 1 25 49
M  V30 53 1 27 50
M  V30 54 1 27 51
M  V30 55 1 27 52
M  V30 56 1 28 53
M  V30 57 1 28 54
M  V30 58 1 28 55
M  V30 59 1 29 56
M  V30 60 1 29 57
M  V30 61 1 29 58
M  V30 62 1 30 59
M  V30 63 1 30 60
M  V30 64 1 31 61
M  V30 65 1 31 62
M  V30 66 1 32 63
M  V30 END BOND
M  V30 END CTAB
M  END
>  <Dataset>  (958) 
ChEMBL_Kinases

>  <Ligand_Instance>  (958) 
nan

>  <PDB_ID>  (958) 
nan

>  <Standardized_SMILES>  (958) 
COc1ccc(F)cc1-c1ccnc2[nH]c(C3=CCC(N[C@H](C(=O)O)C(C)(C)C)CC3)cc12

>  <Name>  (958) 
nan

>  <Pocket>  (958) 
nan

>  <ATP_Site>  (958) 
nan

>  <Peripheral>  (958) 
nan

>  <Num_H_Atoms_ProtBoundConf>  (958) 
nan

>  <Num_Resolved_Atoms>  (958) 
nan

>  <Num_Not_Resolved_Atoms>  (958) 
nan

$$$$
CHEMBL3668519
     RDKit          3D

  0  0  0  0  0  0  0  0  0  0999 V3000
M  V30 BEGIN CTAB
M  V30 COUNTS 59 63 0 0 0
M  V30 BEGIN ATOM
M  V30 1 C 6.029394 -1.819456 1.393477 0
M  V30 2 O 5.264513 -0.656714 1.121112 0
M  V30 3 C 5.371764 0.403514 2.009374 0
M  V30 4 C 6.190857 0.359578 3.135538 0
M  V30 5 C 6.209565 1.474699 3.936431 0
M  V30 6 C 5.455232 2.611314 3.660970 0
M  V30 7 F 5.635954 3.588377 4.592955 0
M  V30 8 C 4.663551 2.611467 2.543464 0
M  V30 9 C 4.622584 1.517938 1.725624 0
M  V30 10 C 3.765188 1.565263 0.548041 0
M  V30 11 C 4.337627 2.043795 -0.611475 0
M  V30 12 C 3.471132 2.064958 -1.705862 0
M  V30 13 N 2.175277 1.659048 -1.670864 0
M  V30 14 C 1.628621 1.197089 -0.544744 0
M  V30 15 N 0.427832 0.729437 -0.159986 0
M  V30 16 C 0.367974 0.373783 1.130354 0
M  V30 17 C -0.797356 -0.179566 1.870148 0
M  V30 18 C -0.873080 -1.646987 1.621630 0
M  V30 19 C -1.661104 -1.917524 0.394281 0
M  V30 20 N -2.964432 -1.379018 0.518867 0
M  V30 21 C -3.931910 -1.874445 -0.410399 0
M  V30 22 C -4.325197 -3.274416 -0.247194 0
M  V30 23 O -3.832338 -4.010181 0.674512 0
M  V30 24 N -5.299142 -3.617305 -1.256427 0
M  V30 25 C -6.076598 -3.131098 -2.408846 0
M  V30 26 C -6.191403 -4.546831 -2.934988 0
M  V30 27 O -7.475368 -4.782951 -3.416480 0
M  V30 28 C -5.981766 -4.898230 -1.486489 0
M  V30 29 C -3.073047 0.015568 0.799613 0
M  V30 30 C -2.041981 0.596134 1.671510 0
M  V30 31 C 1.663491 0.652393 1.579513 0
M  V30 32 C 2.447688 1.157716 0.564032 0
M  V30 33 H 7.095300 -1.683938 1.136594 0
M  V30 34 H 5.637799 -2.620789 0.714987 0
M  V30 35 H 5.894311 -2.173827 2.436981 0
M  V30 36 H 6.758607 -0.535013 3.316563 0
M  V30 37 H 6.876468 1.361836 4.803345 0
M  V30 38 H 4.113430 3.533852 2.408747 0
M  V30 39 H 5.345625 2.384883 -0.735827 0
M  V30 40 H 3.773268 2.417924 -2.700428 0
M  V30 41 H -0.320712 0.695554 -0.885747 0
M  V30 42 H -0.473508 -0.095209 2.958904 0
M  V30 43 H 0.179708 -2.002545 1.418160 0
M  V30 44 H -1.238580 -2.226352 2.493603 0
M  V30 45 H -1.162591 -1.473684 -0.493431 0
M  V30 46 H -1.752559 -3.001131 0.155255 0
M  V30 47 H -4.790350 -1.156846 -0.443157 0
M  V30 48 H -3.459202 -1.791310 -1.433570 0
M  V30 49 H -5.378819 -2.514964 -3.044352 0
M  V30 50 H -6.992778 -2.620483 -2.120032 0
M  V30 51 H -5.361639 -4.822781 -3.615285 0
M  V30 52 H -7.548059 -4.505347 -4.344396 0
M  V30 53 H -5.312298 -5.752805 -1.323909 0
M  V30 54 H -6.954238 -4.955234 -0.935073 0
M  V30 55 H -4.110469 0.166425 1.205994 0
M  V30 56 H -3.098002 0.540236 -0.179696 0
M  V30 57 H -1.743573 1.623305 1.306926 0
M  V30 58 H -2.508329 0.820402 2.664760 0
M  V30 59 H 1.996537 0.485557 2.605939 0
M  V30 END ATOM
M  V30 BEGIN BOND
M  V30 1 1 1 2
M  V30 2 1 2 3
M  V30 3 2 3 4
M  V30 4 1 4 5
M  V30 5 2 5 6
M  V30 6 1 6 7
M  V30 7 1 6 8
M  V30 8 2 8 9
M  V30 9 1 9 10
M  V30 10 2 10 11
M  V30 11 1 11 12
M  V30 12 2 12 13
M  V30 13 1 13 14
M  V30 14 1 14 15
M  V30 15 1 15 16
M  V30 16 1 16 17
M  V30 17 1 17 18
M  V30 18 1 18 19
M  V30 19 1 19 20
M  V30 20 1 20 21
M  V30 21 1 21 22
M  V30 22 2 22 23
M  V30 23 1 22 24
M  V30 24 1 24 25
M  V30 25 1 25 26
M  V30 26 1 26 27
M  V30 27 1 26 28
M  V30 28 1 20 29
M  V30 29 1 29 30
M  V30 30 2 16 31
M  V30 31 1 31 32
M  V30 32 1 9 3
M  V30 33 1 32 10
M  V30 34 2 32 14
M  V30 35 1 30 17
M  V30 36 1 28 24
M  V30 37 1 1 33
M  V30 38 1 1 34
M  V30 39 1 1 35
M  V30 40 1 4 36
M  V30 41 1 5 37
M  V30 42 1 8 38
M  V30 43 1 11 39
M  V30 44 1 12 40
M  V30 45 1 15 41
M  V30 46 1 17 42
M  V30 47 1 18 43
M  V30 48 1 18 44
M  V30 49 1 19 45
M  V30 50 1 19 46
M  V30 51 1 21 47
M  V30 52 1 21 48
M  V30 53 1 25 49
M  V30 54 1 25 50
M  V30 55 1 26 51
M  V30 56 1 27 52
M  V30 57 1 28 53
M  V30 58 1 28 54
M  V30 59 1 29 55
M  V30 60 1 29 56
M  V30 61 1 30 57
M  V30 62 1 30 58
M  V30 63 1 31 59
M  V30 END BOND
M  V30 END CTAB
M  END
>  <Dataset>  (959) 
ChEMBL_Kinases

>  <Ligand_Instance>  (959) 
nan

>  <PDB_ID>  (959) 
nan

>  <Standardized_SMILES>  (959) 
COc1ccc(F)cc1-c1ccnc2[nH]c(C3CCN(CC(=O)N4CC(O)C4)CC3)cc12

>  <Name>  (959) 
nan

>  <Pocket>  (959) 
nan

>  <ATP_Site>  (959) 
nan

>  <Peripheral>  (959) 
nan

>  <Num_H_Atoms_ProtBoundConf>  (959) 
nan

>  <Num_Resolved_Atoms>  (959) 
nan

>  <Num_Not_Resolved_Atoms>  (959) 
nan

$$$$
CHEMBL3668518
     RDKit          3D

  0  0  0  0  0  0  0  0  0  0999 V3000
M  V30 BEGIN CTAB
M  V30 COUNTS 61 64 0 0 0
M  V30 BEGIN ATOM
M  V30 1 C 3.443039 0.043877 3.870850 0
M  V30 2 O 3.077971 0.840095 2.795119 0
M  V30 3 C 3.358709 0.662045 1.464935 0
M  V30 4 C 4.113114 -0.465817 1.121027 0
M  V30 5 C 4.396769 -0.651354 -0.200355 0
M  V30 6 C 3.989638 0.199291 -1.222181 0
M  V30 7 F 4.289783 -0.017103 -2.524424 0
M  V30 8 C 3.246406 1.306463 -0.862838 0
M  V30 9 C 2.932904 1.539759 0.456807 0
M  V30 10 C 2.150223 2.674303 0.981391 0
M  V30 11 C 2.651946 3.913262 1.386777 0
M  V30 12 C 1.747956 4.842854 1.851041 0
M  V30 13 N 0.425779 4.609476 1.928469 0
M  V30 14 C -0.133750 3.445808 1.558984 0
M  V30 15 N -1.371373 2.915098 1.515434 0
M  V30 16 C -1.339802 1.638208 1.030099 0
M  V30 17 C -2.610737 0.898320 0.916292 0
M  V30 18 C -2.919721 0.590133 -0.546518 0
M  V30 19 C -3.977598 -0.489441 -0.562569 0
M  V30 20 N -3.311694 -1.776212 -0.316931 0
M  V30 21 C -2.753404 -2.266213 -1.577685 0
M  V30 22 C -2.211740 -3.612645 -1.544851 0
M  V30 23 O -1.770258 -3.748886 -2.749874 0
M  V30 24 N -2.002554 -4.778785 -0.712136 0
M  V30 25 C -2.325878 -5.120063 0.675052 0
M  V30 26 C -1.317411 -5.915525 -1.336087 0
M  V30 27 C 0.175735 -5.853315 -1.164191 0
M  V30 28 O 0.573765 -5.852942 0.154629 0
M  V30 29 C -2.245962 -1.525980 0.645028 0
M  V30 30 C -2.599154 -0.425639 1.616446 0
M  V30 31 C -0.014550 1.401184 0.773396 0
M  V30 32 C 0.767379 2.492673 1.085908 0
M  V30 33 H 4.407035 -0.470510 3.795406 0
M  V30 34 H 3.368136 0.654867 4.814221 0
M  V30 35 H 2.636826 -0.727844 3.999067 0
M  V30 36 H 4.458625 -1.165465 1.871624 0
M  V30 37 H 4.989169 -1.537439 -0.456995 0
M  V30 38 H 2.875306 2.036433 -1.569648 0
M  V30 39 H 3.711851 4.017969 1.294661 0
M  V30 40 H 2.190814 5.795640 2.155183 0
M  V30 41 H -2.172673 3.528834 1.848208 0
M  V30 42 H -3.468244 1.491420 1.328500 0
M  V30 43 H -3.377232 1.510844 -0.977485 0
M  V30 44 H -2.033511 0.373569 -1.137538 0
M  V30 45 H -4.725389 -0.257064 0.206372 0
M  V30 46 H -4.439865 -0.574377 -1.568005 0
M  V30 47 H -1.913858 -1.543373 -1.803007 0
M  V30 48 H -3.490070 -2.132065 -2.399614 0
M  V30 49 H -2.745285 -6.122991 0.759555 0
M  V30 50 H -1.473481 -4.904582 1.326938 0
M  V30 51 H -3.149603 -4.406756 0.974613 0
M  V30 52 H -1.722301 -6.854178 -0.974465 0
M  V30 53 H -1.487009 -5.859370 -2.453332 0
M  V30 54 H 0.585672 -6.753443 -1.651097 0
M  V30 55 H 0.578725 -4.982628 -1.723451 0
M  V30 56 H 1.540538 -6.044285 0.212702 0
M  V30 57 H -1.389683 -1.159996 0.025744 0
M  V30 58 H -1.881744 -2.393390 1.179465 0
M  V30 59 H -1.992613 -0.484332 2.518688 0
M  V30 60 H -3.648592 -0.667636 1.954547 0
M  V30 61 H 0.305113 0.458605 0.377531 0
M  V30 END ATOM
M  V30 BEGIN BOND
M  V30 1 1 1 2
M  V30 2 1 2 3
M  V30 3 2 3 4
M  V30 4 1 4 5
M  V30 5 2 5 6
M  V30 6 1 6 7
M  V30 7 1 6 8
M  V30 8 2 8 9
M  V30 9 1 9 10
M  V30 10 2 10 11
M  V30 11 1 11 12
M  V30 12 2 12 13
M  V30 13 1 13 14
M  V30 14 1 14 15
M  V30 15 1 15 16
M  V30 16 1 16 17
M  V30 17 1 17 18
M  V30 18 1 18 19
M  V30 19 1 19 20
M  V30 20 1 20 21
M  V30 21 1 21 22
M  V30 22 2 22 23
M  V30 23 1 22 24
M  V30 24 1 24 25
M  V30 25 1 24 26
M  V30 26 1 26 27
M  V30 27 1 27 28
M  V30 28 1 20 29
M  V30 29 1 29 30
M  V30 30 2 16 31
M  V30 31 1 31 32
M  V30 32 1 9 3
M  V30 33 1 32 10
M  V30 34 2 32 14
M  V30 35 1 30 17
M  V30 36 1 1 33
M  V30 37 1 1 34
M  V30 38 1 1 35
M  V30 39 1 4 36
M  V30 40 1 5 37
M  V30 41 1 8 38
M  V30 42 1 11 39
M  V30 43 1 12 40
M  V30 44 1 15 41
M  V30 45 1 17 42
M  V30 46 1 18 43
M  V30 47 1 18 44
M  V30 48 1 19 45
M  V30 49 1 19 46
M  V30 50 1 21 47
M  V30 51 1 21 48
M  V30 52 1 25 49
M  V30 53 1 25 50
M  V30 54 1 25 51
M  V30 55 1 26 52
M  V30 56 1 26 53
M  V30 57 1 27 54
M  V30 58 1 27 55
M  V30 59 1 28 56
M  V30 60 1 29 57
M  V30 61 1 29 58
M  V30 62 1 30 59
M  V30 63 1 30 60
M  V30 64 1 31 61
M  V30 END BOND
M  V30 END CTAB
M  END
>  <Dataset>  (960) 
ChEMBL_Kinases

>  <Ligand_Instance>  (960) 
nan

>  <PDB_ID>  (960) 
nan

>  <Standardized_SMILES>  (960) 
COc1ccc(F)cc1-c1ccnc2[nH]c(C3CCN(CC(=O)N(C)CCO)CC3)cc12

>  <Name>  (960) 
nan

>  <Pocket>  (960) 
nan

>  <ATP_Site>  (960) 
nan

>  <Peripheral>  (960) 
nan

>  <Num_H_Atoms_ProtBoundConf>  (960) 
nan

>  <Num_Resolved_Atoms>  (960) 
nan

>  <Num_Not_Resolved_Atoms>  (960) 
nan

$$$$
CHEMBL3668517
     RDKit          3D

  0  0  0  0  0  0  0  0  0  0999 V3000
M  V30 BEGIN CTAB
M  V30 COUNTS 59 62 0 0 0
M  V30 BEGIN ATOM
M  V30 1 C 7.876128 -1.068065 0.313187 0
M  V30 2 C 7.512860 -0.113993 1.425692 0
M  V30 3 N 6.090400 0.245223 1.351421 0
M  V30 4 C 5.810107 1.391016 0.559743 0
M  V30 5 O 6.962662 1.757510 0.146255 0
M  V30 6 O 5.317727 2.463346 -0.151479 0
M  V30 7 S 5.046356 -0.797122 2.241702 0
M  V30 8 O 5.463077 -0.632793 3.698332 0
M  V30 9 O 5.278982 -2.234707 1.930262 0
M  V30 10 N 3.452459 -0.288282 2.079763 0
M  V30 11 C 2.873032 -0.275480 0.783007 0
M  V30 12 C 2.422294 1.081247 0.319494 0
M  V30 13 C 0.944663 1.268610 0.513817 0
M  V30 14 C 0.112795 0.311706 0.126681 0
M  V30 15 C -1.340963 0.368063 0.258058 0
M  V30 16 C -2.302049 -0.552866 -0.103703 0
M  V30 17 C -3.512488 0.008609 0.246505 0
M  V30 18 C -4.818968 -0.421900 0.139052 0
M  V30 19 C -5.092917 -1.719214 -0.449182 0
M  V30 20 C -5.281641 -1.674902 -1.813336 0
M  V30 21 C -5.552771 -2.824059 -2.527136 0
M  V30 22 F -5.747413 -2.835156 -3.874739 0
M  V30 23 C -5.626992 -4.006487 -1.831001 0
M  V30 24 C -5.435204 -4.031056 -0.466014 0
M  V30 25 C -5.163285 -2.896228 0.268028 0
M  V30 26 O -4.960531 -2.853226 1.640163 0
M  V30 27 C -5.039368 -4.076207 2.345013 0
M  V30 28 C -5.904299 0.339356 0.573583 0
M  V30 29 C -5.599693 1.561268 1.123668 0
M  V30 30 N -4.315589 1.995010 1.234258 0
M  V30 31 C -3.273158 1.235042 0.803400 0
M  V30 32 N -1.944373 1.440208 0.803541 0
M  V30 33 C 0.832000 -0.856495 -0.470734 0
M  V30 34 C 1.766047 -1.318702 0.627759 0
M  V30 35 H 8.965725 -1.018710 0.107674 0
M  V30 36 H 7.260969 -0.855030 -0.576289 0
M  V30 37 H 7.613093 -2.100700 0.669307 0
M  V30 38 H 7.732733 -0.476500 2.428559 0
M  V30 39 H 8.165682 0.792376 1.287743 0
M  V30 40 H 4.880778 2.289516 -1.058391 0
M  V30 41 H 3.189423 0.549333 2.607433 0
M  V30 42 H 3.650941 -0.622577 0.069575 0
M  V30 43 H 2.902420 1.820142 0.984845 0
M  V30 44 H 2.713390 1.329302 -0.720450 0
M  V30 45 H 0.506055 2.168221 0.965843 0
M  V30 46 H -2.109617 -1.500371 -0.561296 0
M  V30 47 H -5.235684 -0.772567 -2.419039 0
M  V30 48 H -5.838361 -4.961698 -2.326129 0
M  V30 49 H -5.496465 -4.962852 0.062897 0
M  V30 50 H -4.627306 -3.991872 3.371932 0
M  V30 51 H -6.061968 -4.474162 2.388356 0
M  V30 52 H -4.403779 -4.813248 1.779891 0
M  V30 53 H -6.924013 -0.017463 0.479843 0
M  V30 54 H -6.382955 2.209879 1.483716 0
M  V30 55 H -1.533400 2.322499 1.186978 0
M  V30 56 H 0.088831 -1.650200 -0.693268 0
M  V30 57 H 1.405316 -0.584040 -1.375480 0
M  V30 58 H 1.147118 -1.381242 1.545212 0
M  V30 59 H 2.210052 -2.302247 0.455027 0
M  V30 END ATOM
M  V30 BEGIN BOND
M  V30 1 1 1 2
M  V30 2 1 2 3
M  V30 3 1 3 4
M  V30 4 2 4 5
M  V30 5 1 4 6
M  V30 6 1 3 7
M  V30 7 2 7 8
M  V30 8 2 7 9
M  V30 9 1 7 10
M  V30 10 1 10 11
M  V30 11 1 11 12
M  V30 12 1 12 13
M  V30 13 2 13 14
M  V30 14 1 14 15
M  V30 15 2 15 16
M  V30 16 1 16 17
M  V30 17 2 17 18
M  V30 18 1 18 19
M  V30 19 2 19 20
M  V30 20 1 20 21
M  V30 21 1 21 22
M  V30 22 2 21 23
M  V30 23 1 23 24
M  V30 24 2 24 25
M  V30 25 1 25 26
M  V30 26 1 26 27
M  V30 27 1 18 28
M  V30 28 2 28 29
M  V30 29 1 29 30
M  V30 30 2 30 31
M  V30 31 1 31 32
M  V30 32 1 14 33
M  V30 33 1 33 34
M  V30 34 1 34 11
M  V30 35 1 32 15
M  V30 36 1 31 17
M  V30 37 1 25 19
M  V30 38 1 1 35
M  V30 39 1 1 36
M  V30 40 1 1 37
M  V30 41 1 2 38
M  V30 42 1 2 39
M  V30 43 1 6 40
M  V30 44 1 10 41
M  V30 45 1 11 42
M  V30 46 1 12 43
M  V30 47 1 12 44
M  V30 48 1 13 45
M  V30 49 1 16 46
M  V30 50 1 20 47
M  V30 51 1 23 48
M  V30 52 1 24 49
M  V30 53 1 27 50
M  V30 54 1 27 51
M  V30 55 1 27 52
M  V30 56 1 28 53
M  V30 57 1 29 54
M  V30 58 1 32 55
M  V30 59 1 33 56
M  V30 60 1 33 57
M  V30 61 1 34 58
M  V30 62 1 34 59
M  V30 END BOND
M  V30 END CTAB
M  END
>  <Dataset>  (961) 
ChEMBL_Kinases

>  <Ligand_Instance>  (961) 
nan

>  <PDB_ID>  (961) 
nan

>  <Standardized_SMILES>  (961) 
CCN(C(=O)O)S(=O)(=O)NC1CC=C(c2cc3c(-c4cc(F)ccc4OC)ccnc3[nH]2)CC1

>  <Name>  (961) 
nan

>  <Pocket>  (961) 
nan

>  <ATP_Site>  (961) 
nan

>  <Peripheral>  (961) 
nan

>  <Num_H_Atoms_ProtBoundConf>  (961) 
nan

>  <Num_Resolved_Atoms>  (961) 
nan

>  <Num_Not_Resolved_Atoms>  (961) 
nan

$$$$
CHEMBL3668516
     RDKit          3D

  0  0  0  0  0  0  0  0  0  0999 V3000
M  V30 BEGIN CTAB
M  V30 COUNTS 50 53 0 0 0
M  V30 BEGIN ATOM
M  V30 1 C 5.532296 -3.912120 4.018413 0
M  V30 2 N 5.232722 -2.996075 2.928580 0
M  V30 3 C 4.268563 -3.415990 1.971871 0
M  V30 4 O 3.765562 -4.557003 2.170957 0
M  V30 5 N 3.924688 -2.570938 0.877322 0
M  V30 6 C 4.465341 -1.235178 0.580191 0
M  V30 7 C 3.299737 -0.311419 0.737103 0
M  V30 8 C 2.076963 -0.760121 0.505079 0
M  V30 9 C 1.000008 0.204813 0.681258 0
M  V30 10 N 1.165127 1.505527 1.059571 0
M  V30 11 C -0.031307 2.117238 1.126587 0
M  V30 12 N -0.398764 3.372938 1.445992 0
M  V30 13 C -1.677991 3.728478 1.434169 0
M  V30 14 C -2.716551 2.880185 1.106419 0
M  V30 15 C -2.365697 1.587954 0.775344 0
M  V30 16 C -3.416501 0.629079 0.415595 0
M  V30 17 C -4.014136 -0.147539 1.397489 0
M  V30 18 C -4.994272 -1.037916 1.041308 0
M  V30 19 F -5.656626 -1.848971 1.874618 0
M  V30 20 C -5.346782 -1.127649 -0.269333 0
M  V30 21 C -4.752424 -0.351068 -1.267527 0
M  V30 22 C -3.755691 0.557596 -0.921771 0
M  V30 23 O -3.111032 1.371030 -1.856324 0
M  V30 24 C -3.517081 1.237237 -3.209685 0
M  V30 25 C -1.030835 1.232984 0.792172 0
M  V30 26 C -0.371227 0.055105 0.520009 0
M  V30 27 C -1.006657 -1.169805 0.121953 0
M  V30 28 N -1.527537 -2.152438 -0.216708 0
M  V30 29 C 1.704459 -2.115012 0.093513 0
M  V30 30 C 2.940295 -2.998967 -0.098492 0
M  V30 31 H 5.885529 -4.886438 3.590531 0
M  V30 32 H 4.654894 -4.152588 4.640889 0
M  V30 33 H 6.351087 -3.550996 4.655503 0
M  V30 34 H 5.720343 -2.093007 2.889442 0
M  V30 35 H 5.292615 -0.979508 1.238977 0
M  V30 36 H 4.781758 -1.276877 -0.490449 0
M  V30 37 H 3.564876 0.673943 1.035875 0
M  V30 38 H 2.047477 2.015761 1.279116 0
M  V30 39 H -1.824780 4.767385 1.712110 0
M  V30 40 H -3.734691 3.244131 1.119664 0
M  V30 41 H -3.739758 -0.079693 2.427976 0
M  V30 42 H -6.112340 -1.804993 -0.640345 0
M  V30 43 H -5.043437 -0.431521 -2.316936 0
M  V30 44 H -4.627210 1.366989 -3.209574 0
M  V30 45 H -3.291708 0.243715 -3.643561 0
M  V30 46 H -3.120473 2.076733 -3.801277 0
M  V30 47 H 1.050225 -2.661365 0.795083 0
M  V30 48 H 1.269596 -2.017565 -0.936803 0
M  V30 49 H 2.701561 -4.045268 0.089789 0
M  V30 50 H 3.391313 -2.822226 -1.102420 0
M  V30 END ATOM
M  V30 BEGIN BOND
M  V30 1 1 1 2
M  V30 2 1 2 3
M  V30 3 2 3 4
M  V30 4 1 3 5
M  V30 5 1 5 6
M  V30 6 1 6 7
M  V30 7 2 7 8
M  V30 8 1 8 9
M  V30 9 1 9 10
M  V30 10 1 10 11
M  V30 11 2 11 12
M  V30 12 1 12 13
M  V30 13 2 13 14
M  V30 14 1 14 15
M  V30 15 1 15 16
M  V30 16 2 16 17
M  V30 17 1 17 18
M  V30 18 1 18 19
M  V30 19 2 18 20
M  V30 20 1 20 21
M  V30 21 2 21 22
M  V30 22 1 22 23
M  V30 23 1 23 24
M  V30 24 2 15 25
M  V30 25 1 25 26
M  V30 26 1 26 27
M  V30 27 3 27 28
M  V30 28 1 8 29
M  V30 29 1 29 30
M  V30 30 1 30 5
M  V30 31 2 26 9
M  V30 32 1 25 11
M  V30 33 1 22 16
M  V30 34 1 1 31
M  V30 35 1 1 32
M  V30 36 1 1 33
M  V30 37 1 2 34
M  V30 38 1 6 35
M  V30 39 1 6 36
M  V30 40 1 7 37
M  V30 41 1 10 38
M  V30 42 1 13 39
M  V30 43 1 14 40
M  V30 44 1 17 41
M  V30 45 1 20 42
M  V30 46 1 21 43
M  V30 47 1 24 44
M  V30 48 1 24 45
M  V30 49 1 24 46
M  V30 50 1 29 47
M  V30 51 1 29 48
M  V30 52 1 30 49
M  V30 53 1 30 50
M  V30 END BOND
M  V30 END CTAB
M  END
>  <Dataset>  (962) 
ChEMBL_Kinases

>  <Ligand_Instance>  (962) 
nan

>  <PDB_ID>  (962) 
nan

>  <Standardized_SMILES>  (962) 
CNC(=O)N1CC=C(c2[nH]c3nccc(-c4cc(F)ccc4OC)c3c2C#N)CC1

>  <Name>  (962) 
nan

>  <Pocket>  (962) 
nan

>  <ATP_Site>  (962) 
nan

>  <Peripheral>  (962) 
nan

>  <Num_H_Atoms_ProtBoundConf>  (962) 
nan

>  <Num_Resolved_Atoms>  (962) 
nan

>  <Num_Not_Resolved_Atoms>  (962) 
nan

$$$$
CHEMBL3668515
     RDKit          3D

  0  0  0  0  0  0  0  0  0  0999 V3000
M  V30 BEGIN CTAB
M  V30 COUNTS 49 52 0 0 0
M  V30 BEGIN ATOM
M  V30 1 C -1.768124 1.200601 -3.106469 0
M  V30 2 O -0.802925 1.526558 -2.141732 0
M  V30 3 C 0.553543 1.421282 -2.312894 0
M  V30 4 C 1.200397 0.980771 -3.452599 0
M  V30 5 C 2.577456 0.925051 -3.487625 0
M  V30 6 C 3.395060 1.286773 -2.438147 0
M  V30 7 F 4.719147 1.186899 -2.597488 0
M  V30 8 C 2.740108 1.732106 -1.286048 0
M  V30 9 C 1.378482 1.786177 -1.254190 0
M  V30 10 C 0.816005 2.272613 0.016764 0
M  V30 11 C 0.588499 3.596557 0.205698 0
M  V30 12 C 0.062672 3.888782 1.440827 0
M  V30 13 N -0.224587 3.013915 2.414062 0
M  V30 14 C 0.000038 1.689515 2.232606 0
M  V30 15 N -0.161793 0.571871 2.960915 0
M  V30 16 C 0.237870 -0.511337 2.270313 0
M  V30 17 C 0.170013 -1.850609 2.824559 0
M  V30 18 C 0.530373 -2.958480 2.250182 0
M  V30 19 C 0.354051 -4.181716 3.040272 0
M  V30 20 N -0.963548 -4.372667 3.549350 0
M  V30 21 S -2.062366 -5.003656 2.400225 0
M  V30 22 C -2.283980 -3.935669 1.007397 0
M  V30 23 O -1.585374 -6.352007 1.944181 0
M  V30 24 O -3.390164 -5.205925 3.077545 0
M  V30 25 C -1.413160 -3.200426 4.210713 0
M  V30 26 C -0.350138 -2.129563 4.191301 0
M  V30 27 C 0.664418 -0.041290 1.064540 0
M  V30 28 C 1.176682 -0.812778 0.001192 0
M  V30 29 N 1.597113 -1.426873 -0.879430 0
M  V30 30 C 0.528199 1.330639 1.010810 0
M  V30 31 H -1.721151 1.873385 -3.979637 0
M  V30 32 H -1.560657 0.139976 -3.428152 0
M  V30 33 H -2.761822 1.195642 -2.622466 0
M  V30 34 H 0.576300 0.692358 -4.287105 0
M  V30 35 H 2.979220 0.564923 -4.430093 0
M  V30 36 H 3.378219 2.014452 -0.466773 0
M  V30 37 H 0.790520 4.348735 -0.518218 0
M  V30 38 H -0.175137 4.911420 1.742578 0
M  V30 39 H -0.562534 0.702912 3.929665 0
M  V30 40 H 0.924955 -2.947359 1.268409 0
M  V30 41 H 1.047036 -4.079017 3.924425 0
M  V30 42 H 0.736187 -5.048377 2.456120 0
M  V30 43 H -1.468816 -4.134887 0.251953 0
M  V30 44 H -3.232360 -4.178350 0.484622 0
M  V30 45 H -2.325774 -2.874952 1.282311 0
M  V30 46 H -2.317740 -2.746910 3.761810 0
M  V30 47 H -1.612181 -3.434418 5.264717 0
M  V30 48 H 0.462111 -2.332968 4.918437 0
M  V30 49 H -0.847444 -1.201128 4.536170 0
M  V30 END ATOM
M  V30 BEGIN BOND
M  V30 1 1 1 2
M  V30 2 1 2 3
M  V30 3 2 3 4
M  V30 4 1 4 5
M  V30 5 2 5 6
M  V30 6 1 6 7
M  V30 7 1 6 8
M  V30 8 2 8 9
M  V30 9 1 9 10
M  V30 10 2 10 11
M  V30 11 1 11 12
M  V30 12 2 12 13
M  V30 13 1 13 14
M  V30 14 1 14 15
M  V30 15 1 15 16
M  V30 16 1 16 17
M  V30 17 2 17 18
M  V30 18 1 18 19
M  V30 19 1 19 20
M  V30 20 1 20 21
M  V30 21 1 21 22
M  V30 22 2 21 23
M  V30 23 2 21 24
M  V30 24 1 20 25
M  V30 25 1 25 26
M  V30 26 2 16 27
M  V30 27 1 27 28
M  V30 28 3 28 29
M  V30 29 1 27 30
M  V30 30 1 9 3
M  V30 31 1 30 10
M  V30 32 2 30 14
M  V30 33 1 26 17
M  V30 34 1 1 31
M  V30 35 1 1 32
M  V30 36 1 1 33
M  V30 37 1 4 34
M  V30 38 1 5 35
M  V30 39 1 8 36
M  V30 40 1 11 37
M  V30 41 1 12 38
M  V30 42 1 15 39
M  V30 43 1 18 40
M  V30 44 1 19 41
M  V30 45 1 19 42
M  V30 46 1 22 43
M  V30 47 1 22 44
M  V30 48 1 22 45
M  V30 49 1 25 46
M  V30 50 1 25 47
M  V30 51 1 26 48
M  V30 52 1 26 49
M  V30 END BOND
M  V30 END CTAB
M  END
>  <Dataset>  (963) 
ChEMBL_Kinases

>  <Ligand_Instance>  (963) 
nan

>  <PDB_ID>  (963) 
nan

>  <Standardized_SMILES>  (963) 
COc1ccc(F)cc1-c1ccnc2[nH]c(C3=CCN(S(C)(=O)=O)CC3)c(C#N)c12

>  <Name>  (963) 
nan

>  <Pocket>  (963) 
nan

>  <ATP_Site>  (963) 
nan

>  <Peripheral>  (963) 
nan

>  <Num_H_Atoms_ProtBoundConf>  (963) 
nan

>  <Num_Resolved_Atoms>  (963) 
nan

>  <Num_Not_Resolved_Atoms>  (963) 
nan

$$$$
CHEMBL3668514
     RDKit          3D

  0  0  0  0  0  0  0  0  0  0999 V3000
M  V30 BEGIN CTAB
M  V30 COUNTS 65 69 0 0 0
M  V30 BEGIN ATOM
M  V30 1 C 5.070602 0.790924 3.885571 0
M  V30 2 O 4.427365 1.449838 2.812361 0
M  V30 3 C 4.114687 2.800858 2.880788 0
M  V30 4 C 4.443116 3.517137 4.031653 0
M  V30 5 C 4.149255 4.873239 4.145166 0
M  V30 6 C 3.514787 5.537659 3.094548 0
M  V30 7 F 3.205343 6.865299 3.156637 0
M  V30 8 C 3.181347 4.831891 1.938464 0
M  V30 9 C 3.480080 3.477556 1.836965 0
M  V30 10 C 3.179099 2.643740 0.680500 0
M  V30 11 C 4.131216 2.548438 -0.317861 0
M  V30 12 C 3.816718 1.745278 -1.410814 0
M  V30 13 N 2.643208 1.092002 -1.494116 0
M  V30 14 C 1.688675 1.154958 -0.548718 0
M  V30 15 N 0.467925 0.608809 -0.407659 0
M  V30 16 C -0.021124 1.052984 0.779070 0
M  V30 17 C -1.386741 0.618468 1.236255 0
M  V30 18 C -1.370944 -0.840532 1.536729 0
M  V30 19 C -2.775379 -1.363278 1.745622 0
M  V30 20 N -3.569619 -1.112714 0.593760 0
M  V30 21 C -3.231500 -1.855634 -0.569496 0
M  V30 22 C -3.506383 -3.300961 -0.512510 0
M  V30 23 O -4.017498 -3.726976 0.554210 0
M  V30 24 N -3.195124 -4.152682 -1.634375 0
M  V30 25 C -2.596329 -3.621347 -2.872430 0
M  V30 26 C -2.602199 -4.831131 -3.792367 0
M  V30 27 C -2.556566 -6.022442 -2.846593 0
M  V30 28 C -3.417829 -5.582018 -1.703056 0 CFG=1
M  V30 29 C -3.102654 -6.313070 -0.428850 0
M  V30 30 O -3.374369 -7.676040 -0.696997 0
M  V30 31 C -3.688095 0.266093 0.238466 0
M  V30 32 C -2.457822 1.086538 0.326121 0
M  V30 33 C 0.900874 1.882757 1.383890 0
M  V30 34 C 1.994057 1.949834 0.538103 0
M  V30 35 H 6.106191 1.154492 4.067557 0
M  V30 36 H 5.149680 -0.285612 3.624772 0
M  V30 37 H 4.520828 0.952038 4.849628 0
M  V30 38 H 4.938262 2.982102 4.842252 0
M  V30 39 H 4.410618 5.430371 5.054026 0
M  V30 40 H 2.682959 5.283989 1.073221 0
M  V30 41 H 5.086338 3.054759 -0.294012 0
M  V30 42 H 4.581038 1.676891 -2.198556 0
M  V30 43 H 0.066817 -0.022577 -1.132070 0
M  V30 44 H -1.518799 1.140430 2.229369 0
M  V30 45 H -0.860853 -1.392915 0.714650 0
M  V30 46 H -0.819192 -1.086148 2.466468 0
M  V30 47 H -2.763296 -2.424116 1.982829 0
M  V30 48 H -3.194963 -0.806846 2.607325 0
M  V30 49 H -2.176274 -1.654594 -0.917987 0
M  V30 50 H -3.873114 -1.451520 -1.403671 0
M  V30 51 H -1.595963 -3.214129 -2.722566 0
M  V30 52 H -3.330434 -2.897348 -3.286863 0
M  V30 53 H -1.715505 -4.812053 -4.475645 0
M  V30 54 H -3.518105 -4.908578 -4.405553 0
M  V30 55 H -2.912820 -6.943135 -3.323911 0
M  V30 56 H -1.519400 -6.163789 -2.440946 0
M  V30 57 H -4.469868 -5.819957 -1.990730 0
M  V30 58 H -3.824071 -6.021153 0.357461 0
M  V30 59 H -2.045747 -6.237723 -0.146715 0
M  V30 60 H -2.979069 -8.260889 0.015892 0
M  V30 61 H -4.464120 0.719237 0.923411 0
M  V30 62 H -4.170015 0.370901 -0.777420 0
M  V30 63 H -2.735513 2.161470 0.523265 0
M  V30 64 H -2.015460 1.110776 -0.712114 0
M  V30 65 H 0.740609 2.362345 2.342388 0
M  V30 END ATOM
M  V30 BEGIN BOND
M  V30 1 1 1 2
M  V30 2 1 2 3
M  V30 3 2 3 4
M  V30 4 1 4 5
M  V30 5 2 5 6
M  V30 6 1 6 7
M  V30 7 1 6 8
M  V30 8 2 8 9
M  V30 9 1 9 10
M  V30 10 2 10 11
M  V30 11 1 11 12
M  V30 12 2 12 13
M  V30 13 1 13 14
M  V30 14 1 14 15
M  V30 15 1 15 16
M  V30 16 1 16 17
M  V30 17 1 17 18
M  V30 18 1 18 19
M  V30 19 1 19 20
M  V30 20 1 20 21
M  V30 21 1 21 22
M  V30 22 2 22 23
M  V30 23 1 22 24
M  V30 24 1 24 25
M  V30 25 1 25 26
M  V30 26 1 26 27
M  V30 27 1 27 28
M  V30 28 1 28 29
M  V30 29 1 29 30
M  V30 30 1 20 31
M  V30 31 1 31 32
M  V30 32 2 16 33
M  V30 33 1 33 34
M  V30 34 1 9 3
M  V30 35 1 34 10
M  V30 36 2 34 14
M  V30 37 1 32 17
M  V30 38 1 28 24
M  V30 39 1 1 35
M  V30 40 1 1 36
M  V30 41 1 1 37
M  V30 42 1 4 38
M  V30 43 1 5 39
M  V30 44 1 8 40
M  V30 45 1 11 41
M  V30 46 1 12 42
M  V30 47 1 15 43
M  V30 48 1 17 44
M  V30 49 1 18 45
M  V30 50 1 18 46
M  V30 51 1 19 47
M  V30 52 1 19 48
M  V30 53 1 21 49
M  V30 54 1 21 50
M  V30 55 1 25 51
M  V30 56 1 25 52
M  V30 57 1 26 53
M  V30 58 1 26 54
M  V30 59 1 27 55
M  V30 60 1 27 56
M  V30 61 1 28 57 CFG=3
M  V30 62 1 29 58
M  V30 63 1 29 59
M  V30 64 1 30 60
M  V30 65 1 31 61
M  V30 66 1 31 62
M  V30 67 1 32 63
M  V30 68 1 32 64
M  V30 69 1 33 65
M  V30 END BOND
M  V30 END CTAB
M  END
>  <Dataset>  (964) 
ChEMBL_Kinases

>  <Ligand_Instance>  (964) 
nan

>  <PDB_ID>  (964) 
nan

>  <Standardized_SMILES>  (964) 
COc1ccc(F)cc1-c1ccnc2[nH]c(C3CCN(CC(=O)N4CCC[C@H]4CO)CC3)cc12

>  <Name>  (964) 
nan

>  <Pocket>  (964) 
nan

>  <ATP_Site>  (964) 
nan

>  <Peripheral>  (964) 
nan

>  <Num_H_Atoms_ProtBoundConf>  (964) 
nan

>  <Num_Resolved_Atoms>  (964) 
nan

>  <Num_Not_Resolved_Atoms>  (964) 
nan

$$$$
CHEMBL3668513
     RDKit          3D

  0  0  0  0  0  0  0  0  0  0999 V3000
M  V30 BEGIN CTAB
M  V30 COUNTS 54 57 0 0 0
M  V30 BEGIN ATOM
M  V30 1 C -0.013438 -4.431536 6.359127 0
M  V30 2 N 0.736806 -3.407901 5.612414 0
M  V30 3 C 1.370159 -3.832351 4.400502 0
M  V30 4 O 1.107418 -5.063655 4.268254 0
M  V30 5 C 2.089320 -2.691682 3.756474 0
M  V30 6 N 2.707918 -3.157067 2.547418 0
M  V30 7 C 3.440729 -2.117096 1.858199 0
M  V30 8 C 2.827365 -1.718463 0.537150 0
M  V30 9 C 1.366410 -1.520118 0.737741 0
M  V30 10 C 0.716197 -1.122759 -0.562089 0
M  V30 11 C 0.083201 0.090201 -0.745564 0
M  V30 12 C -0.388505 0.110991 -2.039492 0
M  V30 13 C -1.096311 1.028122 -2.820360 0
M  V30 14 C -1.423844 2.278785 -2.098597 0
M  V30 15 C -0.577431 3.368055 -2.101876 0
M  V30 16 C -0.971233 4.494857 -1.396389 0
M  V30 17 F -0.158024 5.572695 -1.386076 0
M  V30 18 C -2.177116 4.531536 -0.707154 0
M  V30 19 C -2.971871 3.403129 -0.749571 0
M  V30 20 C -2.643607 2.233762 -1.436814 0
M  V30 21 O -3.480037 1.141722 -1.440335 0
M  V30 22 C -4.701449 1.207524 -0.729895 0
M  V30 23 C -1.453319 0.789129 -4.133646 0
M  V30 24 C -1.061204 -0.443903 -4.651084 0
M  V30 25 N -0.381626 -1.318028 -3.892929 0
M  V30 26 C -0.024439 -1.109477 -2.619044 0
M  V30 27 N 0.644779 -1.836536 -1.697360 0
M  V30 28 C 0.696139 -2.732704 1.326837 0
M  V30 29 C 1.763177 -3.747441 1.639581 0
M  V30 30 H -0.485610 -4.038720 7.257557 0
M  V30 31 H -0.865438 -4.681668 5.661160 0
M  V30 32 H 0.552703 -5.360850 6.460058 0
M  V30 33 H 0.737643 -2.452766 6.042066 0
M  V30 34 H 1.389972 -1.885156 3.512704 0
M  V30 35 H 2.824437 -2.285151 4.466283 0
M  V30 36 H 3.461526 -1.171951 2.476423 0
M  V30 37 H 4.474627 -2.447685 1.742624 0
M  V30 38 H 3.096951 -2.393084 -0.286977 0
M  V30 39 H 3.278946 -0.722357 0.273693 0
M  V30 40 H 1.224465 -0.677936 1.446539 0
M  V30 41 H -0.039367 0.895015 -0.034214 0
M  V30 42 H 0.367626 3.318019 -2.651200 0
M  V30 43 H -2.501456 5.406287 -0.149103 0
M  V30 44 H -3.929954 3.421433 -0.206564 0
M  V30 45 H -4.458793 1.363634 0.352104 0
M  V30 46 H -5.328904 0.317797 -0.882478 0
M  V30 47 H -5.287243 2.096859 -1.064056 0
M  V30 48 H -2.004380 1.562484 -4.663914 0
M  V30 49 H -1.340757 -0.634766 -5.684380 0
M  V30 50 H 1.050585 -2.800585 -1.823854 0
M  V30 51 H 0.015366 -2.516734 2.148471 0
M  V30 52 H 0.057376 -3.176017 0.511829 0
M  V30 53 H 2.274452 -3.991310 0.684661 0
M  V30 54 H 1.300022 -4.668036 1.983846 0
M  V30 END ATOM
M  V30 BEGIN BOND
M  V30 1 1 1 2
M  V30 2 1 2 3
M  V30 3 2 3 4
M  V30 4 1 3 5
M  V30 5 1 5 6
M  V30 6 1 6 7
M  V30 7 1 7 8
M  V30 8 1 8 9
M  V30 9 1 9 10
M  V30 10 2 10 11
M  V30 11 1 11 12
M  V30 12 2 12 13
M  V30 13 1 13 14
M  V30 14 2 14 15
M  V30 15 1 15 16
M  V30 16 1 16 17
M  V30 17 2 16 18
M  V30 18 1 18 19
M  V30 19 2 19 20
M  V30 20 1 20 21
M  V30 21 1 21 22
M  V30 22 1 13 23
M  V30 23 2 23 24
M  V30 24 1 24 25
M  V30 25 2 25 26
M  V30 26 1 26 27
M  V30 27 1 9 28
M  V30 28 1 28 29
M  V30 29 1 29 6
M  V30 30 1 27 10
M  V30 31 1 26 12
M  V30 32 1 20 14
M  V30 33 1 1 30
M  V30 34 1 1 31
M  V30 35 1 1 32
M  V30 36 1 2 33
M  V30 37 1 5 34
M  V30 38 1 5 35
M  V30 39 1 7 36
M  V30 40 1 7 37
M  V30 41 1 8 38
M  V30 42 1 8 39
M  V30 43 1 9 40
M  V30 44 1 11 41
M  V30 45 1 15 42
M  V30 46 1 18 43
M  V30 47 1 19 44
M  V30 48 1 22 45
M  V30 49 1 22 46
M  V30 50 1 22 47
M  V30 51 1 23 48
M  V30 52 1 24 49
M  V30 53 1 27 50
M  V30 54 1 28 51
M  V30 55 1 28 52
M  V30 56 1 29 53
M  V30 57 1 29 54
M  V30 END BOND
M  V30 END CTAB
M  END
>  <Dataset>  (965) 
ChEMBL_Kinases

>  <Ligand_Instance>  (965) 
nan

>  <PDB_ID>  (965) 
nan

>  <Standardized_SMILES>  (965) 
CNC(=O)CN1CCC(c2cc3c(-c4cc(F)ccc4OC)ccnc3[nH]2)CC1

>  <Name>  (965) 
nan

>  <Pocket>  (965) 
nan

>  <ATP_Site>  (965) 
nan

>  <Peripheral>  (965) 
nan

>  <Num_H_Atoms_ProtBoundConf>  (965) 
nan

>  <Num_Resolved_Atoms>  (965) 
nan

>  <Num_Not_Resolved_Atoms>  (965) 
nan

$$$$
CHEMBL3668495
     RDKit          3D

  0  0  0  0  0  0  0  0  0  0999 V3000
M  V30 BEGIN CTAB
M  V30 COUNTS 48 51 0 0 0
M  V30 BEGIN ATOM
M  V30 1 C 3.767591 -3.714311 0.317725 0
M  V30 2 O 3.429659 -2.356698 0.076058 0
M  V30 3 C 3.108444 -1.925568 -1.217158 0
M  V30 4 C 3.082754 -2.719649 -2.345862 0
M  V30 5 C 2.743044 -2.146212 -3.568246 0
M  V30 6 C 2.431664 -0.806949 -3.681846 0
M  V30 7 F 2.108871 -0.317348 -4.911736 0
M  V30 8 C 2.463792 -0.021819 -2.527603 0
M  V30 9 C 2.799770 -0.584503 -1.313168 0
M  V30 10 C 2.771439 0.410067 -0.243120 0
M  V30 11 C 3.963495 1.078862 -0.015956 0
M  V30 12 C 3.993519 2.025739 0.979657 0
M  V30 13 N 2.872326 2.274296 1.700078 0
M  V30 14 C 1.714152 1.616455 1.470799 0
M  V30 15 N 0.472129 1.667786 2.030336 0
M  V30 16 C -0.342857 0.800482 1.438508 0
M  V30 17 C -1.741998 0.607463 1.801729 0
M  V30 18 C -2.238051 1.353193 2.797111 0
M  V30 19 C -3.645623 1.245508 3.254588 0
M  V30 20 N -4.314984 0.095916 2.677952 0
M  V30 21 C -4.017966 -1.121828 3.389955 0
M  V30 22 C -4.701307 -2.320711 2.817542 0
M  V30 23 O -5.490928 -2.405057 1.815845 0
M  V30 24 O -4.406519 -3.496291 3.507215 0
M  V30 25 C -4.010701 0.035065 1.263289 0
M  V30 26 C -2.593081 -0.400990 1.074048 0
M  V30 27 C 0.354390 0.138415 0.450393 0
M  V30 28 C 1.634934 0.667018 0.492458 0
M  V30 29 H 4.187620 -3.797984 1.335023 0
M  V30 30 H 4.550433 -4.089710 -0.382163 0
M  V30 31 H 2.913133 -4.404471 0.230078 0
M  V30 32 H 3.336022 -3.759360 -2.192081 0
M  V30 33 H 2.743722 -2.833669 -4.414976 0
M  V30 34 H 2.203479 1.017429 -2.722134 0
M  V30 35 H 4.870898 0.924077 -0.549625 0
M  V30 36 H 4.838773 2.637754 1.287373 0
M  V30 37 H 0.302907 2.343007 2.817799 0
M  V30 38 H -1.653744 2.081215 3.334502 0
M  V30 39 H -4.178547 2.148119 2.884214 0
M  V30 40 H -3.734558 1.252308 4.358875 0
M  V30 41 H -2.950240 -1.291172 3.541974 0
M  V30 42 H -4.472205 -0.995720 4.403809 0
M  V30 43 H -4.847995 -4.352117 3.186713 0
M  V30 44 H -4.761494 -0.499224 0.686520 0
M  V30 45 H -4.072648 1.106656 0.914078 0
M  V30 46 H -2.381976 -0.321739 -0.021274 0
M  V30 47 H -2.363670 -1.383489 1.488641 0
M  V30 48 H 0.006159 -0.627454 -0.223213 0
M  V30 END ATOM
M  V30 BEGIN BOND
M  V30 1 1 1 2
M  V30 2 1 2 3
M  V30 3 2 3 4
M  V30 4 1 4 5
M  V30 5 2 5 6
M  V30 6 1 6 7
M  V30 7 1 6 8
M  V30 8 2 8 9
M  V30 9 1 9 10
M  V30 10 2 10 11
M  V30 11 1 11 12
M  V30 12 2 12 13
M  V30 13 1 13 14
M  V30 14 1 14 15
M  V30 15 1 15 16
M  V30 16 1 16 17
M  V30 17 2 17 18
M  V30 18 1 18 19
M  V30 19 1 19 20
M  V30 20 1 20 21
M  V30 21 1 21 22
M  V30 22 2 22 23
M  V30 23 1 22 24
M  V30 24 1 20 25
M  V30 25 1 25 26
M  V30 26 2 16 27
M  V30 27 1 27 28
M  V30 28 1 9 3
M  V30 29 1 28 10
M  V30 30 2 28 14
M  V30 31 1 26 17
M  V30 32 1 1 29
M  V30 33 1 1 30
M  V30 34 1 1 31
M  V30 35 1 4 32
M  V30 36 1 5 33
M  V30 37 1 8 34
M  V30 38 1 11 35
M  V30 39 1 12 36
M  V30 40 1 15 37
M  V30 41 1 18 38
M  V30 42 1 19 39
M  V30 43 1 19 40
M  V30 44 1 21 41
M  V30 45 1 21 42
M  V30 46 1 24 43
M  V30 47 1 25 44
M  V30 48 1 25 45
M  V30 49 1 26 46
M  V30 50 1 26 47
M  V30 51 1 27 48
M  V30 END BOND
M  V30 END CTAB
M  END
>  <Dataset>  (966) 
ChEMBL_Kinases

>  <Ligand_Instance>  (966) 
nan

>  <PDB_ID>  (966) 
nan

>  <Standardized_SMILES>  (966) 
COc1ccc(F)cc1-c1ccnc2[nH]c(C3=CCN(CC(=O)O)CC3)cc12

>  <Name>  (966) 
nan

>  <Pocket>  (966) 
nan

>  <ATP_Site>  (966) 
nan

>  <Peripheral>  (966) 
nan

>  <Num_H_Atoms_ProtBoundConf>  (966) 
nan

>  <Num_Resolved_Atoms>  (966) 
nan

>  <Num_Not_Resolved_Atoms>  (966) 
nan

$$$$
CHEMBL3668496
     RDKit          3D

  0  0  0  0  0  0  0  0  0  0999 V3000
M  V30 BEGIN CTAB
M  V30 COUNTS 49 52 0 0 0
M  V30 BEGIN ATOM
M  V30 1 C 4.670131 -3.780463 0.436357 0
M  V30 2 O 4.158808 -2.461652 0.429474 0
M  V30 3 C 3.894368 -1.890127 -0.809317 0
M  V30 4 C 4.072635 -2.460682 -2.044287 0
M  V30 5 C 3.770267 -1.782329 -3.195862 0
M  V30 6 C 3.278237 -0.506083 -3.130060 0
M  V30 7 F 3.001317 0.103419 -4.289822 0
M  V30 8 C 3.098132 0.069736 -1.889793 0
M  V30 9 C 3.400053 -0.606038 -0.727002 0
M  V30 10 C 3.130546 0.194335 0.465667 0
M  V30 11 C 4.114768 1.016635 1.020298 0
M  V30 12 C 3.857184 1.768559 2.144761 0
M  V30 13 N 2.624968 1.694277 2.704473 0
M  V30 14 C 1.665578 0.898190 2.170788 0
M  V30 15 N 0.393991 0.724466 2.619365 0
M  V30 16 C -0.151531 -0.151833 1.758658 0
M  V30 17 C -1.526562 -0.626790 1.863468 0
M  V30 18 C -2.326639 -0.210388 2.833973 0
M  V30 19 C -3.745712 -0.683590 2.963459 0
M  V30 20 N -4.285934 -1.183795 1.747233 0
M  V30 21 C -5.693342 -0.975429 1.556979 0
M  V30 22 C -6.088830 0.415754 1.366978 0
M  V30 23 N -5.669408 1.782816 1.277359 0
M  V30 24 O -7.350125 0.535253 1.202489 0
M  V30 25 C -3.494680 -1.026597 0.576515 0
M  V30 26 C -2.110725 -1.597124 0.897208 0
M  V30 27 C 0.734788 -0.540632 0.776526 0
M  V30 28 C 1.896558 0.136425 1.047489 0
M  V30 29 H 5.000656 -4.089993 1.452743 0
M  V30 30 H 3.943586 -4.532958 0.080307 0
M  V30 31 H 5.533086 -3.862436 -0.286581 0
M  V30 32 H 4.464760 -3.472371 -2.024476 0
M  V30 33 H 3.926131 -2.268432 -4.136260 0
M  V30 34 H 2.699950 1.091778 -1.947923 0
M  V30 35 H 5.088009 1.072922 0.573991 0
M  V30 36 H 4.611359 2.416935 2.594355 0
M  V30 37 H -0.031174 1.187128 3.453842 0
M  V30 38 H -1.955780 0.502189 3.575492 0
M  V30 39 H -3.741685 -1.497098 3.718221 0
M  V30 40 H -4.335983 0.146869 3.410464 0
M  V30 41 H -6.308089 -1.410573 2.369837 0
M  V30 42 H -5.978668 -1.538299 0.638090 0
M  V30 43 H -5.469205 2.050945 2.261002 0
M  V30 44 H -5.632628 2.250809 0.332877 0
M  V30 45 H -3.989711 -1.569917 -0.246468 0
M  V30 46 H -3.281538 0.047541 0.323233 0
M  V30 47 H -2.308727 -2.566863 1.388237 0
M  V30 48 H -1.505148 -1.684266 -0.021419 0
M  V30 49 H 0.544859 -1.237675 -0.037338 0
M  V30 END ATOM
M  V30 BEGIN BOND
M  V30 1 1 1 2
M  V30 2 1 2 3
M  V30 3 2 3 4
M  V30 4 1 4 5
M  V30 5 2 5 6
M  V30 6 1 6 7
M  V30 7 1 6 8
M  V30 8 2 8 9
M  V30 9 1 9 10
M  V30 10 2 10 11
M  V30 11 1 11 12
M  V30 12 2 12 13
M  V30 13 1 13 14
M  V30 14 1 14 15
M  V30 15 1 15 16
M  V30 16 1 16 17
M  V30 17 2 17 18
M  V30 18 1 18 19
M  V30 19 1 19 20
M  V30 20 1 20 21
M  V30 21 1 21 22
M  V30 22 1 22 23
M  V30 23 2 22 24
M  V30 24 1 20 25
M  V30 25 1 25 26
M  V30 26 2 16 27
M  V30 27 1 27 28
M  V30 28 1 9 3
M  V30 29 1 28 10
M  V30 30 2 28 14
M  V30 31 1 26 17
M  V30 32 1 1 29
M  V30 33 1 1 30
M  V30 34 1 1 31
M  V30 35 1 4 32
M  V30 36 1 5 33
M  V30 37 1 8 34
M  V30 38 1 11 35
M  V30 39 1 12 36
M  V30 40 1 15 37
M  V30 41 1 18 38
M  V30 42 1 19 39
M  V30 43 1 19 40
M  V30 44 1 21 41
M  V30 45 1 21 42
M  V30 46 1 23 43
M  V30 47 1 23 44
M  V30 48 1 25 45
M  V30 49 1 25 46
M  V30 50 1 26 47
M  V30 51 1 26 48
M  V30 52 1 27 49
M  V30 END BOND
M  V30 END CTAB
M  END
>  <Dataset>  (967) 
ChEMBL_Kinases

>  <Ligand_Instance>  (967) 
nan

>  <PDB_ID>  (967) 
nan

>  <Standardized_SMILES>  (967) 
COc1ccc(F)cc1-c1ccnc2[nH]c(C3=CCN(CC(N)=O)CC3)cc12

>  <Name>  (967) 
nan

>  <Pocket>  (967) 
nan

>  <ATP_Site>  (967) 
nan

>  <Peripheral>  (967) 
nan

>  <Num_H_Atoms_ProtBoundConf>  (967) 
nan

>  <Num_Resolved_Atoms>  (967) 
nan

>  <Num_Not_Resolved_Atoms>  (967) 
nan

$$$$
CHEMBL3668497
     RDKit          3D

  0  0  0  0  0  0  0  0  0  0999 V3000
M  V30 BEGIN CTAB
M  V30 COUNTS 56 59 0 0 0
M  V30 BEGIN ATOM
M  V30 1 C 5.509506 0.697876 3.028090 0
M  V30 2 C 4.136818 0.760012 2.401636 0
M  V30 3 N 4.066607 0.000119 1.167919 0
M  V30 4 C 3.701356 -1.376799 1.148507 0
M  V30 5 O 3.586056 -2.192437 0.196093 0
M  V30 6 O 3.331718 -2.430290 1.973287 0
M  V30 7 S 4.406092 0.654696 -0.366768 0
M  V30 8 O 5.082730 -0.332280 -1.283458 0
M  V30 9 O 5.434548 1.756969 -0.154258 0
M  V30 10 N 3.085487 1.329654 -1.189000 0
M  V30 11 C 2.473515 2.439649 -0.511352 0
M  V30 12 C 1.339101 1.988196 0.336893 0
M  V30 13 C 0.485644 1.181255 -0.276045 0
M  V30 14 C -0.683823 0.644913 0.408485 0
M  V30 15 C -1.643183 -0.203173 -0.122616 0
M  V30 16 C -2.527501 -0.412831 0.919519 0
M  V30 17 C -3.670708 -1.159693 0.992795 0
M  V30 18 C -4.198958 -1.932181 -0.117623 0
M  V30 19 C -5.102050 -1.424745 -1.051392 0
M  V30 20 C -5.534816 -2.265597 -2.070813 0
M  V30 21 F -6.420314 -1.786806 -2.996291 0
M  V30 22 C -5.098381 -3.574207 -2.180620 0
M  V30 23 C -4.206719 -4.032421 -1.236087 0
M  V30 24 C -3.742729 -3.237912 -0.199578 0
M  V30 25 O -2.834537 -3.765770 0.730196 0
M  V30 26 C -2.393160 -5.107828 0.609311 0
M  V30 27 C -4.412539 -1.228230 2.154411 0
M  V30 28 C -3.961722 -0.509023 3.262560 0
M  V30 29 N -2.835581 0.230906 3.201668 0
M  V30 30 C -2.137763 0.273580 2.050612 0
M  V30 31 N -1.002469 0.908642 1.692363 0
M  V30 32 C 0.757174 0.834514 -1.696738 0
M  V30 33 C 2.216837 0.448842 -1.869552 0
M  V30 34 H 6.328337 0.977349 2.368590 0
M  V30 35 H 5.734691 -0.273178 3.487660 0
M  V30 36 H 5.496185 1.430489 3.876616 0
M  V30 37 H 3.790146 1.786683 2.291087 0
M  V30 38 H 3.433618 0.262758 3.122356 0
M  V30 39 H 3.996108 -3.011920 2.492781 0
M  V30 40 H 3.250011 2.881771 0.164242 0
M  V30 41 H 2.164618 3.229021 -1.228433 0
M  V30 42 H 1.197564 2.279541 1.373559 0
M  V30 43 H -1.697195 -0.605431 -1.101671 0
M  V30 44 H -5.429847 -0.407868 -0.950975 0
M  V30 45 H -5.461047 -4.198826 -2.992684 0
M  V30 46 H -3.857668 -5.053251 -1.310316 0
M  V30 47 H -3.196642 -5.812450 0.858333 0
M  V30 48 H -2.038312 -5.305345 -0.420561 0
M  V30 49 H -1.559396 -5.213380 1.356871 0
M  V30 50 H -5.320902 -1.805903 2.254849 0
M  V30 51 H -4.456134 -0.486996 4.218030 0
M  V30 52 H -0.451540 1.523929 2.340759 0
M  V30 53 H 0.081678 0.052957 -2.075261 0
M  V30 54 H 0.629024 1.795686 -2.266898 0
M  V30 55 H 2.409818 0.600324 -2.972741 0
M  V30 56 H 2.374155 -0.629421 -1.715504 0
M  V30 END ATOM
M  V30 BEGIN BOND
M  V30 1 1 1 2
M  V30 2 1 2 3
M  V30 3 1 3 4
M  V30 4 2 4 5
M  V30 5 1 4 6
M  V30 6 1 3 7
M  V30 7 2 7 8
M  V30 8 2 7 9
M  V30 9 1 7 10
M  V30 10 1 10 11
M  V30 11 1 11 12
M  V30 12 2 12 13
M  V30 13 1 13 14
M  V30 14 2 14 15
M  V30 15 1 15 16
M  V30 16 2 16 17
M  V30 17 1 17 18
M  V30 18 2 18 19
M  V30 19 1 19 20
M  V30 20 1 20 21
M  V30 21 2 20 22
M  V30 22 1 22 23
M  V30 23 2 23 24
M  V30 24 1 24 25
M  V30 25 1 25 26
M  V30 26 1 17 27
M  V30 27 2 27 28
M  V30 28 1 28 29
M  V30 29 2 29 30
M  V30 30 1 30 31
M  V30 31 1 13 32
M  V30 32 1 32 33
M  V30 33 1 33 10
M  V30 34 1 31 14
M  V30 35 1 30 16
M  V30 36 1 24 18
M  V30 37 1 1 34
M  V30 38 1 1 35
M  V30 39 1 1 36
M  V30 40 1 2 37
M  V30 41 1 2 38
M  V30 42 1 6 39
M  V30 43 1 11 40
M  V30 44 1 11 41
M  V30 45 1 12 42
M  V30 46 1 15 43
M  V30 47 1 19 44
M  V30 48 1 22 45
M  V30 49 1 23 46
M  V30 50 1 26 47
M  V30 51 1 26 48
M  V30 52 1 26 49
M  V30 53 1 27 50
M  V30 54 1 28 51
M  V30 55 1 31 52
M  V30 56 1 32 53
M  V30 57 1 32 54
M  V30 58 1 33 55
M  V30 59 1 33 56
M  V30 END BOND
M  V30 END CTAB
M  END
>  <Dataset>  (968) 
ChEMBL_Kinases

>  <Ligand_Instance>  (968) 
nan

>  <PDB_ID>  (968) 
nan

>  <Standardized_SMILES>  (968) 
CCN(C(=O)O)S(=O)(=O)N1CC=C(c2cc3c(-c4cc(F)ccc4OC)ccnc3[nH]2)CC1

>  <Name>  (968) 
nan

>  <Pocket>  (968) 
nan

>  <ATP_Site>  (968) 
nan

>  <Peripheral>  (968) 
nan

>  <Num_H_Atoms_ProtBoundConf>  (968) 
nan

>  <Num_Resolved_Atoms>  (968) 
nan

>  <Num_Not_Resolved_Atoms>  (968) 
nan

$$$$
CHEMBL3668498
     RDKit          3D

  0  0  0  0  0  0  0  0  0  0999 V3000
M  V30 BEGIN CTAB
M  V30 COUNTS 49 52 0 0 0
M  V30 BEGIN ATOM
M  V30 1 C -0.913664 -7.071559 3.154553 0
M  V30 2 N -0.157472 -5.950019 2.578557 0
M  V30 3 C 0.187847 -5.902625 1.198686 0
M  V30 4 O -0.118549 -6.800734 0.365931 0
M  V30 5 N 0.928822 -4.775417 0.702076 0
M  V30 6 C 1.281278 -4.727797 -0.708144 0
M  V30 7 C 0.638624 -3.450490 -1.188779 0
M  V30 8 C 0.846118 -2.348433 -0.448285 0
M  V30 9 C 0.275128 -1.043292 -0.809513 0
M  V30 10 C 0.416273 0.155511 -0.132300 0
M  V30 11 C -0.302143 1.079503 -0.864296 0
M  V30 12 C -0.548857 2.438906 -0.712981 0
M  V30 13 C 0.035585 3.122268 0.437023 0
M  V30 14 C 1.304277 3.643481 0.168473 0
M  V30 15 C 2.014269 4.323721 1.134722 0
M  V30 16 F 3.249044 4.847212 0.919930 0
M  V30 17 C 1.429696 4.478093 2.392172 0
M  V30 18 C 0.178115 3.967377 2.667064 0
M  V30 19 C -0.533543 3.285966 1.699770 0
M  V30 20 O -1.784804 2.712810 1.794790 0
M  V30 21 C -2.599841 2.717505 2.942975 0
M  V30 22 C -1.325041 3.166905 -1.608280 0
M  V30 23 Cl -1.638157 4.871835 -1.424090 0
M  V30 24 C -1.836332 2.434802 -2.666251 0
M  V30 25 N -1.611925 1.120396 -2.833995 0
M  V30 26 C -0.859237 0.442348 -1.955011 0
M  V30 27 N -0.490128 -0.863696 -1.900169 0
M  V30 28 C 1.689921 -2.520228 0.764472 0
M  V30 29 C 1.315896 -3.703613 1.603268 0
M  V30 30 H -1.966837 -6.688728 3.214129 0
M  V30 31 H -0.927238 -7.898008 2.426621 0
M  V30 32 H -0.515653 -7.400124 4.118796 0
M  V30 33 H 0.095874 -5.211335 3.257725 0
M  V30 34 H 2.388612 -4.615377 -0.805990 0
M  V30 35 H 0.865980 -5.594586 -1.226927 0
M  V30 36 H 0.030043 -3.351211 -2.073035 0
M  V30 37 H 0.973659 0.325573 0.778360 0
M  V30 38 H 1.808191 3.554895 -0.787633 0
M  V30 39 H 1.948070 5.006169 3.187939 0
M  V30 40 H -0.328471 4.050269 3.610532 0
M  V30 41 H -3.652777 3.041715 2.701043 0
M  V30 42 H -2.271955 3.431845 3.725776 0
M  V30 43 H -2.690614 1.743307 3.446621 0
M  V30 44 H -2.455512 2.936188 -3.411132 0
M  V30 45 H -0.785453 -1.562142 -2.617753 0
M  V30 46 H 1.493588 -1.622060 1.405878 0
M  V30 47 H 2.771707 -2.483124 0.526369 0
M  V30 48 H 0.518740 -3.441348 2.312851 0
M  V30 49 H 2.221745 -3.980105 2.183062 0
M  V30 END ATOM
M  V30 BEGIN BOND
M  V30 1 1 1 2
M  V30 2 1 2 3
M  V30 3 2 3 4
M  V30 4 1 3 5
M  V30 5 1 5 6
M  V30 6 1 6 7
M  V30 7 2 7 8
M  V30 8 1 8 9
M  V30 9 2 9 10
M  V30 10 1 10 11
M  V30 11 2 11 12
M  V30 12 1 12 13
M  V30 13 2 13 14
M  V30 14 1 14 15
M  V30 15 1 15 16
M  V30 16 2 15 17
M  V30 17 1 17 18
M  V30 18 2 18 19
M  V30 19 1 19 20
M  V30 20 1 20 21
M  V30 21 1 12 22
M  V30 22 1 22 23
M  V30 23 2 22 24
M  V30 24 1 24 25
M  V30 25 2 25 26
M  V30 26 1 26 27
M  V30 27 1 8 28
M  V30 28 1 28 29
M  V30 29 1 29 5
M  V30 30 1 27 9
M  V30 31 1 26 11
M  V30 32 1 19 13
M  V30 33 1 1 30
M  V30 34 1 1 31
M  V30 35 1 1 32
M  V30 36 1 2 33
M  V30 37 1 6 34
M  V30 38 1 6 35
M  V30 39 1 7 36
M  V30 40 1 10 37
M  V30 41 1 14 38
M  V30 42 1 17 39
M  V30 43 1 18 40
M  V30 44 1 21 41
M  V30 45 1 21 42
M  V30 46 1 21 43
M  V30 47 1 24 44
M  V30 48 1 27 45
M  V30 49 1 28 46
M  V30 50 1 28 47
M  V30 51 1 29 48
M  V30 52 1 29 49
M  V30 END BOND
M  V30 END CTAB
M  END
>  <Dataset>  (969) 
ChEMBL_Kinases

>  <Ligand_Instance>  (969) 
nan

>  <PDB_ID>  (969) 
nan

>  <Standardized_SMILES>  (969) 
CNC(=O)N1CC=C(c2cc3c(-c4cc(F)ccc4OC)c(Cl)cnc3[nH]2)CC1

>  <Name>  (969) 
nan

>  <Pocket>  (969) 
nan

>  <ATP_Site>  (969) 
nan

>  <Peripheral>  (969) 
nan

>  <Num_H_Atoms_ProtBoundConf>  (969) 
nan

>  <Num_Resolved_Atoms>  (969) 
nan

>  <Num_Not_Resolved_Atoms>  (969) 
nan

$$$$
CHEMBL3668499
     RDKit          3D

  0  0  0  0  0  0  0  0  0  0999 V3000
M  V30 BEGIN CTAB
M  V30 COUNTS 55 58 0 0 0
M  V30 BEGIN ATOM
M  V30 1 C 3.145615 0.230360 4.545601 0
M  V30 2 O 2.963461 0.992271 3.401433 0
M  V30 3 C 3.746880 1.072774 2.289252 0
M  V30 4 C 4.894954 0.273367 2.310855 0
M  V30 5 C 5.770417 0.280196 1.217665 0
M  V30 6 C 5.502823 1.073899 0.119526 0
M  V30 7 F 6.332341 1.110307 -0.971031 0
M  V30 8 C 4.377789 1.858077 0.096859 0
M  V30 9 C 3.504853 1.866564 1.159442 0
M  V30 10 C 2.270015 2.629827 1.316113 0
M  V30 11 C 2.401963 3.883511 1.895894 0
M  V30 12 F 3.627998 4.359625 2.289693 0
M  V30 13 C 1.240066 4.609946 2.049480 0
M  V30 14 N 0.066447 4.112294 1.654112 0
M  V30 15 C -0.019334 2.899022 1.099404 0
M  V30 16 N -1.128891 2.252032 0.651733 0
M  V30 17 C -0.702084 1.060233 0.184936 0
M  V30 18 C -1.559264 0.026073 -0.384883 0
M  V30 19 C -1.113794 -1.134588 -0.833526 0
M  V30 20 C -2.193909 -2.010380 -1.361774 0
M  V30 21 N -3.289398 -2.133252 -0.426067 0
M  V30 22 C -3.004274 -3.171864 0.549846 0
M  V30 23 C -3.057514 -4.532310 -0.025444 0
M  V30 24 O -2.736188 -5.292207 0.963193 0
M  V30 25 N -3.349600 -5.173669 -1.287817 0
M  V30 26 C -3.767247 -4.662633 -2.593750 0
M  V30 27 C -3.215619 -6.620173 -1.317722 0
M  V30 28 C -3.655096 -0.944586 0.260369 0
M  V30 29 C -3.028916 0.227408 -0.499526 0
M  V30 30 C 0.665868 0.929677 0.324836 0
M  V30 31 C 1.079374 2.089023 0.899188 0
M  V30 32 H 2.177714 -0.013518 5.065526 0
M  V30 33 H 3.742326 0.823134 5.282929 0
M  V30 34 H 3.636076 -0.751192 4.406573 0
M  V30 35 H 5.181881 -0.379550 3.131104 0
M  V30 36 H 6.656277 -0.332895 1.227422 0
M  V30 37 H 4.083816 2.512697 -0.718180 0
M  V30 38 H 1.309813 5.590118 2.498238 0
M  V30 39 H -2.101265 2.600851 0.665943 0
M  V30 40 H -0.053199 -1.337418 -0.780709 0
M  V30 41 H -1.725088 -3.016416 -1.447561 0
M  V30 42 H -2.463589 -1.680050 -2.362020 0
M  V30 43 H -2.005304 -2.971959 1.019802 0
M  V30 44 H -3.744014 -3.126729 1.397515 0
M  V30 45 H -4.577152 -5.339912 -2.993511 0
M  V30 46 H -4.241521 -3.684460 -2.446514 0
M  V30 47 H -2.944036 -4.703408 -3.304659 0
M  V30 48 H -2.677774 -6.886174 -2.247990 0
M  V30 49 H -2.510716 -6.924214 -0.495730 0
M  V30 50 H -4.189707 -7.147602 -1.261735 0
M  V30 51 H -4.762695 -0.871976 0.243484 0
M  V30 52 H -3.233675 -0.875057 1.284087 0
M  V30 53 H -3.355304 1.205284 -0.128112 0
M  V30 54 H -3.355618 0.091249 -1.566479 0
M  V30 55 H 1.328100 0.117436 0.059938 0
M  V30 END ATOM
M  V30 BEGIN BOND
M  V30 1 1 1 2
M  V30 2 1 2 3
M  V30 3 2 3 4
M  V30 4 1 4 5
M  V30 5 2 5 6
M  V30 6 1 6 7
M  V30 7 1 6 8
M  V30 8 2 8 9
M  V30 9 1 9 10
M  V30 10 2 10 11
M  V30 11 1 11 12
M  V30 12 1 11 13
M  V30 13 2 13 14
M  V30 14 1 14 15
M  V30 15 1 15 16
M  V30 16 1 16 17
M  V30 17 1 17 18
M  V30 18 2 18 19
M  V30 19 1 19 20
M  V30 20 1 20 21
M  V30 21 1 21 22
M  V30 22 1 22 23
M  V30 23 2 23 24
M  V30 24 1 23 25
M  V30 25 1 25 26
M  V30 26 1 25 27
M  V30 27 1 21 28
M  V30 28 1 28 29
M  V30 29 2 17 30
M  V30 30 1 30 31
M  V30 31 1 9 3
M  V30 32 1 31 10
M  V30 33 2 31 15
M  V30 34 1 29 18
M  V30 35 1 1 32
M  V30 36 1 1 33
M  V30 37 1 1 34
M  V30 38 1 4 35
M  V30 39 1 5 36
M  V30 40 1 8 37
M  V30 41 1 13 38
M  V30 42 1 16 39
M  V30 43 1 19 40
M  V30 44 1 20 41
M  V30 45 1 20 42
M  V30 46 1 22 43
M  V30 47 1 22 44
M  V30 48 1 26 45
M  V30 49 1 26 46
M  V30 50 1 26 47
M  V30 51 1 27 48
M  V30 52 1 27 49
M  V30 53 1 27 50
M  V30 54 1 28 51
M  V30 55 1 28 52
M  V30 56 1 29 53
M  V30 57 1 29 54
M  V30 58 1 30 55
M  V30 END BOND
M  V30 END CTAB
M  END
>  <Dataset>  (970) 
ChEMBL_Kinases

>  <Ligand_Instance>  (970) 
nan

>  <PDB_ID>  (970) 
nan

>  <Standardized_SMILES>  (970) 
COc1ccc(F)cc1-c1c(F)cnc2[nH]c(C3=CCN(CC(=O)N(C)C)CC3)cc12

>  <Name>  (970) 
nan

>  <Pocket>  (970) 
nan

>  <ATP_Site>  (970) 
nan

>  <Peripheral>  (970) 
nan

>  <Num_H_Atoms_ProtBoundConf>  (970) 
nan

>  <Num_Resolved_Atoms>  (970) 
nan

>  <Num_Not_Resolved_Atoms>  (970) 
nan

$$$$
CHEMBL3668500
     RDKit          3D

  0  0  0  0  0  0  0  0  0  0999 V3000
M  V30 BEGIN CTAB
M  V30 COUNTS 49 52 0 0 0
M  V30 BEGIN ATOM
M  V30 1 C 7.073502 -3.835840 1.063727 0
M  V30 2 N 5.746229 -3.274821 1.123524 0
M  V30 3 C 5.383687 -2.084149 0.476980 0
M  V30 4 O 6.202386 -1.407074 -0.213644 0
M  V30 5 N 4.131871 -1.431809 0.454648 0
M  V30 6 C 4.175111 -0.216370 -0.335601 0
M  V30 7 C 2.832427 0.415467 -0.249637 0
M  V30 8 C 1.738599 -0.130829 0.257204 0
M  V30 9 C 0.508882 0.658665 0.249144 0
M  V30 10 C -0.728258 0.310360 0.711447 0
M  V30 11 C -1.661105 1.313159 0.539019 0
M  V30 12 C -3.009635 1.439220 0.834715 0
M  V30 13 C -3.652367 0.289414 1.473826 0
M  V30 14 C -3.675810 0.194272 2.855954 0
M  V30 15 C -4.282842 -0.891745 3.462381 0
M  V30 16 F -4.286763 -0.952380 4.835694 0
M  V30 17 C -4.881391 -1.909949 2.716003 0
M  V30 18 F -5.464155 -2.955468 3.372708 0
M  V30 19 C -4.855521 -1.810680 1.336911 0
M  V30 20 C -4.246690 -0.721068 0.719087 0
M  V30 21 O -4.238573 -0.651898 -0.684870 0
M  V30 22 C -4.819373 -1.636193 -1.504021 0
M  V30 23 C -3.653161 2.611052 0.518105 0
M  V30 24 C -2.899875 3.614677 -0.089294 0
M  V30 25 N -1.598560 3.465609 -0.363347 0
M  V30 26 C -0.930926 2.317432 -0.062690 0
M  V30 27 N 0.338095 1.915773 -0.224426 0
M  V30 28 C 1.690855 -1.488006 0.828230 0
M  V30 29 C 3.029396 -2.054379 1.199872 0
M  V30 30 H 7.260001 -4.424391 0.122202 0
M  V30 31 H 7.194904 -4.603644 1.878428 0
M  V30 32 H 7.875510 -3.067253 1.213284 0
M  V30 33 H 4.970621 -3.737157 1.663357 0
M  V30 34 H 4.951589 0.428169 0.169305 0
M  V30 35 H 4.483065 -0.405779 -1.378078 0
M  V30 36 H 2.816948 1.408031 -0.654270 0
M  V30 37 H -0.937025 -0.668619 1.168340 0
M  V30 38 H -3.206097 0.993576 3.434897 0
M  V30 39 H -5.325158 -2.610045 0.762833 0
M  V30 40 H -4.981895 -1.174629 -2.499200 0
M  V30 41 H -4.141206 -2.496975 -1.680843 0
M  V30 42 H -5.805328 -1.978614 -1.142541 0
M  V30 43 H -4.707014 2.691701 0.756543 0
M  V30 44 H -3.459658 4.521789 -0.318495 0
M  V30 45 H 1.071441 2.530610 -0.666607 0
M  V30 46 H 1.239028 -2.189624 0.071694 0
M  V30 47 H 1.057160 -1.468240 1.756166 0
M  V30 48 H 3.230838 -1.795349 2.259103 0
M  V30 49 H 3.039142 -3.153452 1.027832 0
M  V30 END ATOM
M  V30 BEGIN BOND
M  V30 1 1 1 2
M  V30 2 1 2 3
M  V30 3 2 3 4
M  V30 4 1 3 5
M  V30 5 1 5 6
M  V30 6 1 6 7
M  V30 7 2 7 8
M  V30 8 1 8 9
M  V30 9 2 9 10
M  V30 10 1 10 11
M  V30 11 2 11 12
M  V30 12 1 12 13
M  V30 13 2 13 14
M  V30 14 1 14 15
M  V30 15 1 15 16
M  V30 16 2 15 17
M  V30 17 1 17 18
M  V30 18 1 17 19
M  V30 19 2 19 20
M  V30 20 1 20 21
M  V30 21 1 21 22
M  V30 22 1 12 23
M  V30 23 2 23 24
M  V30 24 1 24 25
M  V30 25 2 25 26
M  V30 26 1 26 27
M  V30 27 1 8 28
M  V30 28 1 28 29
M  V30 29 1 29 5
M  V30 30 1 27 9
M  V30 31 1 26 11
M  V30 32 1 20 13
M  V30 33 1 1 30
M  V30 34 1 1 31
M  V30 35 1 1 32
M  V30 36 1 2 33
M  V30 37 1 6 34
M  V30 38 1 6 35
M  V30 39 1 7 36
M  V30 40 1 10 37
M  V30 41 1 14 38
M  V30 42 1 19 39
M  V30 43 1 22 40
M  V30 44 1 22 41
M  V30 45 1 22 42
M  V30 46 1 23 43
M  V30 47 1 24 44
M  V30 48 1 27 45
M  V30 49 1 28 46
M  V30 50 1 28 47
M  V30 51 1 29 48
M  V30 52 1 29 49
M  V30 END BOND
M  V30 END CTAB
M  END
>  <Dataset>  (971) 
ChEMBL_Kinases

>  <Ligand_Instance>  (971) 
nan

>  <PDB_ID>  (971) 
nan

>  <Standardized_SMILES>  (971) 
CNC(=O)N1CC=C(c2cc3c(-c4cc(F)c(F)cc4OC)ccnc3[nH]2)CC1

>  <Name>  (971) 
nan

>  <Pocket>  (971) 
nan

>  <ATP_Site>  (971) 
nan

>  <Peripheral>  (971) 
nan

>  <Num_H_Atoms_ProtBoundConf>  (971) 
nan

>  <Num_Resolved_Atoms>  (971) 
nan

>  <Num_Not_Resolved_Atoms>  (971) 
nan

$$$$
CHEMBL3668501
     RDKit          3D

  0  0  0  0  0  0  0  0  0  0999 V3000
M  V30 BEGIN CTAB
M  V30 COUNTS 51 54 0 0 0
M  V30 BEGIN ATOM
M  V30 1 C 2.453760 -0.060079 2.896284 0
M  V30 2 N 3.876477 -0.355292 3.093355 0
M  V30 3 C 4.430416 0.209152 4.311509 0
M  V30 4 C 4.768979 -1.112056 2.252419 0
M  V30 5 O 5.981145 -1.236755 2.672586 0
M  V30 6 C 4.776010 -1.857853 0.970236 0
M  V30 7 N 3.560980 -1.856347 0.270214 0
M  V30 8 C 3.102573 -0.652085 -0.328956 0
M  V30 9 C 1.614028 -0.690890 -0.339623 0
M  V30 10 C 0.892983 -1.758749 -0.633641 0
M  V30 11 C -0.566218 -1.784091 -0.640816 0
M  V30 12 C -1.319364 -0.667229 -0.343051 0
M  V30 13 C -2.629131 -1.135478 -0.467207 0
M  V30 14 C -3.905794 -0.594661 -0.323735 0
M  V30 15 C -4.011132 0.806656 0.047428 0
M  V30 16 C -4.055871 1.064661 1.401656 0
M  V30 17 C -4.157289 2.368933 1.863524 0
M  V30 18 C -4.211326 3.392481 0.926116 0
M  V30 19 C -4.165465 3.122267 -0.437254 0
M  V30 20 F -4.221120 4.153558 -1.320620 0
M  V30 21 C -4.064266 1.818396 -0.904519 0
M  V30 22 F -4.018317 1.533001 -2.214679 0
M  V30 23 C -5.028076 -1.379671 -0.532877 0
M  V30 24 C -4.945187 -2.708307 -0.886547 0
M  V30 25 N -3.696860 -3.218672 -1.022373 0
M  V30 26 C -2.598105 -2.467123 -0.822227 0
M  V30 27 N -1.309864 -2.843453 -0.923026 0
M  V30 28 C 1.767996 -2.923609 -0.954683 0
M  V30 29 C 2.750746 -2.991917 0.223364 0
M  V30 30 H 1.973566 0.140474 3.864641 0
M  V30 31 H 1.928922 -0.972340 2.497600 0
M  V30 32 H 2.307602 0.807000 2.226676 0
M  V30 33 H 4.534891 1.302613 4.256579 0
M  V30 34 H 3.827571 -0.040335 5.203447 0
M  V30 35 H 5.461433 -0.189527 4.497777 0
M  V30 36 H 5.553985 -1.408156 0.301364 0
M  V30 37 H 5.037434 -2.930554 1.196457 0
M  V30 38 H 3.482877 0.228489 0.225893 0
M  V30 39 H 3.498987 -0.538753 -1.372160 0
M  V30 40 H 1.089112 0.242742 -0.082079 0
M  V30 41 H -1.096719 0.341000 -0.074296 0
M  V30 42 H -4.015585 0.294748 2.166942 0
M  V30 43 H -4.193715 2.600416 2.917065 0
M  V30 44 H -4.290661 4.405369 1.294231 0
M  V30 45 H -5.985632 -0.915598 -0.410391 0
M  V30 46 H -5.810614 -3.335919 -1.053549 0
M  V30 47 H -0.927241 -3.788051 -1.175545 0
M  V30 48 H 2.283768 -2.796503 -1.919061 0
M  V30 49 H 1.141472 -3.810650 -1.037903 0
M  V30 50 H 3.283095 -3.960569 0.225600 0
M  V30 51 H 2.090448 -2.977392 1.142517 0
M  V30 END ATOM
M  V30 BEGIN BOND
M  V30 1 1 1 2
M  V30 2 1 2 3
M  V30 3 1 2 4
M  V30 4 2 4 5
M  V30 5 1 4 6
M  V30 6 1 6 7
M  V30 7 1 7 8
M  V30 8 1 8 9
M  V30 9 2 9 10
M  V30 10 1 10 11
M  V30 11 2 11 12
M  V30 12 1 12 13
M  V30 13 2 13 14
M  V30 14 1 14 15
M  V30 15 2 15 16
M  V30 16 1 16 17
M  V30 17 2 17 18
M  V30 18 1 18 19
M  V30 19 1 19 20
M  V30 20 2 19 21
M  V30 21 1 21 22
M  V30 22 1 14 23
M  V30 23 2 23 24
M  V30 24 1 24 25
M  V30 25 2 25 26
M  V30 26 1 26 27
M  V30 27 1 10 28
M  V30 28 1 28 29
M  V30 29 1 29 7
M  V30 30 1 27 11
M  V30 31 1 26 13
M  V30 32 1 21 15
M  V30 33 1 1 30
M  V30 34 1 1 31
M  V30 35 1 1 32
M  V30 36 1 3 33
M  V30 37 1 3 34
M  V30 38 1 3 35
M  V30 39 1 6 36
M  V30 40 1 6 37
M  V30 41 1 8 38
M  V30 42 1 8 39
M  V30 43 1 9 40
M  V30 44 1 12 41
M  V30 45 1 16 42
M  V30 46 1 17 43
M  V30 47 1 18 44
M  V30 48 1 23 45
M  V30 49 1 24 46
M  V30 50 1 27 47
M  V30 51 1 28 48
M  V30 52 1 28 49
M  V30 53 1 29 50
M  V30 54 1 29 51
M  V30 END BOND
M  V30 END CTAB
M  END
>  <Dataset>  (972) 
ChEMBL_Kinases

>  <Ligand_Instance>  (972) 
nan

>  <PDB_ID>  (972) 
nan

>  <Standardized_SMILES>  (972) 
CN(C)C(=O)CN1CC=C(c2cc3c(-c4cccc(F)c4F)ccnc3[nH]2)CC1

>  <Name>  (972) 
nan

>  <Pocket>  (972) 
nan

>  <ATP_Site>  (972) 
nan

>  <Peripheral>  (972) 
nan

>  <Num_H_Atoms_ProtBoundConf>  (972) 
nan

>  <Num_Resolved_Atoms>  (972) 
nan

>  <Num_Not_Resolved_Atoms>  (972) 
nan

$$$$
CHEMBL3668502
     RDKit          3D

  0  0  0  0  0  0  0  0  0  0999 V3000
M  V30 BEGIN CTAB
M  V30 COUNTS 57 60 0 0 0
M  V30 BEGIN ATOM
M  V30 1 C 2.463917 1.211215 5.591288 0
M  V30 2 O 2.503610 1.663427 4.250494 0
M  V30 3 C 3.643406 1.578720 3.465949 0
M  V30 4 C 4.783388 1.032952 4.007727 0
M  V30 5 C 5.904350 0.950009 3.234783 0
M  V30 6 C 5.957754 1.387254 1.927074 0
M  V30 7 F 7.051481 1.322990 1.125016 0
M  V30 8 C 4.808448 1.946163 1.354828 0
M  V30 9 C 3.676343 2.026396 2.146844 0
M  V30 10 C 2.459851 2.606323 1.574922 0
M  V30 11 C 2.300393 3.975164 1.725935 0
M  V30 12 C 1.120871 4.478455 1.162978 0
M  V30 13 N 0.211493 3.722624 0.528716 0
M  V30 14 C 0.354496 2.394115 0.374924 0
M  V30 15 N -0.334967 1.380995 -0.184113 0
M  V30 16 C 0.271224 0.199378 -0.057632 0
M  V30 17 C -0.203792 -1.126878 -0.548425 0
M  V30 18 C -1.339056 -1.612111 0.312431 0
M  V30 19 C -2.638704 -1.349984 -0.373648 0
M  V30 20 N -2.822089 -2.039405 -1.618395 0
M  V30 21 C -3.579825 -3.232169 -1.410380 0
M  V30 22 C -3.804291 -4.019255 -2.661918 0
M  V30 23 O -3.433803 -3.809700 -3.868288 0
M  V30 24 N -4.577693 -5.210831 -2.397204 0
M  V30 25 C -5.115742 -5.661762 -1.111497 0
M  V30 26 C -4.912115 -6.132515 -3.469956 0
M  V30 27 C -1.568845 -2.287779 -2.261799 0
M  V30 28 C -0.625044 -1.116064 -1.976749 0
M  V30 29 C 1.431854 0.510291 0.638290 0
M  V30 30 C 1.500339 1.863183 0.914858 0
M  V30 31 H 2.548714 0.115543 5.696355 0
M  V30 32 H 1.593457 1.598233 6.128087 0
M  V30 33 H 3.369050 1.652627 6.103705 0
M  V30 34 H 4.807145 0.666872 5.042368 0
M  V30 35 H 6.818574 0.531297 3.613561 0
M  V30 36 H 4.776316 2.304064 0.350798 0
M  V30 37 H 2.969302 4.656483 2.213848 0
M  V30 38 H 0.836965 5.529530 1.190258 0
M  V30 39 H -1.229581 1.619295 -0.638067 0
M  V30 40 H 0.653565 -1.821860 -0.356260 0
M  V30 41 H -1.344381 -0.992635 1.245907 0
M  V30 42 H -1.209840 -2.667367 0.627298 0
M  V30 43 H -3.517522 -1.516871 0.313304 0
M  V30 44 H -2.692649 -0.260651 -0.602143 0
M  V30 45 H -4.566280 -2.949245 -0.980482 0
M  V30 46 H -3.026991 -3.834212 -0.639706 0
M  V30 47 H -4.708384 -5.097443 -0.263366 0
M  V30 48 H -6.230066 -5.590009 -1.180086 0
M  V30 49 H -4.848883 -6.716855 -0.992493 0
M  V30 50 H -4.787577 -7.192005 -3.171368 0
M  V30 51 H -4.341055 -5.916036 -4.406263 0
M  V30 52 H -6.002512 -5.978163 -3.669229 0
M  V30 53 H -1.076091 -3.220747 -1.940118 0
M  V30 54 H -1.660725 -2.363511 -3.372166 0
M  V30 55 H -1.038939 -0.184161 -2.356325 0
M  V30 56 H 0.289974 -1.310887 -2.592142 0
M  V30 57 H 2.193180 -0.226241 0.928761 0
M  V30 END ATOM
M  V30 BEGIN BOND
M  V30 1 1 1 2
M  V30 2 1 2 3
M  V30 3 2 3 4
M  V30 4 1 4 5
M  V30 5 2 5 6
M  V30 6 1 6 7
M  V30 7 1 6 8
M  V30 8 2 8 9
M  V30 9 1 9 10
M  V30 10 2 10 11
M  V30 11 1 11 12
M  V30 12 2 12 13
M  V30 13 1 13 14
M  V30 14 1 14 15
M  V30 15 1 15 16
M  V30 16 1 16 17
M  V30 17 1 17 18
M  V30 18 1 18 19
M  V30 19 1 19 20
M  V30 20 1 20 21
M  V30 21 1 21 22
M  V30 22 2 22 23
M  V30 23 1 22 24
M  V30 24 1 24 25
M  V30 25 1 24 26
M  V30 26 1 20 27
M  V30 27 1 27 28
M  V30 28 2 16 29
M  V30 29 1 29 30
M  V30 30 1 9 3
M  V30 31 1 30 10
M  V30 32 2 30 14
M  V30 33 1 28 17
M  V30 34 1 1 31
M  V30 35 1 1 32
M  V30 36 1 1 33
M  V30 37 1 4 34
M  V30 38 1 5 35
M  V30 39 1 8 36
M  V30 40 1 11 37
M  V30 41 1 12 38
M  V30 42 1 15 39
M  V30 43 1 17 40
M  V30 44 1 18 41
M  V30 45 1 18 42
M  V30 46 1 19 43
M  V30 47 1 19 44
M  V30 48 1 21 45
M  V30 49 1 21 46
M  V30 50 1 25 47
M  V30 51 1 25 48
M  V30 52 1 25 49
M  V30 53 1 26 50
M  V30 54 1 26 51
M  V30 55 1 26 52
M  V30 56 1 27 53
M  V30 57 1 27 54
M  V30 58 1 28 55
M  V30 59 1 28 56
M  V30 60 1 29 57
M  V30 END BOND
M  V30 END CTAB
M  END
>  <Dataset>  (973) 
ChEMBL_Kinases

>  <Ligand_Instance>  (973) 
nan

>  <PDB_ID>  (973) 
nan

>  <Standardized_SMILES>  (973) 
COc1ccc(F)cc1-c1ccnc2[nH]c(C3CCN(CC(=O)N(C)C)CC3)cc12

>  <Name>  (973) 
nan

>  <Pocket>  (973) 
nan

>  <ATP_Site>  (973) 
nan

>  <Peripheral>  (973) 
nan

>  <Num_H_Atoms_ProtBoundConf>  (973) 
nan

>  <Num_Resolved_Atoms>  (973) 
nan

>  <Num_Not_Resolved_Atoms>  (973) 
nan

$$$$
CHEMBL3668512
     RDKit          3D

  0  0  0  0  0  0  0  0  0  0999 V3000
M  V30 BEGIN CTAB
M  V30 COUNTS 51 54 0 0 0
M  V30 BEGIN ATOM
M  V30 1 C 3.651519 -3.770608 -1.065372 0
M  V30 2 O 3.462356 -2.478977 -0.501709 0
M  V30 3 C 3.921214 -1.335669 -1.152181 0
M  V30 4 C 4.582751 -1.353879 -2.369490 0
M  V30 5 C 5.020578 -0.192155 -2.978295 0
M  V30 6 C 4.773900 1.001545 -2.325154 0
M  V30 7 F 5.235964 2.104776 -2.988145 0
M  V30 8 C 4.117775 1.057560 -1.111350 0
M  V30 9 C 3.685606 -0.109902 -0.513964 0
M  V30 10 C 2.987645 -0.106303 0.768656 0
M  V30 11 C 3.781132 -0.219650 1.916427 0
M  V30 12 C 3.124915 -0.222537 3.142684 0
M  V30 13 N 1.790552 -0.122492 3.256921 0
M  V30 14 C 1.019627 -0.014084 2.183459 0
M  V30 15 N -0.302047 0.099975 1.973946 0
M  V30 16 C -0.592583 0.181707 0.664974 0
M  V30 17 C -1.939554 0.312086 -0.001035 0
M  V30 18 C -2.574912 -1.038448 -0.055588 0
M  V30 19 C -3.185848 -1.396013 1.266122 0
M  V30 20 N -4.132095 -0.419611 1.700630 0
M  V30 21 C -4.222169 -0.227852 3.115610 0
M  V30 22 C -4.794561 -1.396887 3.835244 0
M  V30 23 N -5.188699 -2.550994 3.105964 0
M  V30 24 O -5.017992 -1.582153 5.066086 0
M  V30 25 C -4.110145 0.825120 1.000135 0
M  V30 26 C -2.743623 1.345302 0.705548 0
M  V30 27 C 0.624689 0.116308 -0.025624 0
M  V30 28 C 1.614924 -0.006437 0.954376 0
M  V30 29 H 4.703969 -3.997587 -1.278296 0
M  V30 30 H 3.225094 -4.527803 -0.387601 0
M  V30 31 H 3.088697 -3.863691 -2.032081 0
M  V30 32 H 4.708463 -2.358410 -2.767875 0
M  V30 33 H 5.530705 -0.283123 -3.930153 0
M  V30 34 H 3.953940 2.017249 -0.649645 0
M  V30 35 H 4.866119 -0.305332 1.927044 0
M  V30 36 H 3.636026 -0.305940 4.093366 0
M  V30 37 H -0.978734 0.121463 2.762768 0
M  V30 38 H -1.763983 0.598957 -1.088953 0
M  V30 39 H -1.771137 -1.770482 -0.321849 0
M  V30 40 H -3.308363 -1.125969 -0.888906 0
M  V30 41 H -2.389684 -1.631046 2.002961 0
M  V30 42 H -3.742060 -2.360533 1.101024 0
M  V30 43 H -3.246720 0.005471 3.581624 0
M  V30 44 H -4.858044 0.683817 3.279436 0
M  V30 45 H -4.923063 -3.550557 2.885500 0
M  V30 46 H -5.494449 -3.405313 2.556640 0
M  V30 47 H -4.608799 1.573461 1.660088 0
M  V30 48 H -4.663301 0.764319 0.023490 0
M  V30 49 H -2.852696 2.265446 0.092660 0
M  V30 50 H -2.214459 1.675713 1.626028 0
M  V30 51 H 0.759260 0.153457 -1.091486 0
M  V30 END ATOM
M  V30 BEGIN BOND
M  V30 1 1 1 2
M  V30 2 1 2 3
M  V30 3 2 3 4
M  V30 4 1 4 5
M  V30 5 2 5 6
M  V30 6 1 6 7
M  V30 7 1 6 8
M  V30 8 2 8 9
M  V30 9 1 9 10
M  V30 10 2 10 11
M  V30 11 1 11 12
M  V30 12 2 12 13
M  V30 13 1 13 14
M  V30 14 1 14 15
M  V30 15 1 15 16
M  V30 16 1 16 17
M  V30 17 1 17 18
M  V30 18 1 18 19
M  V30 19 1 19 20
M  V30 20 1 20 21
M  V30 21 1 21 22
M  V30 22 1 22 23
M  V30 23 2 22 24
M  V30 24 1 20 25
M  V30 25 1 25 26
M  V30 26 2 16 27
M  V30 27 1 27 28
M  V30 28 1 9 3
M  V30 29 1 28 10
M  V30 30 2 28 14
M  V30 31 1 26 17
M  V30 32 1 1 29
M  V30 33 1 1 30
M  V30 34 1 1 31
M  V30 35 1 4 32
M  V30 36 1 5 33
M  V30 37 1 8 34
M  V30 38 1 11 35
M  V30 39 1 12 36
M  V30 40 1 15 37
M  V30 41 1 17 38
M  V30 42 1 18 39
M  V30 43 1 18 40
M  V30 44 1 19 41
M  V30 45 1 19 42
M  V30 46 1 21 43
M  V30 47 1 21 44
M  V30 48 1 23 45
M  V30 49 1 23 46
M  V30 50 1 25 47
M  V30 51 1 25 48
M  V30 52 1 26 49
M  V30 53 1 26 50
M  V30 54 1 27 51
M  V30 END BOND
M  V30 END CTAB
M  END
>  <Dataset>  (974) 
ChEMBL_Kinases

>  <Ligand_Instance>  (974) 
nan

>  <PDB_ID>  (974) 
nan

>  <Standardized_SMILES>  (974) 
COc1ccc(F)cc1-c1ccnc2[nH]c(C3CCN(CC(N)=O)CC3)cc12

>  <Name>  (974) 
nan

>  <Pocket>  (974) 
nan

>  <ATP_Site>  (974) 
nan

>  <Peripheral>  (974) 
nan

>  <Num_H_Atoms_ProtBoundConf>  (974) 
nan

>  <Num_Resolved_Atoms>  (974) 
nan

>  <Num_Not_Resolved_Atoms>  (974) 
nan

$$$$
CHEMBL3668504
     RDKit          3D

  0  0  0  0  0  0  0  0  0  0999 V3000
M  V30 BEGIN CTAB
M  V30 COUNTS 56 59 0 0 0
M  V30 BEGIN ATOM
M  V30 1 C 5.274236 -0.398926 2.367060 0
M  V30 2 C 5.061290 0.748277 1.406456 0
M  V30 3 N 4.904878 0.285583 0.040270 0
M  V30 4 C 6.133123 0.194912 -0.671370 0
M  V30 5 O 7.160530 0.527288 -0.012637 0
M  V30 6 O 6.375826 -0.202953 -1.979150 0
M  V30 7 S 3.426494 -0.122598 -0.692071 0
M  V30 8 O 3.706109 -1.167988 -1.744649 0
M  V30 9 O 2.550299 -0.762373 0.343666 0
M  V30 10 N 2.663650 1.200780 -1.469951 0
M  V30 11 C 2.329835 2.269535 -0.562341 0
M  V30 12 C 1.328919 1.796648 0.439755 0
M  V30 13 C 0.376984 1.038846 -0.091682 0
M  V30 14 C -0.686302 0.498008 0.787409 0
M  V30 15 C -1.778394 -0.313659 0.456238 0
M  V30 16 C -2.489526 -0.557129 1.613618 0
M  V30 17 C -3.636608 -1.289931 1.842540 0
M  V30 18 C -4.318350 -1.974616 0.778482 0
M  V30 19 C -5.295221 -1.197633 0.146043 0
M  V30 20 C -6.050437 -1.697446 -0.901383 0
M  V30 21 F -7.004843 -0.919883 -1.509914 0
M  V30 22 C -5.834730 -3.005674 -1.338573 0
M  V30 23 C -4.866460 -3.766736 -0.707094 0
M  V30 24 C -4.122197 -3.262504 0.331060 0
M  V30 25 O -3.131802 -3.939629 1.028386 0
M  V30 26 C -2.862373 -5.274153 0.634315 0
M  V30 27 C -4.140456 -1.366341 3.125396 0
M  V30 28 F -5.276663 -2.087179 3.376309 0
M  V30 29 C -3.480483 -0.706239 4.142365 0
M  V30 30 N -2.346396 0.014919 3.899965 0
M  V30 31 C -1.856699 0.085420 2.635005 0
M  V30 32 N -0.777569 0.715230 2.132708 0
M  V30 33 C 0.264318 0.662188 -1.537577 0
M  V30 34 C 1.564492 0.759409 -2.275009 0
M  V30 35 H 6.334669 -0.512715 2.688047 0
M  V30 36 H 4.904317 -1.369849 1.992366 0
M  V30 37 H 4.718467 -0.188557 3.325371 0
M  V30 38 H 4.114202 1.269164 1.714664 0
M  V30 39 H 5.871713 1.474962 1.507681 0
M  V30 40 H 7.234673 -0.644766 -2.271654 0
M  V30 41 H 3.276316 2.609104 -0.091383 0
M  V30 42 H 1.851578 3.072567 -1.151795 0
M  V30 43 H 1.318393 2.009525 1.500038 0
M  V30 44 H -1.971518 -0.650358 -0.532686 0
M  V30 45 H -5.522265 -0.164680 0.431626 0
M  V30 46 H -6.414995 -3.437261 -2.167503 0
M  V30 47 H -4.665223 -4.778710 -1.009151 0
M  V30 48 H -1.894240 -5.639505 1.076001 0
M  V30 49 H -3.628592 -5.976050 1.072267 0
M  V30 50 H -2.780614 -5.409929 -0.452265 0
M  V30 51 H -3.846545 -0.740581 5.176389 0
M  V30 52 H -0.131948 1.279512 2.735161 0
M  V30 53 H -0.516975 1.296432 -1.982957 0
M  V30 54 H -0.096748 -0.395333 -1.635871 0
M  V30 55 H 1.439381 1.510565 -3.085589 0
M  V30 56 H 1.863987 -0.202852 -2.749557 0
M  V30 END ATOM
M  V30 BEGIN BOND
M  V30 1 1 1 2
M  V30 2 1 2 3
M  V30 3 1 3 4
M  V30 4 2 4 5
M  V30 5 1 4 6
M  V30 6 1 3 7
M  V30 7 2 7 8
M  V30 8 2 7 9
M  V30 9 1 7 10
M  V30 10 1 10 11
M  V30 11 1 11 12
M  V30 12 2 12 13
M  V30 13 1 13 14
M  V30 14 2 14 15
M  V30 15 1 15 16
M  V30 16 2 16 17
M  V30 17 1 17 18
M  V30 18 2 18 19
M  V30 19 1 19 20
M  V30 20 1 20 21
M  V30 21 2 20 22
M  V30 22 1 22 23
M  V30 23 2 23 24
M  V30 24 1 24 25
M  V30 25 1 25 26
M  V30 26 1 17 27
M  V30 27 1 27 28
M  V30 28 2 27 29
M  V30 29 1 29 30
M  V30 30 2 30 31
M  V30 31 1 31 32
M  V30 32 1 13 33
M  V30 33 1 33 34
M  V30 34 1 34 10
M  V30 35 1 32 14
M  V30 36 1 31 16
M  V30 37 1 24 18
M  V30 38 1 1 35
M  V30 39 1 1 36
M  V30 40 1 1 37
M  V30 41 1 2 38
M  V30 42 1 2 39
M  V30 43 1 6 40
M  V30 44 1 11 41
M  V30 45 1 11 42
M  V30 46 1 12 43
M  V30 47 1 15 44
M  V30 48 1 19 45
M  V30 49 1 22 46
M  V30 50 1 23 47
M  V30 51 1 26 48
M  V30 52 1 26 49
M  V30 53 1 26 50
M  V30 54 1 29 51
M  V30 55 1 32 52
M  V30 56 1 33 53
M  V30 57 1 33 54
M  V30 58 1 34 55
M  V30 59 1 34 56
M  V30 END BOND
M  V30 END CTAB
M  END
>  <Dataset>  (975) 
ChEMBL_Kinases

>  <Ligand_Instance>  (975) 
nan

>  <PDB_ID>  (975) 
nan

>  <Standardized_SMILES>  (975) 
CCN(C(=O)O)S(=O)(=O)N1CC=C(c2cc3c(-c4cc(F)ccc4OC)c(F)cnc3[nH]2)CC1

>  <Name>  (975) 
nan

>  <Pocket>  (975) 
nan

>  <ATP_Site>  (975) 
nan

>  <Peripheral>  (975) 
nan

>  <Num_H_Atoms_ProtBoundConf>  (975) 
nan

>  <Num_Resolved_Atoms>  (975) 
nan

>  <Num_Not_Resolved_Atoms>  (975) 
nan

$$$$
CHEMBL3668505
     RDKit          3D

  0  0  0  0  0  0  0  0  0  0999 V3000
M  V30 BEGIN CTAB
M  V30 COUNTS 57 61 0 0 0
M  V30 BEGIN ATOM
M  V30 1 C 0.990845 0.349853 5.404410 0
M  V30 2 O 1.385842 1.113369 4.285170 0
M  V30 3 C 2.667957 1.041528 3.745449 0
M  V30 4 C 3.591639 0.201967 4.311939 0
M  V30 5 C 4.845592 0.194860 3.706873 0
M  V30 6 C 5.181859 0.962782 2.610881 0
M  V30 7 F 6.436674 0.863011 2.118441 0
M  V30 8 C 4.212779 1.782298 2.091055 0
M  V30 9 C 2.932487 1.837573 2.650630 0
M  V30 10 C 1.958037 2.735599 2.042568 0
M  V30 11 C 1.929899 4.029852 2.534565 0
M  V30 12 C 1.007564 4.877844 1.953402 0
M  V30 13 N 0.182222 4.480003 0.968560 0
M  V30 14 C 0.254572 3.197698 0.525690 0
M  V30 15 N -0.443466 2.559704 -0.428583 0
M  V30 16 C -0.059077 1.267240 -0.563289 0
M  V30 17 C -0.587586 0.275829 -1.494847 0
M  V30 18 C -0.124320 -0.963895 -1.513518 0
M  V30 19 C -0.741919 -1.879588 -2.506368 0
M  V30 20 N -2.158203 -1.728917 -2.452594 0
M  V30 21 C -2.806852 -2.227886 -1.283749 0
M  V30 22 C -2.727782 -3.680397 -1.252622 0
M  V30 23 O -3.323674 -4.076200 -0.192150 0
M  V30 24 N -2.618477 -5.065050 -1.280738 0
M  V30 25 C -3.052917 -6.141170 -0.423457 0
M  V30 26 C -3.176886 -6.993932 -1.695133 0
M  V30 27 O -4.348933 -6.803339 -2.392902 0
M  V30 28 C -2.053184 -6.070864 -2.149851 0
M  V30 29 C -2.541775 -0.433524 -2.892690 0
M  V30 30 C -1.658198 0.696729 -2.426578 0
M  V30 31 C 0.947111 1.098070 0.374581 0
M  V30 32 C 1.141991 2.278993 1.043598 0
M  V30 33 H 1.121697 -0.721891 5.160244 0
M  V30 34 H -0.086567 0.550940 5.585013 0
M  V30 35 H 1.555178 0.634260 6.324519 0
M  V30 36 H 3.365158 -0.414071 5.171028 0
M  V30 37 H 5.594217 -0.457082 4.132230 0
M  V30 38 H 4.498885 2.385759 1.217721 0
M  V30 39 H 2.574407 4.384020 3.321233 0
M  V30 40 H 0.881186 5.904196 2.239603 0
M  V30 41 H -1.197435 3.001692 -1.005504 0
M  V30 42 H 0.660522 -1.248272 -0.825964 0
M  V30 43 H -0.458247 -2.936088 -2.332384 0
M  V30 44 H -0.417350 -1.544395 -3.517518 0
M  V30 45 H -3.871074 -1.877414 -1.339931 0
M  V30 46 H -2.413769 -1.775987 -0.340502 0
M  V30 47 H -4.086317 -6.005172 -0.012134 0
M  V30 48 H -2.313436 -6.566250 0.267120 0
M  V30 49 H -2.889963 -8.029050 -1.545857 0
M  V30 50 H -4.541207 -7.537208 -2.998826 0
M  V30 51 H -2.053665 -5.866868 -3.220247 0
M  V30 52 H -1.098722 -6.419970 -1.699497 0
M  V30 53 H -3.616959 -0.207780 -2.724223 0
M  V30 54 H -2.446430 -0.443070 -4.019271 0
M  V30 55 H -2.289709 1.442955 -1.888848 0
M  V30 56 H -1.162888 1.245580 -3.255642 0
M  V30 57 H 1.510686 0.207375 0.579987 0
M  V30 END ATOM
M  V30 BEGIN BOND
M  V30 1 1 1 2
M  V30 2 1 2 3
M  V30 3 2 3 4
M  V30 4 1 4 5
M  V30 5 2 5 6
M  V30 6 1 6 7
M  V30 7 1 6 8
M  V30 8 2 8 9
M  V30 9 1 9 10
M  V30 10 2 10 11
M  V30 11 1 11 12
M  V30 12 2 12 13
M  V30 13 1 13 14
M  V30 14 1 14 15
M  V30 15 1 15 16
M  V30 16 1 16 17
M  V30 17 2 17 18
M  V30 18 1 18 19
M  V30 19 1 19 20
M  V30 20 1 20 21
M  V30 21 1 21 22
M  V30 22 2 22 23
M  V30 23 1 22 24
M  V30 24 1 24 25
M  V30 25 1 25 26
M  V30 26 1 26 27
M  V30 27 1 26 28
M  V30 28 1 20 29
M  V30 29 1 29 30
M  V30 30 2 16 31
M  V30 31 1 31 32
M  V30 32 1 9 3
M  V30 33 1 32 10
M  V30 34 2 32 14
M  V30 35 1 30 17
M  V30 36 1 28 24
M  V30 37 1 1 33
M  V30 38 1 1 34
M  V30 39 1 1 35
M  V30 40 1 4 36
M  V30 41 1 5 37
M  V30 42 1 8 38
M  V30 43 1 11 39
M  V30 44 1 12 40
M  V30 45 1 15 41
M  V30 46 1 18 42
M  V30 47 1 19 43
M  V30 48 1 19 44
M  V30 49 1 21 45
M  V30 50 1 21 46
M  V30 51 1 25 47
M  V30 52 1 25 48
M  V30 53 1 26 49
M  V30 54 1 27 50
M  V30 55 1 28 51
M  V30 56 1 28 52
M  V30 57 1 29 53
M  V30 58 1 29 54
M  V30 59 1 30 55
M  V30 60 1 30 56
M  V30 61 1 31 57
M  V30 END BOND
M  V30 END CTAB
M  END
>  <Dataset>  (976) 
ChEMBL_Kinases

>  <Ligand_Instance>  (976) 
nan

>  <PDB_ID>  (976) 
nan

>  <Standardized_SMILES>  (976) 
COc1ccc(F)cc1-c1ccnc2[nH]c(C3=CCN(CC(=O)N4CC(O)C4)CC3)cc12

>  <Name>  (976) 
nan

>  <Pocket>  (976) 
nan

>  <ATP_Site>  (976) 
nan

>  <Peripheral>  (976) 
nan

>  <Num_H_Atoms_ProtBoundConf>  (976) 
nan

>  <Num_Resolved_Atoms>  (976) 
nan

>  <Num_Not_Resolved_Atoms>  (976) 
nan

$$$$
CHEMBL3668506
     RDKit          3D

  0  0  0  0  0  0  0  0  0  0999 V3000
M  V30 BEGIN CTAB
M  V30 COUNTS 63 67 0 0 0
M  V30 BEGIN ATOM
M  V30 1 C 4.843593 -0.624926 2.496591 0
M  V30 2 O 4.161662 0.542834 2.091053 0
M  V30 3 C 3.848775 1.521162 3.013842 0
M  V30 4 C 4.210470 1.348780 4.351874 0
M  V30 5 C 3.931785 2.276617 5.316227 0
M  V30 6 C 3.261765 3.432109 4.936715 0
M  V30 7 F 2.970827 4.368662 5.862846 0
M  V30 8 C 2.873547 3.672796 3.639412 0
M  V30 9 C 3.174846 2.702822 2.680188 0
M  V30 10 C 2.840251 2.780421 1.241794 0
M  V30 11 C 3.796654 3.361994 0.431328 0
M  V30 12 C 3.461114 3.415796 -0.904232 0
M  V30 13 N 2.307131 2.952262 -1.421181 0
M  V30 14 C 1.387599 2.389160 -0.617102 0
M  V30 15 N 0.178311 1.844178 -0.783821 0
M  V30 16 C -0.363357 1.405731 0.362273 0
M  V30 17 C -1.663177 0.763504 0.520881 0
M  V30 18 C -2.416307 0.566028 -0.548518 0
M  V30 19 C -3.686939 -0.100521 -0.135065 0
M  V30 20 N -3.499250 -1.232218 0.699223 0
M  V30 21 C -3.632778 -2.515695 0.106738 0
M  V30 22 C -2.585441 -2.877229 -0.867258 0
M  V30 23 O -1.660937 -2.062293 -1.118015 0
M  V30 24 N -2.832653 -4.200219 -1.394075 0
M  V30 25 C -3.865167 -5.228369 -1.177627 0
M  V30 26 C -4.469125 -5.266975 -2.588769 0
M  V30 27 C -3.167937 -5.298696 -3.399697 0
M  V30 28 C -2.085088 -4.975399 -2.366970 0 CFG=1
M  V30 29 C -0.933261 -4.265164 -2.982853 0
M  V30 30 O -0.006701 -3.877165 -2.049256 0
M  V30 31 C -2.521407 -1.120104 1.721622 0
M  V30 32 C -2.139697 0.337665 1.864543 0
M  V30 33 C 0.579148 1.698069 1.325286 0
M  V30 34 C 1.665584 2.305709 0.733192 0
M  V30 35 H 5.781570 -0.335751 3.048153 0
M  V30 36 H 5.130707 -1.237456 1.624148 0
M  V30 37 H 4.206593 -1.211216 3.198009 0
M  V30 38 H 4.737385 0.438608 4.648473 0
M  V30 39 H 4.190801 2.184308 6.354080 0
M  V30 40 H 2.353744 4.538920 3.271762 0
M  V30 41 H 4.718762 3.740653 0.794070 0
M  V30 42 H 4.140767 3.855351 -1.645548 0
M  V30 43 H -0.235596 1.800408 -1.736906 0
M  V30 44 H -2.064355 0.881425 -1.530039 0
M  V30 45 H -4.224231 0.676519 0.485189 0
M  V30 46 H -4.331030 -0.265175 -0.999150 0
M  V30 47 H -3.700253 -3.248186 0.954550 0
M  V30 48 H -4.660451 -2.545444 -0.358644 0
M  V30 49 H -3.376435 -6.187860 -0.912613 0
M  V30 50 H -4.658026 -4.906602 -0.499044 0
M  V30 51 H -5.106660 -6.135807 -2.755867 0
M  V30 52 H -4.949800 -4.281733 -2.729250 0
M  V30 53 H -3.031011 -6.329291 -3.765056 0
M  V30 54 H -3.188051 -4.569130 -4.214561 0
M  V30 55 H -1.761297 -5.910537 -1.866566 0
M  V30 56 H -1.269678 -3.414599 -3.601938 0
M  V30 57 H -0.454818 -4.978519 -3.692068 0
M  V30 58 H 0.559166 -3.149132 -2.406589 0
M  V30 59 H -2.879954 -1.549960 2.678749 0
M  V30 60 H -1.579517 -1.672337 1.459456 0
M  V30 61 H -1.354092 0.493393 2.633068 0
M  V30 62 H -3.079899 0.869433 2.157501 0
M  V30 63 H 0.466353 1.475824 2.385737 0
M  V30 END ATOM
M  V30 BEGIN BOND
M  V30 1 1 1 2
M  V30 2 1 2 3
M  V30 3 2 3 4
M  V30 4 1 4 5
M  V30 5 2 5 6
M  V30 6 1 6 7
M  V30 7 1 6 8
M  V30 8 2 8 9
M  V30 9 1 9 10
M  V30 10 2 10 11
M  V30 11 1 11 12
M  V30 12 2 12 13
M  V30 13 1 13 14
M  V30 14 1 14 15
M  V30 15 1 15 16
M  V30 16 1 16 17
M  V30 17 2 17 18
M  V30 18 1 18 19
M  V30 19 1 19 20
M  V30 20 1 20 21
M  V30 21 1 21 22
M  V30 22 2 22 23
M  V30 23 1 22 24
M  V30 24 1 24 25
M  V30 25 1 25 26
M  V30 26 1 26 27
M  V30 27 1 27 28
M  V30 28 1 28 29
M  V30 29 1 29 30
M  V30 30 1 20 31
M  V30 31 1 31 32
M  V30 32 2 16 33
M  V30 33 1 33 34
M  V30 34 1 9 3
M  V30 35 1 34 10
M  V30 36 2 34 14
M  V30 37 1 32 17
M  V30 38 1 28 24
M  V30 39 1 1 35
M  V30 40 1 1 36
M  V30 41 1 1 37
M  V30 42 1 4 38
M  V30 43 1 5 39
M  V30 44 1 8 40
M  V30 45 1 11 41
M  V30 46 1 12 42
M  V30 47 1 15 43
M  V30 48 1 18 44
M  V30 49 1 19 45
M  V30 50 1 19 46
M  V30 51 1 21 47
M  V30 52 1 21 48
M  V30 53 1 25 49
M  V30 54 1 25 50
M  V30 55 1 26 51
M  V30 56 1 26 52
M  V30 57 1 27 53
M  V30 58 1 27 54
M  V30 59 1 28 55 CFG=1
M  V30 60 1 29 56
M  V30 61 1 29 57
M  V30 62 1 30 58
M  V30 63 1 31 59
M  V30 64 1 31 60
M  V30 65 1 32 61
M  V30 66 1 32 62
M  V30 67 1 33 63
M  V30 END BOND
M  V30 END CTAB
M  END
>  <Dataset>  (977) 
ChEMBL_Kinases

>  <Ligand_Instance>  (977) 
nan

>  <PDB_ID>  (977) 
nan

>  <Standardized_SMILES>  (977) 
COc1ccc(F)cc1-c1ccnc2[nH]c(C3=CCN(CC(=O)N4CCC[C@H]4CO)CC3)cc12

>  <Name>  (977) 
nan

>  <Pocket>  (977) 
nan

>  <ATP_Site>  (977) 
nan

>  <Peripheral>  (977) 
nan

>  <Num_H_Atoms_ProtBoundConf>  (977) 
nan

>  <Num_Resolved_Atoms>  (977) 
nan

>  <Num_Not_Resolved_Atoms>  (977) 
nan

$$$$
CHEMBL3668507
     RDKit          3D

  0  0  0  0  0  0  0  0  0  0999 V3000
M  V30 BEGIN CTAB
M  V30 COUNTS 57 61 0 0 0
M  V30 BEGIN ATOM
M  V30 1 C 1.320706 2.642737 4.592098 0
M  V30 2 O 1.225451 2.995945 3.232649 0
M  V30 3 C 2.375390 3.079427 2.478859 0
M  V30 4 C 3.633954 2.825141 3.018377 0
M  V30 5 C 4.731818 2.925230 2.218106 0
M  V30 6 C 4.645102 3.271442 0.883203 0
M  V30 7 F 5.755081 3.366008 0.100162 0
M  V30 8 C 3.410614 3.529366 0.320530 0
M  V30 9 C 2.307479 3.428088 1.127410 0
M  V30 10 C 0.963519 3.688697 0.592167 0
M  V30 11 C 0.475835 4.978961 0.653930 0
M  V30 12 C -0.788694 5.199884 0.145783 0
M  V30 13 N -1.531231 4.203803 -0.393333 0
M  V30 14 C -1.034703 2.933799 -0.446886 0
M  V30 15 N -1.561324 1.769531 -0.927461 0
M  V30 16 C -0.658001 0.779779 -0.742673 0
M  V30 17 C -0.908295 -0.598290 -1.148355 0
M  V30 18 C -2.062075 -0.900447 -1.719896 0
M  V30 19 C -2.394125 -2.280468 -2.162031 0
M  V30 20 N -1.639631 -3.210603 -1.348253 0
M  V30 21 C -2.390524 -4.148068 -0.632431 0
M  V30 22 O -3.611370 -3.899088 -0.917855 0
M  V30 23 C -2.369448 -5.277452 0.292096 0 CFG=1
M  V30 24 C -2.986104 -6.531603 -0.297736 0
M  V30 25 C -2.064016 -7.666276 0.126213 0 CFG=1
M  V30 26 O -1.216550 -7.960245 -0.930450 0
M  V30 27 C -1.282710 -7.041716 1.247801 0
M  V30 28 N -1.040856 -5.693467 0.706722 0
M  V30 29 C -0.217742 -2.962181 -1.452250 0
M  V30 30 C 0.149009 -1.602593 -0.899716 0
M  V30 31 C 0.468044 1.297256 -0.137275 0
M  V30 32 C 0.222676 2.639991 0.042481 0
M  V30 33 H 1.636603 1.570145 4.728613 0
M  V30 34 H 0.333442 2.804979 5.108515 0
M  V30 35 H 2.103114 3.236114 5.128710 0
M  V30 36 H 3.712551 2.552211 4.066503 0
M  V30 37 H 5.681432 2.719588 2.680043 0
M  V30 38 H 3.291956 3.806300 -0.728496 0
M  V30 39 H 1.052503 5.792962 1.081184 0
M  V30 40 H -1.149568 6.220053 0.205350 0
M  V30 41 H -2.515178 1.760661 -1.348343 0
M  V30 42 H -2.842167 -0.173449 -1.906259 0
M  V30 43 H -3.467874 -2.472173 -2.189072 0
M  V30 44 H -2.042655 -2.337149 -3.232411 0
M  V30 45 H -2.974665 -5.003545 1.203577 0
M  V30 46 H -3.983343 -6.745600 0.137066 0
M  V30 47 H -3.050146 -6.461117 -1.404028 0
M  V30 48 H -2.631941 -8.568805 0.456662 0
M  V30 49 H -1.559788 -7.724949 -1.815941 0
M  V30 50 H -1.897284 -6.950777 2.149740 0
M  V30 51 H -0.302526 -7.546722 1.409699 0
M  V30 52 H -0.489013 -5.823109 -0.193523 0
M  V30 53 H 0.406753 -3.743350 -0.973747 0
M  V30 54 H 0.035380 -2.954109 -2.532601 0
M  V30 55 H 0.303763 -1.761610 0.197922 0
M  V30 56 H 1.119470 -1.256145 -1.301960 0
M  V30 57 H 1.363916 0.763255 0.141898 0
M  V30 END ATOM
M  V30 BEGIN BOND
M  V30 1 1 1 2
M  V30 2 1 2 3
M  V30 3 2 3 4
M  V30 4 1 4 5
M  V30 5 2 5 6
M  V30 6 1 6 7
M  V30 7 1 6 8
M  V30 8 2 8 9
M  V30 9 1 9 10
M  V30 10 2 10 11
M  V30 11 1 11 12
M  V30 12 2 12 13
M  V30 13 1 13 14
M  V30 14 1 14 15
M  V30 15 1 15 16
M  V30 16 1 16 17
M  V30 17 2 17 18
M  V30 18 1 18 19
M  V30 19 1 19 20
M  V30 20 1 20 21
M  V30 21 2 21 22
M  V30 22 1 21 23
M  V30 23 1 23 24
M  V30 24 1 24 25
M  V30 25 1 25 26
M  V30 26 1 25 27
M  V30 27 1 27 28
M  V30 28 1 20 29
M  V30 29 1 29 30
M  V30 30 2 16 31
M  V30 31 1 31 32
M  V30 32 1 9 3
M  V30 33 1 32 10
M  V30 34 2 32 14
M  V30 35 1 30 17
M  V30 36 1 28 23
M  V30 37 1 1 33
M  V30 38 1 1 34
M  V30 39 1 1 35
M  V30 40 1 4 36
M  V30 41 1 5 37
M  V30 42 1 8 38
M  V30 43 1 11 39
M  V30 44 1 12 40
M  V30 45 1 15 41
M  V30 46 1 18 42
M  V30 47 1 19 43
M  V30 48 1 19 44
M  V30 49 1 23 45 CFG=1
M  V30 50 1 24 46
M  V30 51 1 24 47
M  V30 52 1 25 48 CFG=1
M  V30 53 1 26 49
M  V30 54 1 27 50
M  V30 55 1 27 51
M  V30 56 1 28 52
M  V30 57 1 29 53
M  V30 58 1 29 54
M  V30 59 1 30 55
M  V30 60 1 30 56
M  V30 61 1 31 57
M  V30 END BOND
M  V30 END CTAB
M  END
>  <Dataset>  (978) 
ChEMBL_Kinases

>  <Ligand_Instance>  (978) 
nan

>  <PDB_ID>  (978) 
nan

>  <Standardized_SMILES>  (978) 
COc1ccc(F)cc1-c1ccnc2[nH]c(C3=CCN(C(=O)[C@H]4C[C@@H](O)CN4)CC3)cc12

>  <Name>  (978) 
nan

>  <Pocket>  (978) 
nan

>  <ATP_Site>  (978) 
nan

>  <Peripheral>  (978) 
nan

>  <Num_H_Atoms_ProtBoundConf>  (978) 
nan

>  <Num_Resolved_Atoms>  (978) 
nan

>  <Num_Not_Resolved_Atoms>  (978) 
nan

$$$$
CHEMBL3668508
     RDKit          3D

  0  0  0  0  0  0  0  0  0  0999 V3000
M  V30 BEGIN CTAB
M  V30 COUNTS 60 63 0 0 0
M  V30 BEGIN ATOM
M  V30 1 C 2.885591 1.743324 5.523535 0
M  V30 2 O 2.852369 1.760922 4.109686 0
M  V30 3 C 3.566294 0.861650 3.333013 0
M  V30 4 C 4.388225 -0.151759 3.748789 0
M  V30 5 C 5.033237 -0.967344 2.860876 0
M  V30 6 C 4.874478 -0.792846 1.510645 0
M  V30 7 F 5.532919 -1.624441 0.662293 0
M  V30 8 C 4.042629 0.232362 1.064114 0
M  V30 9 C 3.387805 1.060607 1.980545 0
M  V30 10 C 2.577480 2.054844 1.279867 0
M  V30 11 C 3.018780 3.300232 0.889439 0
M  V30 12 C 2.133199 4.122817 0.237752 0
M  V30 13 N 0.886986 3.733438 -0.010959 0
M  V30 14 C 0.425165 2.515658 0.360675 0
M  V30 15 N -0.766867 1.917977 0.220088 0
M  V30 16 C -0.742858 0.677226 0.764192 0
M  V30 17 C -1.869884 -0.248483 0.787073 0
M  V30 18 C -3.006743 0.145107 0.236662 0
M  V30 19 C -4.195852 -0.740867 0.221604 0
M  V30 20 C -3.662422 -2.164902 0.020018 0
M  V30 21 N -2.777418 -2.107481 -1.091975 0
M  V30 22 C -2.146404 -3.318314 -1.480770 0 CFG=1
M  V30 23 C -3.057618 -4.385034 -1.892533 0
M  V30 24 O -4.317414 -4.234684 -1.907424 0
M  V30 25 O -3.774479 -5.495457 -2.308994 0
M  V30 26 C -1.224683 -2.998501 -2.646736 0
M  V30 27 C -0.510259 -4.253210 -3.120190 0
M  V30 28 C -2.035777 -2.350481 -3.733681 0
M  V30 29 C -2.872102 -2.454145 1.298700 0
M  V30 30 C -1.665070 -1.576166 1.429231 0
M  V30 31 C 0.531094 0.505360 1.264670 0
M  V30 32 C 1.280816 1.647873 1.021877 0
M  V30 33 H 2.923597 0.690404 5.832750 0
M  V30 34 H 1.944509 2.207150 5.878355 0
M  V30 35 H 3.747515 2.322483 5.917077 0
M  V30 36 H 4.469179 -0.234101 4.834437 0
M  V30 37 H 5.664624 -1.744780 3.242455 0
M  V30 38 H 3.986034 0.284474 -0.021061 0
M  V30 39 H 4.041538 3.560258 1.119280 0
M  V30 40 H 2.509338 5.098491 -0.057943 0
M  V30 41 H -1.566918 2.393417 -0.253003 0
M  V30 42 H -3.151814 1.106865 -0.227401 0
M  V30 43 H -4.886152 -0.529405 -0.604320 0
M  V30 44 H -4.660720 -0.661325 1.219497 0
M  V30 45 H -4.465030 -2.895184 -0.012723 0
M  V30 46 H -2.991681 -1.423741 -1.821041 0
M  V30 47 H -1.565715 -3.684411 -0.599289 0
M  V30 48 H -3.292291 -6.367240 -2.582068 0
M  V30 49 H -0.418258 -2.309040 -2.302261 0
M  V30 50 H -1.203505 -5.051494 -3.424875 0
M  V30 51 H 0.160546 -3.956444 -3.947297 0
M  V30 52 H 0.124215 -4.578008 -2.254727 0
M  V30 53 H -1.636145 -2.662101 -4.737567 0
M  V30 54 H -1.945918 -1.230500 -3.699995 0
M  V30 55 H -3.126016 -2.564392 -3.670947 0
M  V30 56 H -3.578161 -2.198990 2.130280 0
M  V30 57 H -2.634895 -3.512923 1.408326 0
M  V30 58 H -0.763222 -2.067169 0.995302 0
M  V30 59 H -1.418694 -1.387851 2.507708 0
M  V30 60 H 0.899500 -0.364691 1.763838 0
M  V30 END ATOM
M  V30 BEGIN BOND
M  V30 1 1 1 2
M  V30 2 1 2 3
M  V30 3 2 3 4
M  V30 4 1 4 5
M  V30 5 2 5 6
M  V30 6 1 6 7
M  V30 7 1 6 8
M  V30 8 2 8 9
M  V30 9 1 9 10
M  V30 10 2 10 11
M  V30 11 1 11 12
M  V30 12 2 12 13
M  V30 13 1 13 14
M  V30 14 1 14 15
M  V30 15 1 15 16
M  V30 16 1 16 17
M  V30 17 2 17 18
M  V30 18 1 18 19
M  V30 19 1 19 20
M  V30 20 1 20 21
M  V30 21 1 21 22
M  V30 22 1 22 23
M  V30 23 2 23 24
M  V30 24 1 23 25
M  V30 25 1 22 26
M  V30 26 1 26 27
M  V30 27 1 26 28
M  V30 28 1 20 29
M  V30 29 1 29 30
M  V30 30 2 16 31
M  V30 31 1 31 32
M  V30 32 1 9 3
M  V30 33 1 32 10
M  V30 34 2 32 14
M  V30 35 1 30 17
M  V30 36 1 1 33
M  V30 37 1 1 34
M  V30 38 1 1 35
M  V30 39 1 4 36
M  V30 40 1 5 37
M  V30 41 1 8 38
M  V30 42 1 11 39
M  V30 43 1 12 40
M  V30 44 1 15 41
M  V30 45 1 18 42
M  V30 46 1 19 43
M  V30 47 1 19 44
M  V30 48 1 20 45
M  V30 49 1 21 46
M  V30 50 1 22 47 CFG=1
M  V30 51 1 25 48
M  V30 52 1 26 49
M  V30 53 1 27 50
M  V30 54 1 27 51
M  V30 55 1 27 52
M  V30 56 1 28 53
M  V30 57 1 28 54
M  V30 58 1 28 55
M  V30 59 1 29 56
M  V30 60 1 29 57
M  V30 61 1 30 58
M  V30 62 1 30 59
M  V30 63 1 31 60
M  V30 END BOND
M  V30 END CTAB
M  END
>  <Dataset>  (979) 
ChEMBL_Kinases

>  <Ligand_Instance>  (979) 
nan

>  <PDB_ID>  (979) 
nan

>  <Standardized_SMILES>  (979) 
COc1ccc(F)cc1-c1ccnc2[nH]c(C3=CCC(N[C@@H](C(=O)O)C(C)C)CC3)cc12

>  <Name>  (979) 
nan

>  <Pocket>  (979) 
nan

>  <ATP_Site>  (979) 
nan

>  <Peripheral>  (979) 
nan

>  <Num_H_Atoms_ProtBoundConf>  (979) 
nan

>  <Num_Resolved_Atoms>  (979) 
nan

>  <Num_Not_Resolved_Atoms>  (979) 
nan

$$$$
CHEMBL3668509
     RDKit          3D

  0  0  0  0  0  0  0  0  0  0999 V3000
M  V30 BEGIN CTAB
M  V30 COUNTS 58 62 0 0 0
M  V30 BEGIN ATOM
M  V30 1 C 5.002951 -1.926369 1.230630 0
M  V30 2 O 4.445401 -0.611886 1.230462 0
M  V30 3 C 4.084460 -0.094851 2.467446 0
M  V30 4 C 4.216316 -0.738671 3.698837 0
M  V30 5 C 3.816072 -0.108126 4.857903 0
M  V30 6 C 3.276719 1.173049 4.823815 0
M  V30 7 F 2.910492 1.716994 6.004097 0
M  V30 8 C 3.151318 1.798751 3.603387 0
M  V30 9 C 3.550544 1.178899 2.413669 0
M  V30 10 C 3.369215 1.938985 1.182060 0
M  V30 11 C 4.305255 2.790632 0.634836 0
M  V30 12 C 4.027673 3.457168 -0.531860 0
M  V30 13 N 2.860531 3.318592 -1.184734 0
M  V30 14 C 1.879164 2.496919 -0.714131 0
M  V30 15 N 0.642590 2.144473 -1.109612 0
M  V30 16 C 0.098307 1.271506 -0.245749 0
M  V30 17 C -1.216253 0.633891 -0.288171 0
M  V30 18 C -1.562345 -0.206403 0.676227 0
M  V30 19 C -2.886835 -0.874939 0.671039 0
M  V30 20 C -3.391846 -1.182447 -0.710093 0
M  V30 21 N -3.186880 -2.556909 -1.108882 0
M  V30 22 C -3.672097 -2.825009 -2.427194 0
M  V30 23 C -4.222221 -4.231633 -2.455174 0
M  V30 24 C -4.426521 -4.560416 -0.995378 0
M  V30 25 C -3.558567 -3.571570 -0.243123 0 CFG=1
M  V30 26 C -2.496410 -4.209608 0.559598 0
M  V30 27 O -1.242015 -3.970734 0.601426 0
M  V30 28 O -2.908226 -5.249417 1.423348 0
M  V30 29 C -3.063255 -0.196878 -1.759699 0
M  V30 30 C -2.155079 0.925594 -1.401124 0
M  V30 31 C 1.061685 1.089629 0.722279 0
M  V30 32 C 2.196847 1.844397 0.461792 0
M  V30 33 H 6.021042 -1.953312 1.646845 0
M  V30 34 H 4.323461 -2.603441 1.825271 0
M  V30 35 H 4.919561 -2.290969 0.192404 0
M  V30 36 H 4.642097 -1.726117 3.638573 0
M  V30 37 H 3.974152 -0.712276 5.715886 0
M  V30 38 H 2.718128 2.796549 3.690533 0
M  V30 39 H 5.252547 2.887079 1.187696 0
M  V30 40 H 4.833258 4.092609 -0.861766 0
M  V30 41 H 0.177830 2.505415 -1.971416 0
M  V30 42 H -0.897630 -0.450730 1.519636 0
M  V30 43 H -2.848743 -1.819437 1.252898 0
M  V30 44 H -3.538481 -0.191088 1.257467 0
M  V30 45 H -4.505439 -1.151162 -0.608133 0
M  V30 46 H -2.864949 -2.786529 -3.212559 0
M  V30 47 H -4.477901 -2.100852 -2.662154 0
M  V30 48 H -3.556996 -4.958723 -2.960428 0
M  V30 49 H -5.176509 -4.229300 -3.020888 0
M  V30 50 H -5.527838 -4.404031 -0.800770 0
M  V30 51 H -4.249659 -5.602978 -0.725779 0
M  V30 52 H -4.251218 -3.104669 0.522488 0
M  V30 53 H -2.251383 -5.956560 1.725977 0
M  V30 54 H -2.546337 -0.760711 -2.585741 0
M  V30 55 H -3.952181 0.266669 -2.276799 0
M  V30 56 H -2.758674 1.807149 -1.033567 0
M  V30 57 H -1.558286 1.313201 -2.237754 0
M  V30 58 H 0.937764 0.432751 1.581420 0
M  V30 END ATOM
M  V30 BEGIN BOND
M  V30 1 1 1 2
M  V30 2 1 2 3
M  V30 3 2 3 4
M  V30 4 1 4 5
M  V30 5 2 5 6
M  V30 6 1 6 7
M  V30 7 1 6 8
M  V30 8 2 8 9
M  V30 9 1 9 10
M  V30 10 2 10 11
M  V30 11 1 11 12
M  V30 12 2 12 13
M  V30 13 1 13 14
M  V30 14 1 14 15
M  V30 15 1 15 16
M  V30 16 1 16 17
M  V30 17 2 17 18
M  V30 18 1 18 19
M  V30 19 1 19 20
M  V30 20 1 20 21
M  V30 21 1 21 22
M  V30 22 1 22 23
M  V30 23 1 23 24
M  V30 24 1 24 25
M  V30 25 1 25 26
M  V30 26 2 26 27
M  V30 27 1 26 28
M  V30 28 1 20 29
M  V30 29 1 29 30
M  V30 30 2 16 31
M  V30 31 1 31 32
M  V30 32 1 9 3
M  V30 33 1 32 10
M  V30 34 2 32 14
M  V30 35 1 30 17
M  V30 36 1 25 21
M  V30 37 1 1 33
M  V30 38 1 1 34
M  V30 39 1 1 35
M  V30 40 1 4 36
M  V30 41 1 5 37
M  V30 42 1 8 38
M  V30 43 1 11 39
M  V30 44 1 12 40
M  V30 45 1 15 41
M  V30 46 1 18 42
M  V30 47 1 19 43
M  V30 48 1 19 44
M  V30 49 1 20 45
M  V30 50 1 22 46
M  V30 51 1 22 47
M  V30 52 1 23 48
M  V30 53 1 23 49
M  V30 54 1 24 50
M  V30 55 1 24 51
M  V30 56 1 25 52 CFG=1
M  V30 57 1 28 53
M  V30 58 1 29 54
M  V30 59 1 29 55
M  V30 60 1 30 56
M  V30 61 1 30 57
M  V30 62 1 31 58
M  V30 END BOND
M  V30 END CTAB
M  END
>  <Dataset>  (980) 
ChEMBL_Kinases

>  <Ligand_Instance>  (980) 
nan

>  <PDB_ID>  (980) 
nan

>  <Standardized_SMILES>  (980) 
COc1ccc(F)cc1-c1ccnc2[nH]c(C3=CCC(N4CCC[C@H]4C(=O)O)CC3)cc12

>  <Name>  (980) 
nan

>  <Pocket>  (980) 
nan

>  <ATP_Site>  (980) 
nan

>  <Peripheral>  (980) 
nan

>  <Num_H_Atoms_ProtBoundConf>  (980) 
nan

>  <Num_Resolved_Atoms>  (980) 
nan

>  <Num_Not_Resolved_Atoms>  (980) 
nan

$$$$
CHEMBL3668510
     RDKit          3D

  0  0  0  0  0  0  0  0  0  0999 V3000
M  V30 BEGIN CTAB
M  V30 COUNTS 47 50 0 0 0
M  V30 BEGIN ATOM
M  V30 1 C 3.956292 -1.421391 -1.824215 0
M  V30 2 O 3.482009 -0.362870 -1.002918 0
M  V30 3 C 3.838685 -0.436380 0.340992 0
M  V30 4 C 4.602468 -1.444519 0.909242 0
M  V30 5 C 4.906874 -1.436092 2.249423 0
M  V30 6 C 4.467373 -0.428345 3.083416 0
M  V30 7 F 4.754207 -0.392395 4.422291 0
M  V30 8 C 3.694596 0.601115 2.534127 0
M  V30 9 C 3.392508 0.581264 1.172964 0
M  V30 10 C 2.577356 1.717913 0.731258 0
M  V30 11 C 3.015066 2.947574 0.265020 0
M  V30 12 C 2.081847 3.892088 -0.104269 0
M  V30 13 N 0.770765 3.646211 -0.021804 0
M  V30 14 C 0.317268 2.453911 0.430010 0
M  V30 15 N -0.933640 1.985730 0.597988 0
M  V30 16 C -0.917395 0.730184 1.078116 0
M  V30 17 C -2.052190 -0.141089 1.401214 0
M  V30 18 C -1.838106 -1.348732 1.864808 0
M  V30 19 C -3.101152 -2.118274 2.147883 0
M  V30 20 N -3.999764 -1.962315 1.024763 0
M  V30 21 C -4.772824 -2.957522 0.323978 0
M  V30 22 O -5.567216 -2.823047 -0.668120 0
M  V30 23 N -4.688131 -4.328358 0.748587 0
M  V30 24 C -5.397884 -5.346699 0.129791 0
M  V30 25 N -5.983277 -6.220331 -0.386950 0
M  V30 26 C -4.218763 -0.665543 0.455258 0
M  V30 27 C -3.433693 0.370256 1.193511 0
M  V30 28 C 0.413585 0.413917 1.210730 0
M  V30 29 C 1.205635 1.462044 0.817007 0
M  V30 30 H 5.053048 -1.592428 -1.721187 0
M  V30 31 H 3.479124 -2.378058 -1.609568 0
M  V30 32 H 3.793299 -1.208120 -2.910062 0
M  V30 33 H 4.928391 -2.213765 0.231253 0
M  V30 34 H 5.510348 -2.242448 2.671770 0
M  V30 35 H 3.360052 1.381419 3.204829 0
M  V30 36 H 4.094558 3.003622 0.253090 0
M  V30 37 H 2.504571 4.824163 -0.456880 0
M  V30 38 H -1.774300 2.540430 0.378534 0
M  V30 39 H -0.816314 -1.715272 2.013945 0
M  V30 40 H -2.791164 -3.183251 2.172214 0
M  V30 41 H -3.532998 -1.847767 3.114914 0
M  V30 42 H -4.077824 -4.643385 1.560546 0
M  V30 43 H -3.899841 -0.655572 -0.616819 0
M  V30 44 H -5.308496 -0.435122 0.419695 0
M  V30 45 H -3.399923 1.299399 0.569870 0
M  V30 46 H -3.905995 0.678119 2.148450 0
M  V30 47 H 0.801049 -0.524539 1.572899 0
M  V30 END ATOM
M  V30 BEGIN BOND
M  V30 1 1 1 2
M  V30 2 1 2 3
M  V30 3 2 3 4
M  V30 4 1 4 5
M  V30 5 2 5 6
M  V30 6 1 6 7
M  V30 7 1 6 8
M  V30 8 2 8 9
M  V30 9 1 9 10
M  V30 10 2 10 11
M  V30 11 1 11 12
M  V30 12 2 12 13
M  V30 13 1 13 14
M  V30 14 1 14 15
M  V30 15 1 15 16
M  V30 16 1 16 17
M  V30 17 2 17 18
M  V30 18 1 18 19
M  V30 19 1 19 20
M  V30 20 1 20 21
M  V30 21 2 21 22
M  V30 22 1 21 23
M  V30 23 1 23 24
M  V30 24 3 24 25
M  V30 25 1 20 26
M  V30 26 1 26 27
M  V30 27 2 16 28
M  V30 28 1 28 29
M  V30 29 1 9 3
M  V30 30 1 29 10
M  V30 31 2 29 14
M  V30 32 1 27 17
M  V30 33 1 1 30
M  V30 34 1 1 31
M  V30 35 1 1 32
M  V30 36 1 4 33
M  V30 37 1 5 34
M  V30 38 1 8 35
M  V30 39 1 11 36
M  V30 40 1 12 37
M  V30 41 1 15 38
M  V30 42 1 18 39
M  V30 43 1 19 40
M  V30 44 1 19 41
M  V30 45 1 23 42
M  V30 46 1 26 43
M  V30 47 1 26 44
M  V30 48 1 27 45
M  V30 49 1 27 46
M  V30 50 1 28 47
M  V30 END BOND
M  V30 END CTAB
M  END
>  <Dataset>  (981) 
ChEMBL_Kinases

>  <Ligand_Instance>  (981) 
nan

>  <PDB_ID>  (981) 
nan

>  <Standardized_SMILES>  (981) 
COc1ccc(F)cc1-c1ccnc2[nH]c(C3=CCN(C(=O)NC#N)CC3)cc12

>  <Name>  (981) 
nan

>  <Pocket>  (981) 
nan

>  <ATP_Site>  (981) 
nan

>  <Peripheral>  (981) 
nan

>  <Num_H_Atoms_ProtBoundConf>  (981) 
nan

>  <Num_Resolved_Atoms>  (981) 
nan

>  <Num_Not_Resolved_Atoms>  (981) 
nan

$$$$
CHEMBL3668511
     RDKit          3D

  0  0  0  0  0  0  0  0  0  0999 V3000
M  V30 BEGIN CTAB
M  V30 COUNTS 63 67 0 0 0
M  V30 BEGIN ATOM
M  V30 1 C 5.017760 -1.560947 1.590749 0
M  V30 2 O 4.585090 -0.236337 1.355117 0
M  V30 3 C 4.497819 0.614880 2.444269 0
M  V30 4 C 4.816760 0.201504 3.720127 0
M  V30 5 C 4.735256 1.046280 4.840344 0
M  V30 6 C 4.307940 2.316206 4.528862 0
M  V30 7 F 4.222085 3.164180 5.614007 0
M  V30 8 C 3.961981 2.851637 3.311012 0
M  V30 9 C 4.077308 1.939154 2.283394 0
M  V30 10 C 3.746018 2.341062 0.919994 0
M  V30 11 C 4.636765 2.878985 0.017023 0
M  V30 12 C 4.252521 3.238054 -1.267766 0
M  V30 13 N 2.956917 3.051503 -1.642698 0
M  V30 14 C 2.066233 2.523224 -0.766386 0
M  V30 15 N 0.744336 2.250210 -0.918276 0
M  V30 16 C 0.298179 1.726798 0.249961 0
M  V30 17 C -1.059538 1.255336 0.594939 0
M  V30 18 C -1.406902 0.769881 1.775494 0
M  V30 19 C -2.840684 0.394117 1.776314 0
M  V30 20 N -2.907080 -0.723797 0.792816 0
M  V30 21 C -4.208739 -1.350822 0.907895 0
M  V30 22 C -4.358672 -2.609902 0.187021 0
M  V30 23 O -3.181872 -2.192359 0.041900 0
M  V30 24 N -4.302813 -3.785606 -0.552512 0
M  V30 25 C -5.458227 -4.652519 -0.685786 0
M  V30 26 C -5.624824 -4.713854 -2.189396 0
M  V30 27 C -4.179460 -4.822277 -2.633172 0
M  V30 28 C -3.422123 -4.588559 -1.342317 0 CFG=1
M  V30 29 C -2.140180 -3.968995 -1.691185 0
M  V30 30 N -1.399339 -4.917118 -2.494553 0
M  V30 31 O -1.151756 -3.201848 -1.826418 0
M  V30 32 C -2.731923 -0.096248 -0.512868 0
M  V30 33 C -2.153597 1.302186 -0.424766 0
M  V30 34 C 1.313204 1.647276 1.185109 0
M  V30 35 C 2.432328 2.156198 0.527472 0
M  V30 36 H 6.104799 -1.608829 1.824825 0
M  V30 37 H 4.827715 -2.223113 0.723048 0
M  V30 38 H 4.504790 -2.045003 2.463183 0
M  V30 39 H 5.153181 -0.813039 3.932313 0
M  V30 40 H 4.980630 0.734525 5.838157 0
M  V30 41 H 3.643493 3.857821 3.180589 0
M  V30 42 H 5.672655 3.015606 0.352318 0
M  V30 43 H 5.006231 3.655701 -1.930475 0
M  V30 44 H 0.121923 2.390615 -1.746032 0
M  V30 45 H -0.663132 0.713150 2.530264 0
M  V30 46 H -3.169710 0.010360 2.769361 0
M  V30 47 H -3.491935 1.218556 1.462453 0
M  V30 48 H -4.423180 -1.484081 2.010913 0
M  V30 49 H -5.017041 -0.646954 0.536299 0
M  V30 50 H -5.161035 -5.665726 -0.339247 0
M  V30 51 H -6.362764 -4.280154 -0.180693 0
M  V30 52 H -6.231118 -5.587699 -2.502687 0
M  V30 53 H -6.047039 -3.757574 -2.552855 0
M  V30 54 H -4.017833 -5.858254 -2.990633 0
M  V30 55 H -3.920606 -4.111261 -3.436122 0
M  V30 56 H -3.225561 -5.584255 -0.891617 0
M  V30 57 H -0.593793 -5.591339 -2.583851 0
M  V30 58 H -0.586448 -5.586382 -2.559871 0
M  V30 59 H -3.664173 -0.102182 -1.082995 0
M  V30 60 H -1.959416 -0.704896 -1.065674 0
M  V30 61 H -1.697197 1.502878 -1.440362 0
M  V30 62 H -2.884510 2.082881 -0.208938 0
M  V30 63 H 1.304839 1.288595 2.192901 0
M  V30 END ATOM
M  V30 BEGIN BOND
M  V30 1 1 1 2
M  V30 2 1 2 3
M  V30 3 2 3 4
M  V30 4 1 4 5
M  V30 5 2 5 6
M  V30 6 1 6 7
M  V30 7 1 6 8
M  V30 8 2 8 9
M  V30 9 1 9 10
M  V30 10 2 10 11
M  V30 11 1 11 12
M  V30 12 2 12 13
M  V30 13 1 13 14
M  V30 14 1 14 15
M  V30 15 1 15 16
M  V30 16 1 16 17
M  V30 17 2 17 18
M  V30 18 1 18 19
M  V30 19 1 19 20
M  V30 20 1 20 21
M  V30 21 1 21 22
M  V30 22 2 22 23
M  V30 23 1 22 24
M  V30 24 1 24 25
M  V30 25 1 25 26
M  V30 26 1 26 27
M  V30 27 1 27 28
M  V30 28 1 28 29
M  V30 29 1 29 30
M  V30 30 2 29 31
M  V30 31 1 20 32
M  V30 32 1 32 33
M  V30 33 2 16 34
M  V30 34 1 34 35
M  V30 35 1 9 3
M  V30 36 1 35 10
M  V30 37 2 35 14
M  V30 38 1 33 17
M  V30 39 1 28 24
M  V30 40 1 1 36
M  V30 41 1 1 37
M  V30 42 1 1 38
M  V30 43 1 4 39
M  V30 44 1 5 40
M  V30 45 1 8 41
M  V30 46 1 11 42
M  V30 47 1 12 43
M  V30 48 1 15 44
M  V30 49 1 18 45
M  V30 50 1 19 46
M  V30 51 1 19 47
M  V30 52 1 21 48
M  V30 53 1 21 49
M  V30 54 1 25 50
M  V30 55 1 25 51
M  V30 56 1 26 52
M  V30 57 1 26 53
M  V30 58 1 27 54
M  V30 59 1 27 55
M  V30 60 1 28 56 CFG=1
M  V30 61 1 30 57
M  V30 62 1 30 58
M  V30 63 1 32 59
M  V30 64 1 32 60
M  V30 65 1 33 61
M  V30 66 1 33 62
M  V30 67 1 34 63
M  V30 END BOND
M  V30 END CTAB
M  END
>  <Dataset>  (982) 
ChEMBL_Kinases

>  <Ligand_Instance>  (982) 
nan

>  <PDB_ID>  (982) 
nan

>  <Standardized_SMILES>  (982) 
COc1ccc(F)cc1-c1ccnc2[nH]c(C3=CCN(CC(=O)N4CCC[C@H]4C(N)=O)CC3)cc12

>  <Name>  (982) 
nan

>  <Pocket>  (982) 
nan

>  <ATP_Site>  (982) 
nan

>  <Peripheral>  (982) 
nan

>  <Num_H_Atoms_ProtBoundConf>  (982) 
nan

>  <Num_Resolved_Atoms>  (982) 
nan

>  <Num_Not_Resolved_Atoms>  (982) 
nan

$$$$
CHEMBL3668503
     RDKit          3D

  0  0  0  0  0  0  0  0  0  0999 V3000
M  V30 BEGIN CTAB
M  V30 COUNTS 56 59 0 0 0
M  V30 BEGIN ATOM
M  V30 1 C 2.004549 3.216675 4.594320 0
M  V30 2 O 2.199147 2.804114 3.245622 0
M  V30 3 C 3.027445 1.720750 2.936247 0
M  V30 4 C 3.723218 0.955988 3.848760 0
M  V30 5 C 4.511920 -0.095891 3.393640 0
M  V30 6 C 4.596128 -0.368001 2.057611 0
M  V30 7 F 5.380619 -1.406466 1.669539 0
M  V30 8 C 3.904264 0.389098 1.124660 0
M  V30 9 C 3.111584 1.446904 1.587473 0
M  V30 10 C 2.461388 2.133338 0.468566 0
M  V30 11 C 3.012065 3.205904 -0.221845 0
M  V30 12 C 4.322004 3.664157 0.217798 0
M  V30 13 N 5.370416 4.020710 0.550425 0
M  V30 14 C 2.337374 3.799865 -1.271599 0
M  V30 15 N 1.122227 3.353674 -1.656161 0
M  V30 16 C 0.546773 2.300391 -1.001030 0
M  V30 17 N -0.627846 1.666951 -1.167402 0
M  V30 18 C -0.767406 0.673566 -0.272359 0
M  V30 19 C -1.890211 -0.246792 -0.115145 0
M  V30 20 C -1.925461 -1.188433 0.813637 0
M  V30 21 C -3.037977 -2.149247 1.019693 0
M  V30 22 N -3.706007 -2.348683 -0.219740 0
M  V30 23 C -3.114450 -3.312154 -1.087188 0
M  V30 24 C -3.222176 -4.700425 -0.568015 0
M  V30 25 O -3.804992 -4.844659 0.537205 0
M  V30 26 N -2.695945 -5.812014 -1.279184 0
M  V30 27 C -2.024146 -5.641374 -2.543192 0
M  V30 28 C -2.838334 -7.147447 -0.727338 0
M  V30 29 C -4.110218 -1.118286 -0.802616 0
M  V30 30 C -3.038012 -0.113912 -1.046304 0
M  V30 31 C 0.388864 0.669860 0.516085 0
M  V30 32 C 1.199675 1.690580 0.049579 0
M  V30 33 H 1.807564 2.328107 5.262006 0
M  V30 34 H 1.146447 3.916361 4.623950 0
M  V30 35 H 2.950837 3.711626 4.896305 0
M  V30 36 H 3.616347 1.220841 4.890835 0
M  V30 37 H 5.060431 -0.697115 4.123199 0
M  V30 38 H 4.040649 0.091074 0.104573 0
M  V30 39 H 2.780998 4.632701 -1.796895 0
M  V30 40 H -1.375837 1.876655 -1.884141 0
M  V30 41 H -1.028246 -1.207816 1.451721 0
M  V30 42 H -2.583149 -3.073617 1.441038 0
M  V30 43 H -3.759402 -1.795631 1.784760 0
M  V30 44 H -2.044619 -3.048411 -1.238724 0
M  V30 45 H -3.566492 -3.241784 -2.106394 0
M  V30 46 H -2.674499 -5.496265 -3.406127 0
M  V30 47 H -1.389513 -6.553181 -2.734361 0
M  V30 48 H -1.264012 -4.820035 -2.446199 0
M  V30 49 H -3.191659 -7.871211 -1.492207 0
M  V30 50 H -1.834356 -7.439518 -0.336903 0
M  V30 51 H -3.514224 -7.093573 0.139686 0
M  V30 52 H -4.602656 -1.333861 -1.796229 0
M  V30 53 H -4.946745 -0.713335 -0.172842 0
M  V30 54 H -2.605226 -0.335780 -2.066892 0
M  V30 55 H -3.459407 0.894478 -1.101991 0
M  V30 56 H 0.643796 0.024684 1.332934 0
M  V30 END ATOM
M  V30 BEGIN BOND
M  V30 1 1 1 2
M  V30 2 1 2 3
M  V30 3 2 3 4
M  V30 4 1 4 5
M  V30 5 2 5 6
M  V30 6 1 6 7
M  V30 7 1 6 8
M  V30 8 2 8 9
M  V30 9 1 9 10
M  V30 10 2 10 11
M  V30 11 1 11 12
M  V30 12 3 12 13
M  V30 13 1 11 14
M  V30 14 2 14 15
M  V30 15 1 15 16
M  V30 16 1 16 17
M  V30 17 1 17 18
M  V30 18 1 18 19
M  V30 19 2 19 20
M  V30 20 1 20 21
M  V30 21 1 21 22
M  V30 22 1 22 23
M  V30 23 1 23 24
M  V30 24 2 24 25
M  V30 25 1 24 26
M  V30 26 1 26 27
M  V30 27 1 26 28
M  V30 28 1 22 29
M  V30 29 1 29 30
M  V30 30 2 18 31
M  V30 31 1 31 32
M  V30 32 1 9 3
M  V30 33 1 32 10
M  V30 34 2 32 16
M  V30 35 1 30 19
M  V30 36 1 1 33
M  V30 37 1 1 34
M  V30 38 1 1 35
M  V30 39 1 4 36
M  V30 40 1 5 37
M  V30 41 1 8 38
M  V30 42 1 14 39
M  V30 43 1 17 40
M  V30 44 1 20 41
M  V30 45 1 21 42
M  V30 46 1 21 43
M  V30 47 1 23 44
M  V30 48 1 23 45
M  V30 49 1 27 46
M  V30 50 1 27 47
M  V30 51 1 27 48
M  V30 52 1 28 49
M  V30 53 1 28 50
M  V30 54 1 28 51
M  V30 55 1 29 52
M  V30 56 1 29 53
M  V30 57 1 30 54
M  V30 58 1 30 55
M  V30 59 1 31 56
M  V30 END BOND
M  V30 END CTAB
M  END
>  <Dataset>  (983) 
ChEMBL_Kinases

>  <Ligand_Instance>  (983) 
nan

>  <PDB_ID>  (983) 
nan

>  <Standardized_SMILES>  (983) 
COc1ccc(F)cc1-c1c(C#N)cnc2[nH]c(C3=CCN(CC(=O)N(C)C)CC3)cc12

>  <Name>  (983) 
nan

>  <Pocket>  (983) 
nan

>  <ATP_Site>  (983) 
nan

>  <Peripheral>  (983) 
nan

>  <Num_H_Atoms_ProtBoundConf>  (983) 
nan

>  <Num_Resolved_Atoms>  (983) 
nan

>  <Num_Not_Resolved_Atoms>  (983) 
nan

$$$$
CHEMBL3672513
     RDKit          3D

  0  0  0  0  0  0  0  0  0  0999 V3000
M  V30 BEGIN CTAB
M  V30 COUNTS 53 57 0 0 0
M  V30 BEGIN ATOM
M  V30 1 C -3.415712 -5.368638 -3.003512 0
M  V30 2 C -2.751947 -4.317036 -2.578745 0
M  V30 3 C -3.521196 -3.095785 -2.396788 0
M  V30 4 C -4.861827 -2.963200 -2.660802 0
M  V30 5 C -5.811824 -3.971412 -3.180692 0
M  V30 6 N -5.148594 -1.665985 -2.334836 0
M  V30 7 C -4.043401 -1.038896 -1.895137 0
M  V30 8 C -3.696259 0.216017 -1.431879 0
M  V30 9 C -2.388817 0.455503 -1.057628 0
M  V30 10 C -2.023118 1.773595 -0.560375 0
M  V30 11 C -2.783447 2.029368 0.588866 0
M  V30 12 C -2.645819 3.232792 1.292016 0
M  V30 13 C -1.744775 4.171713 0.835437 0
M  V30 14 C -1.004512 3.905924 -0.296322 0
M  V30 15 C -1.128647 2.729803 -0.996285 0
M  V30 16 C -1.388277 -0.490191 -1.116603 0
M  V30 17 C -0.005815 -0.314584 -0.743114 0
M  V30 18 C 1.012507 -0.442173 -1.666893 0
M  V30 19 C 2.348326 -0.290516 -1.365316 0
M  V30 20 C 2.739418 0.006669 -0.077630 0
M  V30 21 C 4.055788 0.225273 0.558708 0
M  V30 22 N 4.286289 -0.553156 1.760702 0
M  V30 23 C 5.242582 0.103283 -0.363856 0
M  V30 24 C 5.227210 1.603814 -0.558937 0
M  V30 25 C 4.424829 1.683107 0.748129 0
M  V30 26 C 1.736352 0.145188 0.892423 0
M  V30 27 C 0.392817 -0.017643 0.540111 0
M  V30 28 N -1.789591 -1.701179 -1.579037 0
M  V30 29 N -3.038310 -1.930797 -1.936215 0
M  V30 30 H -3.898509 -6.259661 -3.347326 0
M  V30 31 H -4.082524 -6.141003 -3.350424 0
M  V30 32 H -1.712099 -4.549902 -2.442044 0
M  V30 33 H -6.795427 -3.471830 -3.320261 0
M  V30 34 H -5.902024 -4.843272 -2.489781 0
M  V30 35 H -5.469887 -4.363070 -4.161860 0
M  V30 36 H -4.460187 0.967863 -1.378429 0
M  V30 37 H -3.527726 1.403418 1.074783 0
M  V30 38 H -3.182093 3.507619 2.172129 0
M  V30 39 H -1.574133 5.126815 1.316090 0
M  V30 40 H -0.284326 4.589081 -0.711187 0
M  V30 41 H -0.626453 2.379558 -1.886619 0
M  V30 42 H 0.819308 -0.672228 -2.699268 0
M  V30 43 H 3.184244 -0.371981 -2.019815 0
M  V30 44 H 4.463475 0.019209 2.602183 0
M  V30 45 H 4.984173 -1.289626 1.589876 0
M  V30 46 H 6.154681 -0.286650 0.134177 0
M  V30 47 H 5.042713 -0.471622 -1.277453 0
M  V30 48 H 4.638583 1.901639 -1.440250 0
M  V30 49 H 6.260289 1.975468 -0.486438 0
M  V30 50 H 5.060445 1.896142 1.613398 0
M  V30 51 H 3.573763 2.375296 0.623126 0
M  V30 52 H 1.837990 0.373955 1.944477 0
M  V30 53 H -0.435736 0.079381 1.255535 0
M  V30 END ATOM
M  V30 BEGIN BOND
M  V30 1 2 1 2
M  V30 2 1 2 3
M  V30 3 2 3 4
M  V30 4 1 4 5
M  V30 5 1 4 6
M  V30 6 2 6 7
M  V30 7 1 7 8
M  V30 8 2 8 9
M  V30 9 1 9 10
M  V30 10 2 10 11
M  V30 11 1 11 12
M  V30 12 2 12 13
M  V30 13 1 13 14
M  V30 14 2 14 15
M  V30 15 1 9 16
M  V30 16 1 16 17
M  V30 17 2 17 18
M  V30 18 1 18 19
M  V30 19 2 19 20
M  V30 20 1 20 21
M  V30 21 1 21 22
M  V30 22 1 21 23
M  V30 23 1 23 24
M  V30 24 1 24 25
M  V30 25 1 20 26
M  V30 26 2 26 27
M  V30 27 2 16 28
M  V30 28 1 28 29
M  V30 29 1 29 3
M  V30 30 1 29 7
M  V30 31 1 15 10
M  V30 32 1 27 17
M  V30 33 1 25 21
M  V30 34 1 1 30
M  V30 35 1 1 31
M  V30 36 1 2 32
M  V30 37 1 5 33
M  V30 38 1 5 34
M  V30 39 1 5 35
M  V30 40 1 8 36
M  V30 41 1 11 37
M  V30 42 1 12 38
M  V30 43 1 13 39
M  V30 44 1 14 40
M  V30 45 1 15 41
M  V30 46 1 18 42
M  V30 47 1 19 43
M  V30 48 1 22 44
M  V30 49 1 22 45
M  V30 50 1 23 46
M  V30 51 1 23 47
M  V30 52 1 24 48
M  V30 53 1 24 49
M  V30 54 1 25 50
M  V30 55 1 25 51
M  V30 56 1 26 52
M  V30 57 1 27 53
M  V30 END BOND
M  V30 END CTAB
M  END
>  <Dataset>  (984) 
ChEMBL_Kinases

>  <Ligand_Instance>  (984) 
nan

>  <PDB_ID>  (984) 
nan

>  <Standardized_SMILES>  (984) 
C=Cc1c(C)nc2cc(-c3ccccc3)c(-c3ccc(C4(N)CCC4)cc3)nn12

>  <Name>  (984) 
nan

>  <Pocket>  (984) 
nan

>  <ATP_Site>  (984) 
nan

>  <Peripheral>  (984) 
nan

>  <Num_H_Atoms_ProtBoundConf>  (984) 
nan

>  <Num_Resolved_Atoms>  (984) 
nan

>  <Num_Not_Resolved_Atoms>  (984) 
nan

$$$$
CHEMBL3672504
     RDKit          3D

  0  0  0  0  0  0  0  0  0  0999 V3000
M  V30 BEGIN CTAB
M  V30 COUNTS 63 68 0 0 0
M  V30 BEGIN ATOM
M  V30 1 C 2.310152 0.533484 6.205258 0
M  V30 2 C 2.298024 0.237171 4.763029 0
M  V30 3 N 3.333656 0.138423 3.886632 0
M  V30 4 C 2.832231 -0.151104 2.663005 0
M  V30 5 C 3.488275 -0.345692 1.463116 0
M  V30 6 C 2.741772 -0.634064 0.338710 0
M  V30 7 C 3.245804 -0.870960 -1.010161 0
M  V30 8 C 4.093530 -1.968044 -1.062092 0
M  V30 9 C 4.684537 -2.371866 -2.243242 0
M  V30 10 C 4.416156 -1.657278 -3.391463 0
M  V30 11 C 3.578759 -0.569852 -3.351980 0
M  V30 12 C 2.984241 -0.159089 -2.178295 0
M  V30 13 C 1.368565 -0.718970 0.446466 0
M  V30 14 C 0.381052 -1.007957 -0.588216 0
M  V30 15 C -0.562479 -0.006062 -0.841387 0
M  V30 16 C -1.539223 -0.177106 -1.798343 0
M  V30 17 C -1.615282 -1.330902 -2.528793 0
M  V30 18 C -2.567150 -1.722790 -3.590927 0
M  V30 19 N -2.992714 -3.108489 -3.467650 0
M  V30 20 C -2.137673 -1.341826 -4.986045 0
M  V30 21 C -3.059578 -0.152045 -4.914416 0
M  V30 22 C -3.774015 -0.825431 -3.757354 0
M  V30 23 C -0.670443 -2.329480 -2.272570 0
M  V30 24 C 0.317609 -2.182415 -1.319450 0
M  V30 25 N 0.799129 -0.516869 1.649988 0
M  V30 26 N 1.486603 -0.239316 2.743995 0
M  V30 27 C 1.151995 0.000157 4.041150 0
M  V30 28 C -0.259738 -0.022116 4.469350 0
M  V30 29 C -0.739513 -0.639955 5.600709 0
M  V30 30 C -2.106750 -0.573264 5.873396 0
M  V30 31 C -2.978193 0.088048 5.047766 0
M  V30 32 C -4.401399 0.135668 5.366855 0
M  V30 33 N -5.309912 0.818263 4.517900 0
M  V30 34 O -4.838809 -0.430472 6.402299 0
M  V30 35 C -2.506784 0.708253 3.914913 0
M  V30 36 C -1.170661 0.639399 3.654377 0
M  V30 37 H 2.248148 -0.386034 6.843514 0
M  V30 38 H 3.324004 0.950288 6.437661 0
M  V30 39 H 1.603704 1.314093 6.527116 0
M  V30 40 H 4.553671 -0.293202 1.314383 0
M  V30 41 H 4.369063 -2.596868 -0.215713 0
M  V30 42 H 5.359407 -3.235828 -2.314402 0
M  V30 43 H 4.825288 -1.884614 -4.374481 0
M  V30 44 H 3.326783 0.037008 -4.227384 0
M  V30 45 H 2.311467 0.673117 -2.015177 0
M  V30 46 H -0.562247 0.937915 -0.298270 0
M  V30 47 H -2.303406 0.540529 -2.057329 0
M  V30 48 H -3.895015 -3.211796 -3.981341 0
M  V30 49 H -3.172287 -3.333896 -2.465876 0
M  V30 50 H -2.384371 -2.066890 -5.791653 0
M  V30 51 H -1.067327 -1.037445 -5.052872 0
M  V30 52 H -2.601280 0.814117 -4.616567 0
M  V30 53 H -3.706814 -0.040195 -5.824682 0
M  V30 54 H -4.682361 -1.384487 -4.089557 0
M  V30 55 H -4.013711 -0.174189 -2.907399 0
M  V30 56 H -0.618325 -3.281688 -2.774244 0
M  V30 57 H 1.059946 -2.926276 -1.094685 0
M  V30 58 H -0.004352 -1.151274 6.221985 0
M  V30 59 H -2.409157 -1.082170 6.779391 0
M  V30 60 H -6.253630 0.484625 4.161733 0
M  V30 61 H -5.206602 1.773043 4.093926 0
M  V30 62 H -3.200143 1.240750 3.247804 0
M  V30 63 H -0.837692 1.143347 2.747882 0
M  V30 END ATOM
M  V30 BEGIN BOND
M  V30 1 1 1 2
M  V30 2 1 2 3
M  V30 3 2 3 4
M  V30 4 1 4 5
M  V30 5 2 5 6
M  V30 6 1 6 7
M  V30 7 2 7 8
M  V30 8 1 8 9
M  V30 9 2 9 10
M  V30 10 1 10 11
M  V30 11 2 11 12
M  V30 12 1 6 13
M  V30 13 1 13 14
M  V30 14 2 14 15
M  V30 15 1 15 16
M  V30 16 2 16 17
M  V30 17 1 17 18
M  V30 18 1 18 19
M  V30 19 1 18 20
M  V30 20 1 20 21
M  V30 21 1 21 22
M  V30 22 1 17 23
M  V30 23 2 23 24
M  V30 24 2 13 25
M  V30 25 1 25 26
M  V30 26 1 26 27
M  V30 27 1 27 28
M  V30 28 2 28 29
M  V30 29 1 29 30
M  V30 30 2 30 31
M  V30 31 1 31 32
M  V30 32 1 32 33
M  V30 33 2 32 34
M  V30 34 1 31 35
M  V30 35 2 35 36
M  V30 36 2 27 2
M  V30 37 1 36 28
M  V30 38 1 26 4
M  V30 39 1 12 7
M  V30 40 1 24 14
M  V30 41 1 22 18
M  V30 42 1 1 37
M  V30 43 1 1 38
M  V30 44 1 1 39
M  V30 45 1 5 40
M  V30 46 1 8 41
M  V30 47 1 9 42
M  V30 48 1 10 43
M  V30 49 1 11 44
M  V30 50 1 12 45
M  V30 51 1 15 46
M  V30 52 1 16 47
M  V30 53 1 19 48
M  V30 54 1 19 49
M  V30 55 1 20 50
M  V30 56 1 20 51
M  V30 57 1 21 52
M  V30 58 1 21 53
M  V30 59 1 22 54
M  V30 60 1 22 55
M  V30 61 1 23 56
M  V30 62 1 24 57
M  V30 63 1 29 58
M  V30 64 1 30 59
M  V30 65 1 33 60
M  V30 66 1 33 61
M  V30 67 1 35 62
M  V30 68 1 36 63
M  V30 END BOND
M  V30 END CTAB
M  END
>  <Dataset>  (985) 
ChEMBL_Kinases

>  <Ligand_Instance>  (985) 
nan

>  <PDB_ID>  (985) 
nan

>  <Standardized_SMILES>  (985) 
Cc1nc2cc(-c3ccccc3)c(-c3ccc(C4(N)CCC4)cc3)nn2c1-c1ccc(C(N)=O)cc1

>  <Name>  (985) 
nan

>  <Pocket>  (985) 
nan

>  <ATP_Site>  (985) 
nan

>  <Peripheral>  (985) 
nan

>  <Num_H_Atoms_ProtBoundConf>  (985) 
nan

>  <Num_Resolved_Atoms>  (985) 
nan

>  <Num_Not_Resolved_Atoms>  (985) 
nan

$$$$
CHEMBL3672502
     RDKit          3D

  0  0  0  0  0  0  0  0  0  0999 V3000
M  V30 BEGIN CTAB
M  V30 COUNTS 56 61 0 0 0
M  V30 BEGIN ATOM
M  V30 1 C 1.587437 -6.963983 1.961930 0
M  V30 2 C 1.574858 -5.491274 1.778107 0
M  V30 3 N 2.595459 -4.646118 2.036313 0
M  V30 4 C 2.206182 -3.387583 1.744267 0
M  V30 5 C 2.864168 -2.167332 1.828905 0
M  V30 6 C 2.208127 -1.007468 1.455232 0
M  V30 7 C 2.764754 0.312954 1.495404 0
M  V30 8 C 2.486119 1.371491 2.332206 0
M  V30 9 C 3.104954 2.597789 2.246016 0
M  V30 10 C 4.060135 2.797302 1.274065 0
M  V30 11 C 4.366057 1.766661 0.420828 0
M  V30 12 C 3.737880 0.531455 0.513157 0
M  V30 13 C 0.910261 -1.118201 1.008555 0
M  V30 14 C -0.008273 -0.078397 0.557995 0
M  V30 15 C -0.676433 0.886029 1.280804 0
M  V30 16 C -1.505820 1.790474 0.655965 0
M  V30 17 C -1.688807 1.754454 -0.706881 0
M  V30 18 C -2.558968 2.678401 -1.470115 0
M  V30 19 N -1.932598 3.192384 -2.668129 0
M  V30 20 C -3.296952 3.724509 -0.712266 0
M  V30 21 C -4.503684 2.806369 -0.665240 0
M  V30 22 C -3.909891 2.071995 -1.845489 0
M  V30 23 C -1.033683 0.796335 -1.481499 0
M  V30 24 C -0.192339 -0.118461 -0.831959 0
M  V30 25 N 0.310466 -2.329236 0.943535 0
M  V30 26 N 0.920702 -3.457710 1.297385 0
M  V30 27 C 0.508326 -4.760325 1.310735 0
M  V30 28 C -0.826122 -5.152174 0.888953 0
M  V30 29 C -1.844218 -4.339448 0.428370 0
M  V30 30 N -2.933261 -5.071206 0.138665 0
M  V30 31 N -2.683976 -6.344666 0.387289 0
M  V30 32 C -1.418489 -6.392759 0.837822 0
M  V30 33 H 1.395956 -7.466726 0.987095 0
M  V30 34 H 0.812768 -7.288902 2.675462 0
M  V30 35 H 2.585816 -7.292602 2.333746 0
M  V30 36 H 3.873923 -2.095401 2.178256 0
M  V30 37 H 1.743759 1.160878 3.068902 0
M  V30 38 H 2.811490 3.370141 2.957071 0
M  V30 39 H 4.491886 3.791524 1.282429 0
M  V30 40 H 5.130328 2.031232 -0.305196 0
M  V30 41 H 4.107971 -0.142666 -0.235275 0
M  V30 42 H -0.485055 0.845823 2.341351 0
M  V30 43 H -2.015055 2.531863 1.249678 0
M  V30 44 H -0.903781 3.039461 -2.684166 0
M  V30 45 H -2.336013 2.761222 -3.532113 0
M  V30 46 H -2.953592 4.029119 0.272194 0
M  V30 47 H -3.551870 4.645654 -1.298937 0
M  V30 48 H -4.599897 2.200291 0.237112 0
M  V30 49 H -5.438917 3.297842 -0.947472 0
M  V30 50 H -3.926112 0.970531 -1.653758 0
M  V30 51 H -4.274554 2.332292 -2.837094 0
M  V30 52 H -1.159693 0.744762 -2.555301 0
M  V30 53 H 0.291218 -0.845257 -1.503414 0
M  V30 54 H -1.813402 -3.249117 0.301234 0
M  V30 55 H -3.378652 -7.095258 0.238547 0
M  V30 56 H -0.977386 -7.334829 1.111569 0
M  V30 END ATOM
M  V30 BEGIN BOND
M  V30 1 1 1 2
M  V30 2 1 2 3
M  V30 3 2 3 4
M  V30 4 1 4 5
M  V30 5 2 5 6
M  V30 6 1 6 7
M  V30 7 2 7 8
M  V30 8 1 8 9
M  V30 9 2 9 10
M  V30 10 1 10 11
M  V30 11 2 11 12
M  V30 12 1 6 13
M  V30 13 1 13 14
M  V30 14 2 14 15
M  V30 15 1 15 16
M  V30 16 2 16 17
M  V30 17 1 17 18
M  V30 18 1 18 19
M  V30 19 1 18 20
M  V30 20 1 20 21
M  V30 21 1 21 22
M  V30 22 1 17 23
M  V30 23 2 23 24
M  V30 24 2 13 25
M  V30 25 1 25 26
M  V30 26 1 26 27
M  V30 27 1 27 28
M  V30 28 1 28 29
M  V30 29 2 29 30
M  V30 30 1 30 31
M  V30 31 1 31 32
M  V30 32 2 27 2
M  V30 33 2 32 28
M  V30 34 1 26 4
M  V30 35 1 12 7
M  V30 36 1 24 14
M  V30 37 1 22 18
M  V30 38 1 1 33
M  V30 39 1 1 34
M  V30 40 1 1 35
M  V30 41 1 5 36
M  V30 42 1 8 37
M  V30 43 1 9 38
M  V30 44 1 10 39
M  V30 45 1 11 40
M  V30 46 1 12 41
M  V30 47 1 15 42
M  V30 48 1 16 43
M  V30 49 1 19 44
M  V30 50 1 19 45
M  V30 51 1 20 46
M  V30 52 1 20 47
M  V30 53 1 21 48
M  V30 54 1 21 49
M  V30 55 1 22 50
M  V30 56 1 22 51
M  V30 57 1 23 52
M  V30 58 1 24 53
M  V30 59 1 29 54
M  V30 60 1 31 55
M  V30 61 1 32 56
M  V30 END BOND
M  V30 END CTAB
M  END
>  <Dataset>  (986) 
ChEMBL_Kinases

>  <Ligand_Instance>  (986) 
nan

>  <PDB_ID>  (986) 
nan

>  <Standardized_SMILES>  (986) 
Cc1nc2cc(-c3ccccc3)c(-c3ccc(C4(N)CCC4)cc3)nn2c1-c1cn[nH]c1

>  <Name>  (986) 
nan

>  <Pocket>  (986) 
nan

>  <ATP_Site>  (986) 
nan

>  <Peripheral>  (986) 
nan

>  <Num_H_Atoms_ProtBoundConf>  (986) 
nan

>  <Num_Resolved_Atoms>  (986) 
nan

>  <Num_Not_Resolved_Atoms>  (986) 
nan

$$$$
CHEMBL3672501
     RDKit          3D

  0  0  0  0  0  0  0  0  0  0999 V3000
M  V30 BEGIN CTAB
M  V30 COUNTS 63 68 0 0 0
M  V30 BEGIN ATOM
M  V30 1 C 2.057383 0.173301 6.412173 0
M  V30 2 C 2.047066 -0.104711 4.950245 0
M  V30 3 N 3.093817 -0.340504 4.135766 0
M  V30 4 C 2.628609 -0.542322 2.884899 0
M  V30 5 C 3.252373 -0.823219 1.663080 0
M  V30 6 C 2.539118 -0.991026 0.491635 0
M  V30 7 C 3.163809 -1.284490 -0.789316 0
M  V30 8 C 3.171495 -2.417353 -1.571739 0
M  V30 9 C 3.844541 -2.445194 -2.773391 0
M  V30 10 C 4.535339 -1.319495 -3.222731 0
M  V30 11 C 4.539884 -0.174665 -2.453060 0
M  V30 12 C 3.863046 -0.165330 -1.257891 0
M  V30 13 C 1.169638 -0.868423 0.578979 0
M  V30 14 C 0.242048 -1.007993 -0.534512 0
M  V30 15 C -0.260128 0.256208 -0.868898 0
M  V30 16 C -1.179715 0.410601 -1.907128 0
M  V30 17 C -1.613174 -0.691387 -2.628567 0
M  V30 18 C -2.568978 -0.714166 -3.741937 0
M  V30 19 N -3.490636 -1.843725 -3.733739 0
M  V30 20 C -1.937792 -0.533750 -5.128215 0
M  V30 21 C -3.248741 0.171987 -5.501015 0
M  V30 22 C -3.329709 0.562390 -4.018456 0
M  V30 23 C -1.103977 -1.911757 -2.277387 0
M  V30 24 C -0.197017 -2.094108 -1.258875 0
M  V30 25 N 0.567618 -0.598231 1.753761 0
M  V30 26 N 1.283516 -0.443739 2.855891 0
M  V30 27 C 0.924282 -0.173356 4.132534 0
M  V30 28 C -0.460748 0.015144 4.562797 0
M  V30 29 C -0.854973 1.044065 5.406184 0
M  V30 30 C -2.194212 1.138823 5.756448 0
M  V30 31 C -3.141105 0.247629 5.295505 0
M  V30 32 F -4.450709 0.386072 5.671097 0
M  V30 33 C -2.715903 -0.773544 4.451372 0
M  V30 34 C -3.793966 -1.691883 3.997585 0
M  V30 35 O -4.139431 -2.560723 5.019506 0
M  V30 36 C -1.388214 -0.890233 4.087323 0
M  V30 37 H 1.098872 -0.105213 6.876162 0
M  V30 38 H 2.820945 -0.526595 6.845351 0
M  V30 39 H 2.405210 1.183311 6.648859 0
M  V30 40 H 4.338519 -0.910906 1.644216 0
M  V30 41 H 2.607747 -3.215910 -1.112386 0
M  V30 42 H 3.744607 -3.412559 -3.254697 0
M  V30 43 H 5.001715 -1.521735 -4.179878 0
M  V30 44 H 5.100562 0.614567 -2.901962 0
M  V30 45 H 3.958662 0.809679 -0.762237 0
M  V30 46 H -0.028993 1.221546 -0.409984 0
M  V30 47 H -1.603207 1.354227 -2.211801 0
M  V30 48 H -3.455155 -2.340170 -2.812411 0
M  V30 49 H -3.174389 -2.500542 -4.487252 0
M  V30 50 H -1.140646 0.227279 -5.053626 0
M  V30 51 H -1.734548 -1.452290 -5.675931 0
M  V30 52 H -3.149513 1.027508 -6.169992 0
M  V30 53 H -4.077555 -0.538319 -5.713511 0
M  V30 54 H -4.357061 0.584504 -3.624325 0
M  V30 55 H -2.753535 1.495316 -3.892899 0
M  V30 56 H -1.375790 -2.851085 -2.778462 0
M  V30 57 H 0.257960 -2.999016 -0.901403 0
M  V30 58 H -0.078824 1.717620 5.742462 0
M  V30 59 H -2.493555 1.952725 6.420892 0
M  V30 60 H -4.700282 -1.091439 3.742106 0
M  V30 61 H -3.484901 -2.269512 3.083087 0
M  V30 62 H -5.127806 -2.683384 5.092006 0
M  V30 63 H -1.108960 -1.703070 3.427985 0
M  V30 END ATOM
M  V30 BEGIN BOND
M  V30 1 1 1 2
M  V30 2 1 2 3
M  V30 3 2 3 4
M  V30 4 1 4 5
M  V30 5 2 5 6
M  V30 6 1 6 7
M  V30 7 2 7 8
M  V30 8 1 8 9
M  V30 9 2 9 10
M  V30 10 1 10 11
M  V30 11 2 11 12
M  V30 12 1 6 13
M  V30 13 1 13 14
M  V30 14 2 14 15
M  V30 15 1 15 16
M  V30 16 2 16 17
M  V30 17 1 17 18
M  V30 18 1 18 19
M  V30 19 1 18 20
M  V30 20 1 20 21
M  V30 21 1 21 22
M  V30 22 1 17 23
M  V30 23 2 23 24
M  V30 24 2 13 25
M  V30 25 1 25 26
M  V30 26 1 26 27
M  V30 27 1 27 28
M  V30 28 2 28 29
M  V30 29 1 29 30
M  V30 30 2 30 31
M  V30 31 1 31 32
M  V30 32 1 31 33
M  V30 33 1 33 34
M  V30 34 1 34 35
M  V30 35 2 33 36
M  V30 36 2 27 2
M  V30 37 1 36 28
M  V30 38 1 26 4
M  V30 39 1 12 7
M  V30 40 1 24 14
M  V30 41 1 22 18
M  V30 42 1 1 37
M  V30 43 1 1 38
M  V30 44 1 1 39
M  V30 45 1 5 40
M  V30 46 1 8 41
M  V30 47 1 9 42
M  V30 48 1 10 43
M  V30 49 1 11 44
M  V30 50 1 12 45
M  V30 51 1 15 46
M  V30 52 1 16 47
M  V30 53 1 19 48
M  V30 54 1 19 49
M  V30 55 1 20 50
M  V30 56 1 20 51
M  V30 57 1 21 52
M  V30 58 1 21 53
M  V30 59 1 22 54
M  V30 60 1 22 55
M  V30 61 1 23 56
M  V30 62 1 24 57
M  V30 63 1 29 58
M  V30 64 1 30 59
M  V30 65 1 34 60
M  V30 66 1 34 61
M  V30 67 1 35 62
M  V30 68 1 36 63
M  V30 END BOND
M  V30 END CTAB
M  END
>  <Dataset>  (987) 
ChEMBL_Kinases

>  <Ligand_Instance>  (987) 
nan

>  <PDB_ID>  (987) 
nan

>  <Standardized_SMILES>  (987) 
Cc1nc2cc(-c3ccccc3)c(-c3ccc(C4(N)CCC4)cc3)nn2c1-c1ccc(F)c(CO)c1

>  <Name>  (987) 
nan

>  <Pocket>  (987) 
nan

>  <ATP_Site>  (987) 
nan

>  <Peripheral>  (987) 
nan

>  <Num_H_Atoms_ProtBoundConf>  (987) 
nan

>  <Num_Resolved_Atoms>  (987) 
nan

>  <Num_Not_Resolved_Atoms>  (987) 
nan

$$$$
CHEMBL3672369
     RDKit          3D

  0  0  0  0  0  0  0  0  0  0999 V3000
M  V30 BEGIN CTAB
M  V30 COUNTS 52 55 0 0 0
M  V30 BEGIN ATOM
M  V30 1 C -3.653083 -3.898768 4.162664 0
M  V30 2 C -2.704197 -3.202432 3.239013 0
M  V30 3 C -2.307833 -1.918718 3.570864 0
M  V30 4 C -1.431884 -1.292230 2.710197 0
M  V30 5 O -1.084935 -0.011290 3.114184 0
M  V30 6 C -0.993033 -1.955913 1.574174 0
M  V30 7 C -0.090034 -1.078365 0.856039 0
M  V30 8 C 1.277723 -1.135129 1.182030 0
M  V30 9 C 2.101441 -0.252304 0.506904 0
M  V30 10 C 1.580972 0.638740 -0.443416 0
M  V30 11 C 2.485047 1.543657 -1.139872 0 CFG=1
M  V30 12 C 2.626741 0.974241 -2.568383 0
M  V30 13 C 2.175595 2.984583 -1.167981 0
M  V30 14 N 2.099946 3.646877 0.099790 0
M  V30 15 C 1.883442 5.096736 -0.077951 0
M  V30 16 C 0.991108 3.242776 0.942164 0
M  V30 17 C 0.230234 0.633840 -0.707306 0
M  V30 18 C -0.667211 -0.207927 -0.085857 0
M  V30 19 C -1.387407 -3.224733 1.250066 0
M  V30 20 C -2.258633 -3.869554 2.090364 0
M  V30 21 N -2.760209 -5.104021 1.950109 0
M  V30 22 C -2.354264 -5.764543 0.863867 0
M  V30 23 O -2.769975 -6.925018 0.648645 0
M  V30 24 C -1.482139 -5.135914 0.010299 0
M  V30 25 S -0.877011 -5.885999 -1.441324 0
M  V30 26 C 0.156721 -4.388768 -1.910684 0
M  V30 27 C -0.110137 -3.388511 -0.785834 0
M  V30 28 C -0.949889 -3.862124 0.132962 0
M  V30 29 H -3.827028 -3.271745 5.027942 0
M  V30 30 H -4.645570 -4.052423 3.668346 0
M  V30 31 H -3.278780 -4.885991 4.498616 0
M  V30 32 H -2.699754 -1.476065 4.476617 0
M  V30 33 H -0.250935 0.228744 3.637040 0
M  V30 34 H 1.587003 -1.852307 1.925125 0
M  V30 35 H 3.153449 -0.288069 0.749597 0
M  V30 36 H 3.548405 1.457123 -0.751381 0
M  V30 37 H 1.628770 0.666201 -2.927227 0
M  V30 38 H 3.139806 1.702061 -3.223451 0
M  V30 39 H 3.286111 0.067209 -2.524991 0
M  V30 40 H 3.061375 3.473800 -1.684621 0
M  V30 41 H 1.333938 3.258727 -1.847780 0
M  V30 42 H 1.588682 5.510973 0.910033 0
M  V30 43 H 2.745507 5.587997 -0.529086 0
M  V30 44 H 1.007690 5.275299 -0.746818 0
M  V30 45 H 0.017890 3.237794 0.454200 0
M  V30 46 H 0.893101 3.990265 1.787614 0
M  V30 47 H 1.267920 2.303708 1.446762 0
M  V30 48 H -0.156203 1.319763 -1.435602 0
M  V30 49 H -1.731579 -0.252966 -0.254376 0
M  V30 50 H -3.412595 -5.572355 2.588896 0
M  V30 51 H 0.924359 -4.049070 -2.817900 0
M  V30 52 H 0.455690 -2.534406 -1.019593 0
M  V30 END ATOM
M  V30 BEGIN BOND
M  V30 1 1 1 2
M  V30 2 2 2 3
M  V30 3 1 3 4
M  V30 4 1 4 5
M  V30 5 2 4 6
M  V30 6 1 6 7
M  V30 7 2 7 8
M  V30 8 1 8 9
M  V30 9 2 9 10
M  V30 10 1 10 11
M  V30 11 1 11 12
M  V30 12 1 11 13
M  V30 13 1 13 14
M  V30 14 1 14 15
M  V30 15 1 14 16
M  V30 16 1 10 17
M  V30 17 2 17 18
M  V30 18 1 6 19
M  V30 19 2 19 20
M  V30 20 1 20 21
M  V30 21 1 21 22
M  V30 22 2 22 23
M  V30 23 1 22 24
M  V30 24 1 24 25
M  V30 25 1 25 26
M  V30 26 2 26 27
M  V30 27 1 27 28
M  V30 28 1 20 2
M  V30 29 2 28 24
M  V30 30 1 18 7
M  V30 31 1 28 19
M  V30 32 1 1 29
M  V30 33 1 1 30
M  V30 34 1 1 31
M  V30 35 1 3 32
M  V30 36 1 5 33
M  V30 37 1 8 34
M  V30 38 1 9 35
M  V30 39 1 11 36 CFG=1
M  V30 40 1 12 37
M  V30 41 1 12 38
M  V30 42 1 12 39
M  V30 43 1 13 40
M  V30 44 1 13 41
M  V30 45 1 15 42
M  V30 46 1 15 43
M  V30 47 1 15 44
M  V30 48 1 16 45
M  V30 49 1 16 46
M  V30 50 1 16 47
M  V30 51 1 17 48
M  V30 52 1 18 49
M  V30 53 1 21 50
M  V30 54 1 26 51
M  V30 55 1 27 52
M  V30 END BOND
M  V30 END CTAB
M  END
>  <Dataset>  (988) 
ChEMBL_Kinases

>  <Ligand_Instance>  (988) 
nan

>  <PDB_ID>  (988) 
nan

>  <Standardized_SMILES>  (988) 
Cc1cc(O)c(-c2ccc([C@@H](C)CN(C)C)cc2)c2c1[nH]c(=O)c1sccc12

>  <Name>  (988) 
nan

>  <Pocket>  (988) 
nan

>  <ATP_Site>  (988) 
nan

>  <Peripheral>  (988) 
nan

>  <Num_H_Atoms_ProtBoundConf>  (988) 
nan

>  <Num_Resolved_Atoms>  (988) 
nan

>  <Num_Not_Resolved_Atoms>  (988) 
nan

$$$$
CHEMBL3672271
     RDKit          3D

  0  0  0  0  0  0  0  0  0  0999 V3000
M  V30 BEGIN CTAB
M  V30 COUNTS 43 46 0 0 0
M  V30 BEGIN ATOM
M  V30 1 C 0.697428 -5.433639 2.891487 0
M  V30 2 C 0.659381 -4.052711 2.339624 0
M  V30 3 C 1.877131 -3.407506 2.092910 0
M  V30 4 C 1.831588 -2.107004 1.574916 0
M  V30 5 O 3.089457 -1.582736 1.376679 0
M  V30 6 C 0.598476 -1.521366 1.331602 0
M  V30 7 C 0.837990 -0.192450 0.803092 0
M  V30 8 C 0.961366 -0.075855 -0.591287 0
M  V30 9 C 1.227122 1.198713 -1.047805 0
M  V30 10 C 1.356841 2.259655 -0.178553 0
M  V30 11 C 1.642765 3.597732 -0.752170 0 CFG=1
M  V30 12 C 3.065067 3.613176 -1.275890 0
M  V30 13 N 0.757512 3.763852 -1.884806 0
M  V30 14 C 1.228127 2.100976 1.183938 0
M  V30 15 C 0.961157 0.855388 1.729140 0
M  V30 16 C -0.582108 -2.167108 1.578934 0
M  V30 17 C -0.573822 -3.441079 2.085955 0
M  V30 18 N -1.639863 -4.173762 2.368983 0
M  V30 19 C -2.850896 -3.671076 2.159514 0
M  V30 20 O -3.977891 -4.190161 2.357071 0
M  V30 21 C -2.851337 -2.338094 1.629376 0
M  V30 22 S -4.323650 -1.332131 1.219722 0
M  V30 23 C -3.309078 0.112555 0.653822 0
M  V30 24 C -2.022904 -0.336495 0.841143 0
M  V30 25 C -1.768919 -1.549981 1.324334 0
M  V30 26 H 0.051455 -5.436341 3.809203 0
M  V30 27 H 0.359635 -6.163198 2.147584 0
M  V30 28 H 1.729597 -5.672428 3.187992 0
M  V30 29 H 2.783035 -3.949659 2.316190 0
M  V30 30 H 3.347904 -0.700302 1.785884 0
M  V30 31 H 0.844248 -0.961666 -1.196986 0
M  V30 32 H 1.329773 1.332509 -2.116333 0
M  V30 33 H 1.552541 4.402689 0.004726 0
M  V30 34 H 3.790730 3.597314 -0.432221 0
M  V30 35 H 3.200644 2.788467 -1.976523 0
M  V30 36 H 3.260350 4.547317 -1.836664 0
M  V30 37 H 1.241910 3.341636 -2.731308 0
M  V30 38 H 0.576514 4.748277 -2.145256 0
M  V30 39 H 1.326074 2.919348 1.883299 0
M  V30 40 H 0.842803 0.627800 2.778349 0
M  V30 41 H -1.659563 -5.138938 2.752168 0
M  V30 42 H -3.994970 0.887892 0.341356 0
M  V30 43 H -1.498654 0.521009 0.505602 0
M  V30 END ATOM
M  V30 BEGIN BOND
M  V30 1 1 1 2
M  V30 2 2 2 3
M  V30 3 1 3 4
M  V30 4 1 4 5
M  V30 5 2 4 6
M  V30 6 1 6 7
M  V30 7 2 7 8
M  V30 8 1 8 9
M  V30 9 2 9 10
M  V30 10 1 10 11
M  V30 11 1 11 12
M  V30 12 1 11 13
M  V30 13 1 10 14
M  V30 14 2 14 15
M  V30 15 1 6 16
M  V30 16 2 16 17
M  V30 17 1 17 18
M  V30 18 1 18 19
M  V30 19 2 19 20
M  V30 20 1 19 21
M  V30 21 1 21 22
M  V30 22 1 22 23
M  V30 23 2 23 24
M  V30 24 1 24 25
M  V30 25 1 17 2
M  V30 26 2 25 21
M  V30 27 1 15 7
M  V30 28 1 25 16
M  V30 29 1 1 26
M  V30 30 1 1 27
M  V30 31 1 1 28
M  V30 32 1 3 29
M  V30 33 1 5 30
M  V30 34 1 8 31
M  V30 35 1 9 32
M  V30 36 1 11 33 CFG=1
M  V30 37 1 12 34
M  V30 38 1 12 35
M  V30 39 1 12 36
M  V30 40 1 13 37
M  V30 41 1 13 38
M  V30 42 1 14 39
M  V30 43 1 15 40
M  V30 44 1 18 41
M  V30 45 1 23 42
M  V30 46 1 24 43
M  V30 END BOND
M  V30 END CTAB
M  END
>  <Dataset>  (989) 
ChEMBL_Kinases

>  <Ligand_Instance>  (989) 
nan

>  <PDB_ID>  (989) 
nan

>  <Standardized_SMILES>  (989) 
Cc1cc(O)c(-c2ccc([C@@H](C)N)cc2)c2c1[nH]c(=O)c1sccc12

>  <Name>  (989) 
nan

>  <Pocket>  (989) 
nan

>  <ATP_Site>  (989) 
nan

>  <Peripheral>  (989) 
nan

>  <Num_H_Atoms_ProtBoundConf>  (989) 
nan

>  <Num_Resolved_Atoms>  (989) 
nan

>  <Num_Not_Resolved_Atoms>  (989) 
nan

$$$$
CHEMBL3672043
     RDKit          3D

  0  0  0  0  0  0  0  0  0  0999 V3000
M  V30 BEGIN CTAB
M  V30 COUNTS 65 71 0 0 0
M  V30 BEGIN ATOM
M  V30 1 C -0.206149 -2.489201 6.794153 0
M  V30 2 N -0.022492 -1.071432 6.931810 0
M  V30 3 C 0.183725 -0.274017 5.792667 0
M  V30 4 N 0.223674 -0.750588 4.546045 0
M  V30 5 C 0.435130 0.241923 3.663478 0
M  V30 6 N 0.556118 0.288049 2.309266 0
M  V30 7 C 0.773740 1.472918 1.666353 0
M  V30 8 C 0.866463 1.253657 0.228100 0
M  V30 9 C 0.037574 1.755905 -0.754694 0
M  V30 10 C 0.264037 1.444677 -2.080672 0
M  V30 11 C 1.302523 0.635473 -2.498286 0
M  V30 12 C 1.569282 0.285257 -3.919624 0
M  V30 13 N 0.834271 -0.888875 -4.247116 0
M  V30 14 C 1.095213 -2.089991 -3.488007 0
M  V30 15 C -0.336073 -2.508901 -3.864276 0
M  V30 16 C -0.984672 -3.161998 -2.696724 0
M  V30 17 N -0.895316 -2.534500 -1.486978 0
M  V30 18 N -1.524951 -3.257879 -0.586064 0
M  V30 19 C -2.028340 -4.351198 -1.178245 0
M  V30 20 C -2.787956 -5.371182 -0.470328 0
M  V30 21 C -3.307317 -6.496395 -1.072032 0
M  V30 22 C -4.030126 -7.476811 -0.422090 0
M  V30 23 C -4.214499 -7.252893 0.947207 0
M  V30 24 C -3.695063 -6.125925 1.552979 0
M  V30 25 N -3.000493 -5.213409 0.853579 0
M  V30 26 N -1.699907 -4.300898 -2.481452 0
M  V30 27 C -0.534493 -0.984846 -3.863518 0
M  V30 28 C 2.142232 0.127649 -1.498299 0
M  V30 29 C 1.935350 0.427305 -0.145209 0
M  V30 30 C 0.869059 2.625332 2.415513 0
M  V30 31 C 1.100990 3.810038 1.598763 0
M  V30 32 C 0.073242 4.737016 1.739266 0
M  V30 33 C 0.141240 5.935290 1.022570 0
M  V30 34 C 1.222384 6.193448 0.182093 0
M  V30 35 C 2.227259 5.255007 0.062605 0
M  V30 36 C 2.167769 4.070361 0.766159 0
M  V30 37 C 0.743748 2.556361 3.783509 0
M  V30 38 N 0.527924 1.363238 4.391482 0
M  V30 39 N 0.376761 1.050740 5.668041 0
M  V30 40 H 0.648055 -2.961413 6.267581 0
M  V30 41 H -0.333701 -2.978124 7.795236 0
M  V30 42 H -1.131159 -2.686764 6.220835 0
M  V30 43 H -0.042257 -0.633695 7.878483 0
M  V30 44 H -0.751349 2.373724 -0.410155 0
M  V30 45 H -0.398712 1.850402 -2.827694 0
M  V30 46 H 2.665567 0.166722 -4.018638 0
M  V30 47 H 1.269921 1.174681 -4.507332 0
M  V30 48 H 1.816018 -2.774229 -3.994738 0
M  V30 49 H 1.236810 -1.972978 -2.410458 0
M  V30 50 H -0.419259 -3.003429 -4.825470 0
M  V30 51 H -1.574019 -2.944411 0.426950 0
M  V30 52 H -3.137886 -6.628990 -2.145188 0
M  V30 53 H -4.393664 -8.319147 -0.981808 0
M  V30 54 H -4.779976 -8.008805 1.483262 0
M  V30 55 H -3.851288 -5.972171 2.623018 0
M  V30 56 H -1.260622 -0.747722 -4.692342 0
M  V30 57 H -0.847137 -0.591154 -2.886582 0
M  V30 58 H 2.993877 -0.518600 -1.720344 0
M  V30 59 H 2.626674 -0.000814 0.586977 0
M  V30 60 H -0.808317 4.621292 2.371078 0
M  V30 61 H -0.655887 6.671670 1.121928 0
M  V30 62 H 1.229815 7.134385 -0.350632 0
M  V30 63 H 3.078000 5.435829 -0.585780 0
M  V30 64 H 2.908977 3.289034 0.727983 0
M  V30 65 H 0.828595 3.488196 4.296597 0
M  V30 END ATOM
M  V30 BEGIN BOND
M  V30 1 1 1 2
M  V30 2 1 2 3
M  V30 3 1 3 4
M  V30 4 2 4 5
M  V30 5 1 5 6
M  V30 6 2 6 7
M  V30 7 1 7 8
M  V30 8 2 8 9
M  V30 9 1 9 10
M  V30 10 2 10 11
M  V30 11 1 11 12
M  V30 12 1 12 13
M  V30 13 1 13 14
M  V30 14 1 14 15
M  V30 15 1 15 16
M  V30 16 2 16 17
M  V30 17 1 17 18
M  V30 18 1 18 19
M  V30 19 1 19 20
M  V30 20 2 20 21
M  V30 21 1 21 22
M  V30 22 2 22 23
M  V30 23 1 23 24
M  V30 24 2 24 25
M  V30 25 2 19 26
M  V30 26 1 15 27
M  V30 27 1 11 28
M  V30 28 2 28 29
M  V30 29 1 7 30
M  V30 30 1 30 31
M  V30 31 2 31 32
M  V30 32 1 32 33
M  V30 33 2 33 34
M  V30 34 1 34 35
M  V30 35 2 35 36
M  V30 36 2 30 37
M  V30 37 1 37 38
M  V30 38 1 38 39
M  V30 39 2 39 3
M  V30 40 1 38 5
M  V30 41 1 29 8
M  V30 42 1 36 31
M  V30 43 1 27 13
M  V30 44 1 26 16
M  V30 45 1 25 20
M  V30 46 1 1 40
M  V30 47 1 1 41
M  V30 48 1 1 42
M  V30 49 1 2 43
M  V30 50 1 9 44
M  V30 51 1 10 45
M  V30 52 1 12 46
M  V30 53 1 12 47
M  V30 54 1 14 48
M  V30 55 1 14 49
M  V30 56 1 15 50
M  V30 57 1 18 51
M  V30 58 1 21 52
M  V30 59 1 22 53
M  V30 60 1 23 54
M  V30 61 1 24 55
M  V30 62 1 27 56
M  V30 63 1 27 57
M  V30 64 1 28 58
M  V30 65 1 29 59
M  V30 66 1 32 60
M  V30 67 1 33 61
M  V30 68 1 34 62
M  V30 69 1 35 63
M  V30 70 1 36 64
M  V30 71 1 37 65
M  V30 END BOND
M  V30 END CTAB
M  END
>  <Dataset>  (990) 
ChEMBL_Kinases

>  <Ligand_Instance>  (990) 
nan

>  <PDB_ID>  (990) 
nan

>  <Standardized_SMILES>  (990) 
CNc1nc2nc(-c3ccc(CN4CC(c5n[nH]c(-c6ccccn6)n5)C4)cc3)c(-c3ccccc3)cn2n1

>  <Name>  (990) 
nan

>  <Pocket>  (990) 
nan

>  <ATP_Site>  (990) 
nan

>  <Peripheral>  (990) 
nan

>  <Num_H_Atoms_ProtBoundConf>  (990) 
nan

>  <Num_Resolved_Atoms>  (990) 
nan

>  <Num_Not_Resolved_Atoms>  (990) 
nan

$$$$
CHEMBL3672017
     RDKit          3D

  0  0  0  0  0  0  0  0  0  0999 V3000
M  V30 BEGIN CTAB
M  V30 COUNTS 68 74 0 0 0
M  V30 BEGIN ATOM
M  V30 1 F 8.068415 -0.711980 5.428535 0
M  V30 2 C 7.363732 -1.366636 4.448453 0
M  V30 3 F 6.304400 -2.099516 4.952855 0
M  V30 4 F 8.215140 -2.230271 3.784472 0
M  V30 5 C 6.839677 -0.391222 3.461154 0
M  V30 6 C 7.676124 0.389442 2.685755 0
M  V30 7 C 7.133838 1.290556 1.766291 0
M  V30 8 C 5.769729 1.430780 1.601934 0
M  V30 9 N 4.987886 2.206228 0.800708 0
M  V30 10 C 3.695764 1.936914 1.048880 0
M  V30 11 C 2.412653 2.442716 0.495792 0
M  V30 12 C 1.624840 1.222064 0.073987 0
M  V30 13 C 0.268869 1.600428 -0.408461 0
M  V30 14 N -0.467252 2.256390 0.614126 0
M  V30 15 C -1.019384 1.440178 1.643553 0
M  V30 16 C -1.918798 0.410754 1.129606 0
M  V30 17 C -3.260998 0.507368 0.851622 0
M  V30 18 C -3.971417 -0.569282 0.383743 0
M  V30 19 C -3.378704 -1.796754 0.170082 0
M  V30 20 C -4.013727 -3.013461 -0.330678 0
M  V30 21 N -4.304659 -3.837814 0.712894 0
M  V30 22 C -4.902381 -5.030677 0.555490 0
M  V30 23 C -5.321213 -6.067456 1.353576 0
M  V30 24 C -5.874772 -7.035275 0.572738 0
M  V30 25 N -5.814975 -6.628686 -0.715613 0
M  V30 26 N -5.227542 -5.422302 -0.707332 0
M  V30 27 C -4.958894 -4.641044 -1.765906 0
M  V30 28 C -4.342088 -3.409388 -1.611355 0
M  V30 29 C -3.957565 -2.432679 -2.603257 0
M  V30 30 C -2.931638 -2.966426 -3.398045 0
M  V30 31 C -2.365899 -2.221999 -4.440375 0
M  V30 32 C -2.800323 -0.940069 -4.717634 0
M  V30 33 C -3.808601 -0.444644 -3.920509 0
M  V30 34 C -4.381458 -1.152580 -2.891974 0
M  V30 35 C -2.016961 -1.936770 0.440715 0
M  V30 36 C -1.321385 -0.833999 0.912052 0
M  V30 37 C 0.205772 3.420758 1.153265 0
M  V30 38 C 1.613611 3.098767 1.602487 0
M  V30 39 N 3.666388 0.985383 2.013153 0
M  V30 40 C 4.915829 0.670582 2.355958 0
M  V30 41 C 5.489826 -0.216718 3.262611 0
M  V30 42 H 8.759447 0.316133 2.778086 0
M  V30 43 H 7.785073 1.918168 1.141448 0
M  V30 44 H 2.558418 3.138047 -0.356072 0
M  V30 45 H 1.498583 0.615446 0.999493 0
M  V30 46 H 2.159067 0.615312 -0.686592 0
M  V30 47 H 0.294609 2.273291 -1.296131 0
M  V30 48 H -0.255862 0.677696 -0.694617 0
M  V30 49 H -0.260148 1.029289 2.351003 0
M  V30 50 H -1.643629 2.116019 2.293472 0
M  V30 51 H -3.707992 1.460855 1.020483 0
M  V30 52 H -5.026483 -0.516992 0.157010 0
M  V30 53 H -5.180020 -6.012517 2.427584 0
M  V30 54 H -6.266592 -7.934793 1.005550 0
M  V30 55 H -5.180327 -4.868054 -2.809832 0
M  V30 56 H -2.462189 -3.958567 -3.328210 0
M  V30 57 H -1.575111 -2.587049 -5.080195 0
M  V30 58 H -2.416596 -0.307835 -5.497462 0
M  V30 59 H -4.183007 0.535828 -4.085112 0
M  V30 60 H -5.171180 -0.854381 -2.220376 0
M  V30 61 H -1.486493 -2.891469 0.291392 0
M  V30 62 H -0.251322 -1.008962 1.107787 0
M  V30 63 H -0.361232 3.741530 2.059186 0
M  V30 64 H 0.249239 4.277527 0.479787 0
M  V30 65 H 2.097227 4.058757 1.873193 0
M  V30 66 H 1.611845 2.406246 2.472616 0
M  V30 67 H 2.873049 0.499667 2.491708 0
M  V30 68 H 4.832542 -0.831717 3.874222 0
M  V30 END ATOM
M  V30 BEGIN BOND
M  V30 1 1 1 2
M  V30 2 1 2 3
M  V30 3 1 2 4
M  V30 4 1 2 5
M  V30 5 2 5 6
M  V30 6 1 6 7
M  V30 7 2 7 8
M  V30 8 1 8 9
M  V30 9 2 9 10
M  V30 10 1 10 11
M  V30 11 1 11 12
M  V30 12 1 12 13
M  V30 13 1 13 14
M  V30 14 1 14 15
M  V30 15 1 15 16
M  V30 16 2 16 17
M  V30 17 1 17 18
M  V30 18 2 18 19
M  V30 19 1 19 20
M  V30 20 2 20 21
M  V30 21 1 21 22
M  V30 22 2 22 23
M  V30 23 1 23 24
M  V30 24 2 24 25
M  V30 25 1 25 26
M  V30 26 1 26 27
M  V30 27 2 27 28
M  V30 28 1 28 29
M  V30 29 2 29 30
M  V30 30 1 30 31
M  V30 31 2 31 32
M  V30 32 1 32 33
M  V30 33 2 33 34
M  V30 34 1 19 35
M  V30 35 2 35 36
M  V30 36 1 14 37
M  V30 37 1 37 38
M  V30 38 1 10 39
M  V30 39 1 39 40
M  V30 40 2 40 41
M  V30 41 1 41 5
M  V30 42 1 40 8
M  V30 43 1 38 11
M  V30 44 1 36 16
M  V30 45 1 28 20
M  V30 46 1 34 29
M  V30 47 1 26 22
M  V30 48 1 6 42
M  V30 49 1 7 43
M  V30 50 1 11 44
M  V30 51 1 12 45
M  V30 52 1 12 46
M  V30 53 1 13 47
M  V30 54 1 13 48
M  V30 55 1 15 49
M  V30 56 1 15 50
M  V30 57 1 17 51
M  V30 58 1 18 52
M  V30 59 1 23 53
M  V30 60 1 24 54
M  V30 61 1 27 55
M  V30 62 1 30 56
M  V30 63 1 31 57
M  V30 64 1 32 58
M  V30 65 1 33 59
M  V30 66 1 34 60
M  V30 67 1 35 61
M  V30 68 1 36 62
M  V30 69 1 37 63
M  V30 70 1 37 64
M  V30 71 1 38 65
M  V30 72 1 38 66
M  V30 73 1 39 67
M  V30 74 1 41 68
M  V30 END BOND
M  V30 END CTAB
M  END
>  <Dataset>  (991) 
ChEMBL_Kinases

>  <Ligand_Instance>  (991) 
nan

>  <PDB_ID>  (991) 
nan

>  <Standardized_SMILES>  (991) 
FC(F)(F)c1ccc2nc(C3CCN(Cc4ccc(-c5nc6ccnn6cc5-c5ccccc5)cc4)CC3)[nH]c2c1

>  <Name>  (991) 
nan

>  <Pocket>  (991) 
nan

>  <ATP_Site>  (991) 
nan

>  <Peripheral>  (991) 
nan

>  <Num_H_Atoms_ProtBoundConf>  (991) 
nan

>  <Num_Resolved_Atoms>  (991) 
nan

>  <Num_Not_Resolved_Atoms>  (991) 
nan

$$$$
CHEMBL3671128
     RDKit          3D

  0  0  0  0  0  0  0  0  0  0999 V3000
M  V30 BEGIN CTAB
M  V30 COUNTS 63 66 0 0 0
M  V30 BEGIN ATOM
M  V30 1 C 3.780280 1.480730 7.098193 0
M  V30 2 O 2.505806 1.885871 6.799609 0
M  V30 3 C 2.454014 3.119602 6.205610 0
M  V30 4 C 3.189063 3.218090 4.915342 0
M  V30 5 C 4.520011 3.635439 5.024461 0
M  V30 6 C 5.279026 3.764425 3.879903 0
M  V30 7 C 4.705811 3.476158 2.632770 0
M  V30 8 C 3.403450 3.067489 2.532692 0
M  V30 9 C 2.845170 2.785317 1.219530 0
M  V30 10 C 3.585341 2.941131 0.073379 0
M  V30 11 N 3.052831 2.687206 -1.124986 0
M  V30 12 C 1.787755 2.270944 -1.305059 0
M  V30 13 C 1.219760 1.996595 -2.551936 0
M  V30 14 C -0.108549 1.568167 -2.475775 0
M  V30 15 C -0.857392 1.406689 -1.325163 0
M  V30 16 N -2.137657 0.948749 -1.720436 0
M  V30 17 C -2.345589 -0.475293 -1.840336 0
M  V30 18 O -1.346104 -1.216187 -1.538962 0
M  V30 19 N -3.572279 -1.073891 -2.268329 0
M  V30 20 C -3.574347 -2.559838 -2.329595 0 CFG=2
M  V30 21 C -3.080863 -2.829369 -3.747418 0
M  V30 22 C -4.868624 -3.104471 -1.998633 0
M  V30 23 C -5.203391 -4.520408 -1.964525 0
M  V30 24 C -4.589136 -5.443751 -0.973835 0
M  V30 25 C -3.159414 -5.611068 -0.902161 0
M  V30 26 C -2.517438 -6.497376 -1.764678 0
M  V30 27 C -1.147727 -6.696431 -1.665734 0
M  V30 28 C -0.367773 -6.037556 -0.726175 0
M  V30 29 C -0.946928 -5.153293 0.149743 0
M  V30 30 C -2.312774 -4.980597 0.022797 0
M  V30 31 N -0.222789 1.698672 -0.166137 0
M  V30 32 C 1.055977 2.118020 -0.145776 0
M  V30 33 N 1.543484 2.361990 1.114741 0
M  V30 34 C 2.638617 2.936798 3.670669 0
M  V30 35 H 3.684039 0.471600 7.576531 0
M  V30 36 H 4.364676 1.430323 6.162215 0
M  V30 37 H 4.194257 2.141922 7.869982 0
M  V30 38 H 1.369261 3.360890 6.023642 0
M  V30 39 H 2.808033 3.943601 6.863334 0
M  V30 40 H 4.980480 3.861422 5.984968 0
M  V30 41 H 6.304127 4.084167 3.988394 0
M  V30 42 H 5.387888 3.612646 1.832262 0
M  V30 43 H 4.602251 3.262654 0.041560 0
M  V30 44 H 1.845068 2.143344 -3.412177 0
M  V30 45 H -0.404545 1.391598 -3.531298 0
M  V30 46 H -2.931912 1.557779 -1.950257 0
M  V30 47 H -4.320483 -0.377678 -2.486021 0
M  V30 48 H -2.749972 -2.876009 -1.698408 0
M  V30 49 H -3.906226 -3.202269 -4.399169 0
M  V30 50 H -2.308737 -3.622260 -3.766484 0
M  V30 51 H -2.673308 -1.966066 -4.262010 0
M  V30 52 H -5.215456 -2.691295 -0.990590 0
M  V30 53 H -5.638891 -2.603510 -2.677176 0
M  V30 54 H -6.313161 -4.576059 -1.700675 0
M  V30 55 H -5.253435 -5.001661 -2.994857 0
M  V30 56 H -4.990362 -5.141213 0.052594 0
M  V30 57 H -5.073236 -6.458916 -1.122917 0
M  V30 58 H -3.019025 -7.067432 -2.539828 0
M  V30 59 H -0.572632 -7.365056 -2.297318 0
M  V30 60 H 0.701077 -6.166707 -0.621368 0
M  V30 61 H -0.472630 -4.568711 0.935970 0
M  V30 62 H -2.856053 -4.297955 0.684488 0
M  V30 63 H 1.595821 2.619730 3.651115 0
M  V30 END ATOM
M  V30 BEGIN BOND
M  V30 1 1 1 2
M  V30 2 1 2 3
M  V30 3 1 3 4
M  V30 4 2 4 5
M  V30 5 1 5 6
M  V30 6 2 6 7
M  V30 7 1 7 8
M  V30 8 1 8 9
M  V30 9 2 9 10
M  V30 10 1 10 11
M  V30 11 2 11 12
M  V30 12 1 12 13
M  V30 13 2 13 14
M  V30 14 1 14 15
M  V30 15 1 15 16
M  V30 16 1 16 17
M  V30 17 2 17 18
M  V30 18 1 17 19
M  V30 19 1 19 20
M  V30 20 1 20 21
M  V30 21 1 20 22
M  V30 22 1 22 23
M  V30 23 1 23 24
M  V30 24 1 24 25
M  V30 25 2 25 26
M  V30 26 1 26 27
M  V30 27 2 27 28
M  V30 28 1 28 29
M  V30 29 2 29 30
M  V30 30 2 15 31
M  V30 31 1 31 32
M  V30 32 2 32 33
M  V30 33 2 8 34
M  V30 34 1 34 4
M  V30 35 1 33 9
M  V30 36 1 32 12
M  V30 37 1 30 25
M  V30 38 1 1 35
M  V30 39 1 1 36
M  V30 40 1 1 37
M  V30 41 1 3 38
M  V30 42 1 3 39
M  V30 43 1 5 40
M  V30 44 1 6 41
M  V30 45 1 7 42
M  V30 46 1 10 43
M  V30 47 1 13 44
M  V30 48 1 14 45
M  V30 49 1 16 46
M  V30 50 1 19 47
M  V30 51 1 20 48 CFG=1
M  V30 52 1 21 49
M  V30 53 1 21 50
M  V30 54 1 21 51
M  V30 55 1 22 52
M  V30 56 1 22 53
M  V30 57 1 23 54
M  V30 58 1 23 55
M  V30 59 1 24 56
M  V30 60 1 24 57
M  V30 61 1 26 58
M  V30 62 1 27 59
M  V30 63 1 28 60
M  V30 64 1 29 61
M  V30 65 1 30 62
M  V30 66 1 34 63
M  V30 END BOND
M  V30 END CTAB
M  END
>  <Dataset>  (992) 
ChEMBL_Kinases

>  <Ligand_Instance>  (992) 
nan

>  <PDB_ID>  (992) 
nan

>  <Standardized_SMILES>  (992) 
COCc1cccc(-c2cnc3ccc(NC(=O)N[C@H](C)CCCc4ccccc4)nc3n2)c1

>  <Name>  (992) 
nan

>  <Pocket>  (992) 
nan

>  <ATP_Site>  (992) 
nan

>  <Peripheral>  (992) 
nan

>  <Num_H_Atoms_ProtBoundConf>  (992) 
nan

>  <Num_Resolved_Atoms>  (992) 
nan

>  <Num_Not_Resolved_Atoms>  (992) 
nan

$$$$
CHEMBL3671127
     RDKit          3D

  0  0  0  0  0  0  0  0  0  0999 V3000
M  V30 BEGIN CTAB
M  V30 COUNTS 73 77 0 0 0
M  V30 BEGIN ATOM
M  V30 1 O 3.664628 0.621300 1.546322 0
M  V30 2 C 3.004763 1.658181 1.837733 0
M  V30 3 N 3.404639 2.484107 2.925164 0
M  V30 4 C 4.562017 2.146369 3.706476 0
M  V30 5 C 5.827108 2.081426 2.910799 0
M  V30 6 C 6.215696 3.344576 2.220435 0
M  V30 7 C 6.437384 4.499292 3.171715 0
M  V30 8 C 6.824768 5.732181 2.407083 0
M  V30 9 C 8.142048 6.016303 2.140463 0
M  V30 10 C 8.543358 7.124678 1.450034 0
M  V30 11 C 7.585015 8.028521 0.981883 0
M  V30 12 C 6.258227 7.738360 1.252892 0
M  V30 13 C 5.874872 6.615401 1.950806 0
M  V30 14 N 1.831906 2.078441 1.119225 0
M  V30 15 C 1.432872 1.260158 0.028715 0
M  V30 16 C 2.002169 1.634946 -1.187330 0
M  V30 17 C 1.702525 0.925021 -2.337489 0
M  V30 18 C 0.835548 -0.144300 -2.225897 0
M  V30 19 N 0.515330 -0.870350 -3.336325 0
M  V30 20 C -0.336412 -1.911043 -3.188292 0
M  V30 21 C -0.903190 -2.287752 -1.988924 0
M  V30 22 C -1.818368 -3.412652 -1.852725 0
M  V30 23 C -2.294376 -3.655830 -0.581106 0
M  V30 24 C -3.165104 -4.693028 -0.335545 0
M  V30 25 C -3.614823 -5.543713 -1.317671 0
M  V30 26 O -4.439076 -6.617689 -1.419904 0
M  V30 27 C -5.167752 -7.237987 -0.424722 0
M  V30 28 C -6.214067 -6.421671 0.265069 0
M  V30 29 N -7.233161 -5.922681 -0.642794 0
M  V30 30 C -8.227347 -5.128304 0.094323 0
M  V30 31 C -9.039164 -4.369770 -0.913496 0
M  V30 32 O -9.096246 -5.144142 -2.083776 0
M  V30 33 C -9.291500 -6.493669 -1.720916 0
M  V30 34 C -7.955140 -7.038655 -1.226752 0
M  V30 35 C -3.123618 -5.287561 -2.611042 0
M  V30 36 C -2.233948 -4.230879 -2.871566 0
M  V30 37 N -0.576926 -1.563006 -0.909944 0
M  V30 38 C 0.276427 -0.508554 -1.017389 0
M  V30 39 N 0.578777 0.198948 0.111838 0
M  V30 40 H 2.862750 3.354650 3.176411 0
M  V30 41 H 4.378591 1.134339 4.128464 0
M  V30 42 H 4.673933 2.819699 4.580215 0
M  V30 43 H 5.822256 1.223082 2.212074 0
M  V30 44 H 6.661204 1.857234 3.640008 0
M  V30 45 H 5.503684 3.654932 1.429479 0
M  V30 46 H 7.165955 3.144846 1.682199 0
M  V30 47 H 7.242934 4.257438 3.901088 0
M  V30 48 H 5.517698 4.722809 3.724038 0
M  V30 49 H 8.933037 5.359129 2.474995 0
M  V30 50 H 9.573533 7.393707 1.213695 0
M  V30 51 H 7.872765 8.908950 0.436114 0
M  V30 52 H 5.539786 8.458311 0.876841 0
M  V30 53 H 4.843487 6.404985 2.153114 0
M  V30 54 H 1.305615 2.933993 1.378058 0
M  V30 55 H 2.679508 2.461159 -1.307448 0
M  V30 56 H 2.141810 1.210651 -3.290937 0
M  V30 57 H -0.548131 -2.440149 -4.091301 0
M  V30 58 H -2.026318 -3.074552 0.265273 0
M  V30 59 H -3.572733 -4.956523 0.616591 0
M  V30 60 H -5.559830 -8.221979 -0.775597 0
M  V30 61 H -4.429263 -7.517133 0.393941 0
M  V30 62 H -5.758235 -5.647401 0.886210 0
M  V30 63 H -6.739617 -7.146218 0.964494 0
M  V30 64 H -8.842040 -5.822600 0.697356 0
M  V30 65 H -7.716450 -4.427000 0.789248 0
M  V30 66 H -10.065930 -4.151721 -0.536770 0
M  V30 67 H -8.539248 -3.411593 -1.123308 0
M  V30 68 H -9.666093 -7.070586 -2.590862 0
M  V30 69 H -10.076808 -6.543362 -0.938647 0
M  V30 70 H -8.210957 -7.813576 -0.472295 0
M  V30 71 H -7.370900 -7.473412 -2.062508 0
M  V30 72 H -3.322416 -5.808294 -3.555218 0
M  V30 73 H -1.822706 -3.984416 -3.839255 0
M  V30 END ATOM
M  V30 BEGIN BOND
M  V30 1 2 1 2
M  V30 2 1 2 3
M  V30 3 1 3 4
M  V30 4 1 4 5
M  V30 5 1 5 6
M  V30 6 1 6 7
M  V30 7 1 7 8
M  V30 8 2 8 9
M  V30 9 1 9 10
M  V30 10 2 10 11
M  V30 11 1 11 12
M  V30 12 2 12 13
M  V30 13 1 2 14
M  V30 14 1 14 15
M  V30 15 2 15 16
M  V30 16 1 16 17
M  V30 17 2 17 18
M  V30 18 1 18 19
M  V30 19 2 19 20
M  V30 20 1 20 21
M  V30 21 1 21 22
M  V30 22 2 22 23
M  V30 23 1 23 24
M  V30 24 2 24 25
M  V30 25 1 25 26
M  V30 26 1 26 27
M  V30 27 1 27 28
M  V30 28 1 28 29
M  V30 29 1 29 30
M  V30 30 1 30 31
M  V30 31 1 31 32
M  V30 32 1 32 33
M  V30 33 1 33 34
M  V30 34 1 25 35
M  V30 35 2 35 36
M  V30 36 2 21 37
M  V30 37 1 37 38
M  V30 38 2 38 39
M  V30 39 1 13 8
M  V30 40 1 39 15
M  V30 41 1 38 18
M  V30 42 1 36 22
M  V30 43 1 34 29
M  V30 44 1 3 40
M  V30 45 1 4 41
M  V30 46 1 4 42
M  V30 47 1 5 43
M  V30 48 1 5 44
M  V30 49 1 6 45
M  V30 50 1 6 46
M  V30 51 1 7 47
M  V30 52 1 7 48
M  V30 53 1 9 49
M  V30 54 1 10 50
M  V30 55 1 11 51
M  V30 56 1 12 52
M  V30 57 1 13 53
M  V30 58 1 14 54
M  V30 59 1 16 55
M  V30 60 1 17 56
M  V30 61 1 20 57
M  V30 62 1 23 58
M  V30 63 1 24 59
M  V30 64 1 27 60
M  V30 65 1 27 61
M  V30 66 1 28 62
M  V30 67 1 28 63
M  V30 68 1 30 64
M  V30 69 1 30 65
M  V30 70 1 31 66
M  V30 71 1 31 67
M  V30 72 1 33 68
M  V30 73 1 33 69
M  V30 74 1 34 70
M  V30 75 1 34 71
M  V30 76 1 35 72
M  V30 77 1 36 73
M  V30 END BOND
M  V30 END CTAB
M  END
>  <Dataset>  (993) 
ChEMBL_Kinases

>  <Ligand_Instance>  (993) 
nan

>  <PDB_ID>  (993) 
nan

>  <Standardized_SMILES>  (993) 
O=C(NCCCCc1ccccc1)Nc1ccc2ncc(-c3ccc(OCCN4CCOCC4)cc3)nc2n1

>  <Name>  (993) 
nan

>  <Pocket>  (993) 
nan

>  <ATP_Site>  (993) 
nan

>  <Peripheral>  (993) 
nan

>  <Num_H_Atoms_ProtBoundConf>  (993) 
nan

>  <Num_Resolved_Atoms>  (993) 
nan

>  <Num_Not_Resolved_Atoms>  (993) 
nan

$$$$
CHEMBL3671126
     RDKit          3D

  0  0  0  0  0  0  0  0  0  0999 V3000
M  V30 BEGIN CTAB
M  V30 COUNTS 68 71 0 0 0
M  V30 BEGIN ATOM
M  V30 1 O 0.318775 0.984375 3.710393 0
M  V30 2 C -0.493743 1.941534 3.580389 0
M  V30 3 N -0.049208 3.292011 3.666355 0
M  V30 4 C 1.366853 3.378201 3.904952 0
M  V30 5 C 1.873863 4.802157 4.001926 0
M  V30 6 C 3.362081 4.695623 4.248125 0
M  V30 7 C 4.036525 6.042275 4.370745 0
M  V30 8 C 3.886757 6.864774 3.167422 0
M  V30 9 C 4.798122 6.834392 2.109608 0
M  V30 10 C 4.569522 7.644057 1.024647 0
M  V30 11 C 3.500672 8.494475 0.893589 0
M  V30 12 C 2.634739 8.488564 1.957164 0
M  V30 13 C 2.777859 7.711039 3.091955 0
M  V30 14 N -1.842701 1.570394 3.348801 0
M  V30 15 C -2.252072 0.192131 3.269505 0
M  V30 16 C -2.656248 -0.487852 4.404188 0
M  V30 17 C -3.047785 -1.811506 4.332323 0
M  V30 18 C -3.035086 -2.469538 3.100045 0
M  V30 19 N -3.391845 -3.746693 2.914506 0
M  V30 20 C -3.339026 -4.280021 1.675726 0
M  V30 21 C -2.927806 -3.554519 0.580960 0
M  V30 22 C -2.858336 -4.100514 -0.768836 0
M  V30 23 C -2.434466 -3.305885 -1.811263 0
M  V30 24 C -2.367838 -3.835338 -3.106527 0
M  V30 25 C -2.722258 -5.165264 -3.385607 0
M  V30 26 O -2.565002 -5.410972 -4.708478 0
M  V30 27 C -2.769930 -6.546175 -5.463768 0
M  V30 28 C -1.964179 -7.751604 -5.123265 0
M  V30 29 O -0.584947 -7.527313 -5.237281 0
M  V30 30 C 0.055701 -8.711096 -4.896035 0
M  V30 31 C 1.561524 -8.573470 -4.991246 0
M  V30 32 O 1.946159 -8.242166 -6.281002 0
M  V30 33 C -3.140879 -5.924738 -2.313857 0
M  V30 34 C -3.206269 -5.403549 -1.038956 0
M  V30 35 N -2.576639 -2.275912 0.800852 0
M  V30 36 C -2.615339 -1.698756 2.035441 0
M  V30 37 N -2.224446 -0.412010 2.045703 0
M  V30 38 H -0.799553 3.999906 3.545911 0
M  V30 39 H 1.870548 2.943537 2.994858 0
M  V30 40 H 1.716356 2.807295 4.768952 0
M  V30 41 H 1.381321 5.292640 4.890744 0
M  V30 42 H 1.621226 5.401221 3.120562 0
M  V30 43 H 3.764995 4.102912 3.400641 0
M  V30 44 H 3.496666 4.097603 5.160816 0
M  V30 45 H 3.660475 6.529585 5.292990 0
M  V30 46 H 5.118796 5.811592 4.594723 0
M  V30 47 H 5.654242 6.174764 2.177621 0
M  V30 48 H 5.332484 7.558220 0.240726 0
M  V30 49 H 3.366384 9.111837 0.017612 0
M  V30 50 H 1.754334 9.147518 1.919494 0
M  V30 51 H 2.021259 7.790151 3.879767 0
M  V30 52 H -2.547615 2.342323 3.235098 0
M  V30 53 H -2.672119 0.011263 5.372389 0
M  V30 54 H -3.369274 -2.375435 5.195399 0
M  V30 55 H -3.630441 -5.293354 1.576462 0
M  V30 56 H -2.171268 -2.294872 -1.562478 0
M  V30 57 H -2.018000 -3.087434 -3.809294 0
M  V30 58 H -2.583322 -6.248114 -6.540414 0
M  V30 59 H -3.846427 -6.835548 -5.450372 0
M  V30 60 H -2.236058 -8.215412 -4.179577 0
M  V30 61 H -2.174309 -8.502768 -5.946665 0
M  V30 62 H -0.281708 -9.595857 -5.435311 0
M  V30 63 H -0.179123 -8.903599 -3.814890 0
M  V30 64 H 1.855452 -7.761298 -4.304124 0
M  V30 65 H 2.023031 -9.545059 -4.739232 0
M  V30 66 H 2.373035 -7.344253 -6.292198 0
M  V30 67 H -3.398357 -6.920120 -2.595063 0
M  V30 68 H -3.543354 -6.081219 -0.289578 0
M  V30 END ATOM
M  V30 BEGIN BOND
M  V30 1 2 1 2
M  V30 2 1 2 3
M  V30 3 1 3 4
M  V30 4 1 4 5
M  V30 5 1 5 6
M  V30 6 1 6 7
M  V30 7 1 7 8
M  V30 8 2 8 9
M  V30 9 1 9 10
M  V30 10 2 10 11
M  V30 11 1 11 12
M  V30 12 2 12 13
M  V30 13 1 2 14
M  V30 14 1 14 15
M  V30 15 2 15 16
M  V30 16 1 16 17
M  V30 17 2 17 18
M  V30 18 1 18 19
M  V30 19 2 19 20
M  V30 20 1 20 21
M  V30 21 1 21 22
M  V30 22 2 22 23
M  V30 23 1 23 24
M  V30 24 2 24 25
M  V30 25 1 25 26
M  V30 26 1 26 27
M  V30 27 1 27 28
M  V30 28 1 28 29
M  V30 29 1 29 30
M  V30 30 1 30 31
M  V30 31 1 31 32
M  V30 32 1 25 33
M  V30 33 2 33 34
M  V30 34 2 21 35
M  V30 35 1 35 36
M  V30 36 2 36 37
M  V30 37 1 13 8
M  V30 38 1 37 15
M  V30 39 1 36 18
M  V30 40 1 34 22
M  V30 41 1 3 38
M  V30 42 1 4 39
M  V30 43 1 4 40
M  V30 44 1 5 41
M  V30 45 1 5 42
M  V30 46 1 6 43
M  V30 47 1 6 44
M  V30 48 1 7 45
M  V30 49 1 7 46
M  V30 50 1 9 47
M  V30 51 1 10 48
M  V30 52 1 11 49
M  V30 53 1 12 50
M  V30 54 1 13 51
M  V30 55 1 14 52
M  V30 56 1 16 53
M  V30 57 1 17 54
M  V30 58 1 20 55
M  V30 59 1 23 56
M  V30 60 1 24 57
M  V30 61 1 27 58
M  V30 62 1 27 59
M  V30 63 1 28 60
M  V30 64 1 28 61
M  V30 65 1 30 62
M  V30 66 1 30 63
M  V30 67 1 31 64
M  V30 68 1 31 65
M  V30 69 1 32 66
M  V30 70 1 33 67
M  V30 71 1 34 68
M  V30 END BOND
M  V30 END CTAB
M  END
>  <Dataset>  (994) 
ChEMBL_Kinases

>  <Ligand_Instance>  (994) 
nan

>  <PDB_ID>  (994) 
nan

>  <Standardized_SMILES>  (994) 
O=C(NCCCCc1ccccc1)Nc1ccc2ncc(-c3ccc(OCCOCCO)cc3)nc2n1

>  <Name>  (994) 
nan

>  <Pocket>  (994) 
nan

>  <ATP_Site>  (994) 
nan

>  <Peripheral>  (994) 
nan

>  <Num_H_Atoms_ProtBoundConf>  (994) 
nan

>  <Num_Resolved_Atoms>  (994) 
nan

>  <Num_Not_Resolved_Atoms>  (994) 
nan

$$$$
CHEMBL3671125
     RDKit          3D

  0  0  0  0  0  0  0  0  0  0999 V3000
M  V30 BEGIN CTAB
M  V30 COUNTS 56 59 0 0 0
M  V30 BEGIN ATOM
M  V30 1 O 1.449898 -0.634392 -0.228750 0
M  V30 2 C 0.894340 -0.009179 0.697946 0
M  V30 3 N 1.811462 0.653657 1.567415 0
M  V30 4 C 3.252297 0.554542 1.319115 0
M  V30 5 C 3.988152 1.335632 2.369434 0
M  V30 6 C 3.609751 2.798367 2.375250 0
M  V30 7 C 3.935107 3.394296 1.041994 0
M  V30 8 C 3.592117 4.843187 0.972996 0
M  V30 9 C 4.536762 5.782102 1.335150 0
M  V30 10 C 4.286167 7.135136 1.294985 0
M  V30 11 C 3.036124 7.567889 0.874207 0
M  V30 12 C 2.089215 6.632470 0.511386 0
M  V30 13 C 2.356566 5.278805 0.557372 0
M  V30 14 N -0.512607 0.076924 0.925385 0
M  V30 15 C -1.353657 -0.620688 0.000902 0
M  V30 16 C -1.830364 -0.010450 -1.146999 0
M  V30 17 C -2.644395 -0.630679 -2.075930 0
M  V30 18 C -2.980796 -1.941009 -1.805933 0
M  V30 19 N -3.768854 -2.661460 -2.630779 0
M  V30 20 C -4.092796 -3.942984 -2.358554 0
M  V30 21 C -3.633883 -4.577916 -1.224061 0
M  V30 22 C -3.968245 -5.961585 -0.905457 0
M  V30 23 C -4.757981 -6.783209 -1.670199 0
M  V30 24 C -5.044924 -8.087854 -1.324207 0
M  V30 25 C -4.525424 -8.623627 -0.153811 0
M  V30 26 C -3.730190 -7.805499 0.621973 0
M  V30 27 C -3.193092 -8.385916 1.848367 0
M  V30 28 O -3.476619 -9.579487 2.131029 0
M  V30 29 O -2.377638 -7.698007 2.737388 0
M  V30 30 C -3.462299 -6.512712 0.252595 0
M  V30 31 N -2.848809 -3.845880 -0.411213 0
M  V30 32 C -2.516820 -2.567923 -0.668236 0
M  V30 33 N -1.725732 -1.898857 0.193380 0
M  V30 34 H 1.434576 1.211323 2.385029 0
M  V30 35 H 3.427645 0.893056 0.290269 0
M  V30 36 H 3.568781 -0.513034 1.343442 0
M  V30 37 H 5.066874 1.188279 2.258696 0
M  V30 38 H 3.707038 0.886907 3.365002 0
M  V30 39 H 2.551059 2.956603 2.634715 0
M  V30 40 H 4.185668 3.308529 3.183948 0
M  V30 41 H 3.289352 2.913349 0.263009 0
M  V30 42 H 4.976380 3.253761 0.754899 0
M  V30 43 H 5.523838 5.481457 1.668838 0
M  V30 44 H 5.059649 7.850800 1.589672 0
M  V30 45 H 2.876366 8.646007 0.856115 0
M  V30 46 H 1.129319 7.041439 0.190938 0
M  V30 47 H 1.592439 4.565629 0.266034 0
M  V30 48 H -0.800517 0.656021 1.766737 0
M  V30 49 H -1.561526 1.020788 -1.352881 0
M  V30 50 H -3.007399 -0.144763 -2.963207 0
M  V30 51 H -4.727972 -4.459809 -3.063003 0
M  V30 52 H -5.172331 -6.384915 -2.585698 0
M  V30 53 H -5.685856 -8.668066 -1.998561 0
M  V30 54 H -4.771009 -9.652158 0.087698 0
M  V30 55 H -1.600046 -8.165165 3.226150 0
M  V30 56 H -2.831658 -5.965596 0.930866 0
M  V30 END ATOM
M  V30 BEGIN BOND
M  V30 1 2 1 2
M  V30 2 1 2 3
M  V30 3 1 3 4
M  V30 4 1 4 5
M  V30 5 1 5 6
M  V30 6 1 6 7
M  V30 7 1 7 8
M  V30 8 2 8 9
M  V30 9 1 9 10
M  V30 10 2 10 11
M  V30 11 1 11 12
M  V30 12 2 12 13
M  V30 13 1 2 14
M  V30 14 1 14 15
M  V30 15 2 15 16
M  V30 16 1 16 17
M  V30 17 2 17 18
M  V30 18 1 18 19
M  V30 19 2 19 20
M  V30 20 1 20 21
M  V30 21 1 21 22
M  V30 22 2 22 23
M  V30 23 1 23 24
M  V30 24 2 24 25
M  V30 25 1 25 26
M  V30 26 1 26 27
M  V30 27 2 27 28
M  V30 28 1 27 29
M  V30 29 2 26 30
M  V30 30 2 21 31
M  V30 31 1 31 32
M  V30 32 2 32 33
M  V30 33 1 13 8
M  V30 34 1 33 15
M  V30 35 1 32 18
M  V30 36 1 30 22
M  V30 37 1 3 34
M  V30 38 1 4 35
M  V30 39 1 4 36
M  V30 40 1 5 37
M  V30 41 1 5 38
M  V30 42 1 6 39
M  V30 43 1 6 40
M  V30 44 1 7 41
M  V30 45 1 7 42
M  V30 46 1 9 43
M  V30 47 1 10 44
M  V30 48 1 11 45
M  V30 49 1 12 46
M  V30 50 1 13 47
M  V30 51 1 14 48
M  V30 52 1 16 49
M  V30 53 1 17 50
M  V30 54 1 20 51
M  V30 55 1 23 52
M  V30 56 1 24 53
M  V30 57 1 25 54
M  V30 58 1 29 55
M  V30 59 1 30 56
M  V30 END BOND
M  V30 END CTAB
M  END
>  <Dataset>  (995) 
ChEMBL_Kinases

>  <Ligand_Instance>  (995) 
nan

>  <PDB_ID>  (995) 
nan

>  <Standardized_SMILES>  (995) 
O=C(NCCCCc1ccccc1)Nc1ccc2ncc(-c3cccc(C(=O)O)c3)nc2n1

>  <Name>  (995) 
nan

>  <Pocket>  (995) 
nan

>  <ATP_Site>  (995) 
nan

>  <Peripheral>  (995) 
nan

>  <Num_H_Atoms_ProtBoundConf>  (995) 
nan

>  <Num_Resolved_Atoms>  (995) 
nan

>  <Num_Not_Resolved_Atoms>  (995) 
nan

$$$$
CHEMBL3671124
     RDKit          3D

  0  0  0  0  0  0  0  0  0  0999 V3000
M  V30 BEGIN CTAB
M  V30 COUNTS 64 67 0 0 0
M  V30 BEGIN ATOM
M  V30 1 N 6.513452 1.247613 4.245670 0
M  V30 2 C 7.466670 1.542266 3.217555 0 CFG=1
M  V30 3 C 7.114016 0.916150 1.888752 0
M  V30 4 C 5.818317 1.361443 1.363645 0
M  V30 5 C 5.733640 2.469479 0.547424 0
M  V30 6 C 4.573032 2.985144 -0.007071 0
M  V30 7 C 3.394065 2.312676 0.296877 0
M  V30 8 C 2.079647 2.714705 -0.194455 0
M  V30 9 C 1.880377 3.804054 -1.010682 0
M  V30 10 N 0.645403 4.167797 -1.462396 0
M  V30 11 C -0.435675 3.453847 -1.113250 0
M  V30 12 C -1.728927 3.725337 -1.507339 0
M  V30 13 C -2.788084 2.939573 -1.102991 0
M  V30 14 C -2.569962 1.850707 -0.284193 0
M  V30 15 N -3.537546 0.934464 0.228033 0
M  V30 16 C -3.866349 -0.240807 -0.509916 0
M  V30 17 O -3.328163 -0.511220 -1.620768 0
M  V30 18 N -4.817927 -1.184992 -0.048541 0
M  V30 19 C -4.994010 -2.318301 -0.976232 0
M  V30 20 C -6.012889 -3.290116 -0.437429 0
M  V30 21 C -5.626490 -3.869580 0.884519 0
M  V30 22 C -4.339845 -4.639043 0.774058 0
M  V30 23 C -4.405715 -5.769177 -0.145724 0
M  V30 24 C -4.818272 -6.990230 0.409074 0
M  V30 25 C -4.936169 -8.161803 -0.309383 0
M  V30 26 C -4.635046 -8.148831 -1.650391 0
M  V30 27 C -4.221323 -6.969705 -2.254777 0
M  V30 28 C -4.127440 -5.847831 -1.481238 0
M  V30 29 N -1.290193 1.580401 0.106969 0
M  V30 30 C -0.257261 2.357926 -0.295457 0
M  V30 31 N 0.973295 2.026337 0.132411 0
M  V30 32 C 3.470406 1.199966 1.115127 0
M  V30 33 C 4.638879 0.707622 1.653814 0
M  V30 34 C 7.708804 2.983978 3.128377 0
M  V30 35 O 7.074070 3.716887 3.931628 0
M  V30 36 O 8.138513 4.244719 2.806306 0
M  V30 37 H 6.448474 1.991795 4.972790 0
M  V30 38 H 6.575951 0.296216 4.627597 0
M  V30 39 H 8.438245 1.076965 3.520103 0
M  V30 40 H 7.060966 -0.185083 2.071386 0
M  V30 41 H 7.927781 1.100408 1.177423 0
M  V30 42 H 6.658155 3.013618 0.296945 0
M  V30 43 H 4.537202 3.841365 -0.633282 0
M  V30 44 H 2.715628 4.414141 -1.322698 0
M  V30 45 H -1.898518 4.571164 -2.143411 0
M  V30 46 H -3.803300 3.103588 -1.376941 0
M  V30 47 H -4.061582 1.026262 1.127687 0
M  V30 48 H -5.315959 -1.042479 0.865706 0
M  V30 49 H -4.002324 -2.724544 -1.157370 0
M  V30 50 H -5.383133 -1.886687 -1.916116 0
M  V30 51 H -6.082012 -4.106513 -1.186665 0
M  V30 52 H -6.976194 -2.779865 -0.440112 0
M  V30 53 H -6.461771 -4.459200 1.258154 0
M  V30 54 H -5.519825 -3.009995 1.585033 0
M  V30 55 H -3.494549 -4.001383 0.454800 0
M  V30 56 H -4.067561 -5.004288 1.783788 0
M  V30 57 H -5.070393 -7.065847 1.462787 0
M  V30 58 H -5.258862 -9.078399 0.164853 0
M  V30 59 H -4.714580 -9.049086 -2.252211 0
M  V30 60 H -3.985583 -6.949638 -3.293180 0
M  V30 61 H -3.808761 -4.945467 -1.944826 0
M  V30 62 H 2.538515 0.666843 1.356387 0
M  V30 63 H 4.657040 -0.167772 2.290891 0
M  V30 64 H 9.072116 4.467043 2.466189 0
M  V30 END ATOM
M  V30 BEGIN BOND
M  V30 1 1 1 2
M  V30 2 1 2 3
M  V30 3 1 3 4
M  V30 4 2 4 5
M  V30 5 1 5 6
M  V30 6 2 6 7
M  V30 7 1 7 8
M  V30 8 2 8 9
M  V30 9 1 9 10
M  V30 10 2 10 11
M  V30 11 1 11 12
M  V30 12 2 12 13
M  V30 13 1 13 14
M  V30 14 1 14 15
M  V30 15 1 15 16
M  V30 16 2 16 17
M  V30 17 1 16 18
M  V30 18 1 18 19
M  V30 19 1 19 20
M  V30 20 1 20 21
M  V30 21 1 21 22
M  V30 22 1 22 23
M  V30 23 2 23 24
M  V30 24 1 24 25
M  V30 25 2 25 26
M  V30 26 1 26 27
M  V30 27 2 27 28
M  V30 28 2 14 29
M  V30 29 1 29 30
M  V30 30 2 30 31
M  V30 31 1 7 32
M  V30 32 2 32 33
M  V30 33 1 2 34
M  V30 34 2 34 35
M  V30 35 1 34 36
M  V30 36 1 33 4
M  V30 37 1 31 8
M  V30 38 1 30 11
M  V30 39 1 28 23
M  V30 40 1 1 37
M  V30 41 1 1 38
M  V30 42 1 2 39 CFG=1
M  V30 43 1 3 40
M  V30 44 1 3 41
M  V30 45 1 5 42
M  V30 46 1 6 43
M  V30 47 1 9 44
M  V30 48 1 12 45
M  V30 49 1 13 46
M  V30 50 1 15 47
M  V30 51 1 18 48
M  V30 52 1 19 49
M  V30 53 1 19 50
M  V30 54 1 20 51
M  V30 55 1 20 52
M  V30 56 1 21 53
M  V30 57 1 21 54
M  V30 58 1 22 55
M  V30 59 1 22 56
M  V30 60 1 24 57
M  V30 61 1 25 58
M  V30 62 1 26 59
M  V30 63 1 27 60
M  V30 64 1 28 61
M  V30 65 1 32 62
M  V30 66 1 33 63
M  V30 67 1 36 64
M  V30 END BOND
M  V30 END CTAB
M  END
>  <Dataset>  (996) 
ChEMBL_Kinases

>  <Ligand_Instance>  (996) 
nan

>  <PDB_ID>  (996) 
nan

>  <Standardized_SMILES>  (996) 
N[C@@H](Cc1ccc(-c2cnc3ccc(NC(=O)NCCCCc4ccccc4)nc3n2)cc1)C(=O)O

>  <Name>  (996) 
nan

>  <Pocket>  (996) 
nan

>  <ATP_Site>  (996) 
nan

>  <Peripheral>  (996) 
nan

>  <Num_H_Atoms_ProtBoundConf>  (996) 
nan

>  <Num_Resolved_Atoms>  (996) 
nan

>  <Num_Not_Resolved_Atoms>  (996) 
nan

$$$$
CHEMBL3671123
     RDKit          3D

  0  0  0  0  0  0  0  0  0  0999 V3000
M  V30 BEGIN CTAB
M  V30 COUNTS 59 62 0 0 0
M  V30 BEGIN ATOM
M  V30 1 C 2.382475 1.626067 0.517611 0
M  V30 2 C 2.622534 1.280371 1.945367 0 CFG=2
M  V30 3 C 3.916267 0.780643 2.397839 0
M  V30 4 C 5.108716 1.604886 2.254071 0
M  V30 5 C 5.695413 2.034211 0.984335 0
M  V30 6 C 6.163195 0.981021 0.057660 0
M  V30 7 C 7.427632 0.474489 0.187649 0
M  V30 8 C 7.925548 -0.508888 -0.682217 0
M  V30 9 C 7.176562 -1.021104 -1.711782 0
M  V30 10 C 5.857454 -0.521365 -1.874608 0
M  V30 11 C 5.447197 0.441540 -0.981244 0
M  V30 12 N 1.516713 0.420394 2.373707 0
M  V30 13 C 0.150909 0.561463 2.638073 0
M  V30 14 O -0.262398 1.764880 2.404030 0
M  V30 15 N -0.720552 -0.429305 3.094946 0
M  V30 16 C -2.125817 -0.234397 3.200649 0
M  V30 17 C -3.089819 0.332946 4.005970 0
M  V30 18 C -4.408185 0.175874 3.653343 0
M  V30 19 C -4.788381 -0.521849 2.536804 0
M  V30 20 N -6.059452 -0.695844 2.199272 0
M  V30 21 C -6.457916 -1.394160 1.123488 0
M  V30 22 C -5.523272 -1.962522 0.322229 0
M  V30 23 C -5.858338 -2.783895 -0.846891 0
M  V30 24 C -7.169539 -2.987500 -1.232187 0
M  V30 25 C -7.347738 -3.809388 -2.339558 0
M  V30 26 C -6.386705 -4.441574 -3.092215 0
M  V30 27 C -5.070835 -4.215651 -2.676800 0
M  V30 28 C -4.060935 -4.880400 -3.467856 0
M  V30 29 O -4.360058 -5.595475 -4.449985 0
M  V30 30 O -2.669858 -4.835191 -3.275774 0
M  V30 31 C -4.838957 -3.397124 -1.571146 0
M  V30 32 N -4.231842 -1.803880 0.632036 0
M  V30 33 C -3.808863 -1.098622 1.718939 0
M  V30 34 N -2.560242 -0.918817 2.100268 0
M  V30 35 H 1.323414 2.080293 0.518508 0
M  V30 36 H 2.280616 0.710177 -0.098877 0
M  V30 37 H 3.007131 2.397452 0.078444 0
M  V30 38 H 2.398853 2.265138 2.528279 0
M  V30 39 H 4.066307 -0.294122 2.068523 0
M  V30 40 H 3.797362 0.626132 3.541956 0
M  V30 41 H 4.881737 2.585453 2.828172 0
M  V30 42 H 5.968104 1.215794 2.930456 0
M  V30 43 H 6.651030 2.623804 1.265435 0
M  V30 44 H 5.152059 2.787142 0.390047 0
M  V30 45 H 8.127084 0.785607 0.947593 0
M  V30 46 H 8.918555 -0.919648 -0.596477 0
M  V30 47 H 7.429879 -1.770735 -2.450190 0
M  V30 48 H 5.231564 -0.895812 -2.670436 0
M  V30 49 H 4.443881 0.793189 -1.156293 0
M  V30 50 H 1.828119 -0.591721 2.523475 0
M  V30 51 H -0.257214 -1.332078 3.268959 0
M  V30 52 H -2.559368 0.820834 4.805902 0
M  V30 53 H -5.095870 0.650758 4.333031 0
M  V30 54 H -7.509373 -1.497207 0.913598 0
M  V30 55 H -8.005499 -2.547797 -0.728474 0
M  V30 56 H -8.406970 -3.933823 -2.608963 0
M  V30 57 H -6.739676 -5.042353 -3.915446 0
M  V30 58 H -2.072711 -5.647405 -3.498222 0
M  V30 59 H -3.781057 -3.305843 -1.355473 0
M  V30 END ATOM
M  V30 BEGIN BOND
M  V30 1 1 1 2
M  V30 2 1 2 3
M  V30 3 1 3 4
M  V30 4 1 4 5
M  V30 5 1 5 6
M  V30 6 2 6 7
M  V30 7 1 7 8
M  V30 8 2 8 9
M  V30 9 1 9 10
M  V30 10 2 10 11
M  V30 11 1 2 12
M  V30 12 1 12 13
M  V30 13 2 13 14
M  V30 14 1 13 15
M  V30 15 1 15 16
M  V30 16 2 16 17
M  V30 17 1 17 18
M  V30 18 2 18 19
M  V30 19 1 19 20
M  V30 20 2 20 21
M  V30 21 1 21 22
M  V30 22 1 22 23
M  V30 23 2 23 24
M  V30 24 1 24 25
M  V30 25 2 25 26
M  V30 26 1 26 27
M  V30 27 1 27 28
M  V30 28 2 28 29
M  V30 29 1 28 30
M  V30 30 2 27 31
M  V30 31 2 22 32
M  V30 32 1 32 33
M  V30 33 2 33 34
M  V30 34 1 11 6
M  V30 35 1 34 16
M  V30 36 1 33 19
M  V30 37 1 31 23
M  V30 38 1 1 35
M  V30 39 1 1 36
M  V30 40 1 1 37
M  V30 41 1 2 38 CFG=1
M  V30 42 1 3 39
M  V30 43 1 3 40
M  V30 44 1 4 41
M  V30 45 1 4 42
M  V30 46 1 5 43
M  V30 47 1 5 44
M  V30 48 1 7 45
M  V30 49 1 8 46
M  V30 50 1 9 47
M  V30 51 1 10 48
M  V30 52 1 11 49
M  V30 53 1 12 50
M  V30 54 1 15 51
M  V30 55 1 17 52
M  V30 56 1 18 53
M  V30 57 1 21 54
M  V30 58 1 24 55
M  V30 59 1 25 56
M  V30 60 1 26 57
M  V30 61 1 30 58
M  V30 62 1 31 59
M  V30 END BOND
M  V30 END CTAB
M  END
>  <Dataset>  (997) 
ChEMBL_Kinases

>  <Ligand_Instance>  (997) 
nan

>  <PDB_ID>  (997) 
nan

>  <Standardized_SMILES>  (997) 
C[C@H](CCCc1ccccc1)NC(=O)Nc1ccc2ncc(-c3cccc(C(=O)O)c3)nc2n1

>  <Name>  (997) 
nan

>  <Pocket>  (997) 
nan

>  <ATP_Site>  (997) 
nan

>  <Peripheral>  (997) 
nan

>  <Num_H_Atoms_ProtBoundConf>  (997) 
nan

>  <Num_Resolved_Atoms>  (997) 
nan

>  <Num_Not_Resolved_Atoms>  (997) 
nan

$$$$
CHEMBL3669604
     RDKit          3D

  0  0  0  0  0  0  0  0  0  0999 V3000
M  V30 BEGIN CTAB
M  V30 COUNTS 55 59 0 0 0
M  V30 BEGIN ATOM
M  V30 1 C 1.457964 -1.153884 4.733925 0
M  V30 2 C 1.738450 -2.014140 3.508537 0
M  V30 3 C 1.702452 -3.474685 3.816908 0
M  V30 4 C 3.037665 -1.573096 2.916284 0
M  V30 5 N 4.345476 -1.822461 2.850687 0
M  V30 6 N 4.928551 -0.908016 2.056869 0
M  V30 7 C 3.953337 -0.053572 1.605599 0
M  V30 8 N 4.121646 1.091126 0.752820 0
M  V30 9 C 2.982422 1.825357 0.279502 0
M  V30 10 N 2.956561 1.454716 -1.018725 0
M  V30 11 C 2.029467 1.896357 -1.887696 0
M  V30 12 C 1.078582 2.770087 -1.375493 0
M  V30 13 C 1.097652 3.156331 -0.042212 0
M  V30 14 C 0.111866 4.067732 0.532513 0
M  V30 15 F -1.133639 3.461984 0.465306 0
M  V30 16 F 0.390739 4.340546 1.854018 0
M  V30 17 F 0.095435 5.269535 -0.132101 0
M  V30 18 N 2.069110 2.661728 0.757695 0
M  V30 19 C 2.733961 -0.470133 2.151499 0
M  V30 20 C 1.255941 -0.228625 2.270987 0
M  V30 21 N 0.796327 -1.589399 2.498445 0
M  V30 22 C -0.321326 -2.224574 1.854213 0
M  V30 23 O -0.732731 -3.430333 1.993044 0
M  V30 24 N -1.091795 -1.452830 0.948742 0
M  V30 25 C -2.251944 -2.036516 0.245515 0
M  V30 26 C -3.596257 -1.462281 0.528764 0
M  V30 27 C -2.935979 -1.256192 -0.786966 0 CFG=2
M  V30 28 C -3.465540 -1.824692 -2.044303 0
M  V30 29 C -4.839115 -2.041254 -2.192014 0
M  V30 30 C -5.412974 -2.564271 -3.307195 0
M  V30 31 C -4.614046 -2.927887 -4.406629 0
M  V30 32 C -3.238818 -2.716504 -4.270441 0
M  V30 33 C -2.671712 -2.172539 -3.107547 0
M  V30 34 H 0.406181 -0.742478 4.680383 0
M  V30 35 H 1.503163 -1.685395 5.679851 0
M  V30 36 H 2.116323 -0.248601 4.671581 0
M  V30 37 H 1.958733 -4.042168 2.910756 0
M  V30 38 H 0.736120 -3.734489 4.252000 0
M  V30 39 H 2.549639 -3.652010 4.536815 0
M  V30 40 H 5.926705 -0.827213 1.807268 0
M  V30 41 H 5.096847 1.354376 0.496688 0
M  V30 42 H 1.890616 1.681310 -2.955969 0
M  V30 43 H 0.293764 3.177567 -1.999257 0
M  V30 44 H 1.049238 0.457747 3.098332 0
M  V30 45 H 0.889722 0.172958 1.290987 0
M  V30 46 H -0.929998 -0.450085 0.707633 0
M  V30 47 H -2.223283 -3.141126 0.225713 0
M  V30 48 H -3.719627 -0.622539 1.257302 0
M  V30 49 H -4.462466 -2.149382 0.530050 0
M  V30 50 H -2.426075 -0.255403 -0.988958 0
M  V30 51 H -5.436990 -1.754466 -1.338591 0
M  V30 52 H -6.507788 -2.695187 -3.333844 0
M  V30 53 H -5.094418 -3.339586 -5.277400 0
M  V30 54 H -2.643838 -3.003883 -5.122504 0
M  V30 55 H -1.605213 -2.038497 -3.072140 0
M  V30 END ATOM
M  V30 BEGIN BOND
M  V30 1 1 1 2
M  V30 2 1 2 3
M  V30 3 1 2 4
M  V30 4 2 4 5
M  V30 5 1 5 6
M  V30 6 1 6 7
M  V30 7 1 7 8
M  V30 8 1 8 9
M  V30 9 2 9 10
M  V30 10 1 10 11
M  V30 11 2 11 12
M  V30 12 1 12 13
M  V30 13 1 13 14
M  V30 14 1 14 15
M  V30 15 1 14 16
M  V30 16 1 14 17
M  V30 17 2 13 18
M  V30 18 2 7 19
M  V30 19 1 19 20
M  V30 20 1 20 21
M  V30 21 1 21 22
M  V30 22 2 22 23
M  V30 23 1 22 24
M  V30 24 1 24 25
M  V30 25 1 25 26
M  V30 26 1 26 27
M  V30 27 1 27 28
M  V30 28 2 28 29
M  V30 29 1 29 30
M  V30 30 2 30 31
M  V30 31 1 31 32
M  V30 32 2 32 33
M  V30 33 1 21 2
M  V30 34 1 27 25
M  V30 35 1 33 28
M  V30 36 1 19 4
M  V30 37 1 18 9
M  V30 38 1 1 34
M  V30 39 1 1 35
M  V30 40 1 1 36
M  V30 41 1 3 37
M  V30 42 1 3 38
M  V30 43 1 3 39
M  V30 44 1 6 40
M  V30 45 1 8 41
M  V30 46 1 11 42
M  V30 47 1 12 43
M  V30 48 1 20 44
M  V30 49 1 20 45
M  V30 50 1 24 46
M  V30 51 1 25 47
M  V30 52 1 26 48
M  V30 53 1 26 49
M  V30 54 1 27 50 CFG=3
M  V30 55 1 29 51
M  V30 56 1 30 52
M  V30 57 1 31 53
M  V30 58 1 32 54
M  V30 59 1 33 55
M  V30 END BOND
M  V30 END CTAB
M  END
>  <Dataset>  (998) 
ChEMBL_Kinases

>  <Ligand_Instance>  (998) 
nan

>  <PDB_ID>  (998) 
nan

>  <Standardized_SMILES>  (998) 
CC1(C)c2n[nH]c(Nc3nccc(C(F)(F)F)n3)c2CN1C(=O)NC1C[C@@H]1c1ccccc1

>  <Name>  (998) 
nan

>  <Pocket>  (998) 
nan

>  <ATP_Site>  (998) 
nan

>  <Peripheral>  (998) 
nan

>  <Num_H_Atoms_ProtBoundConf>  (998) 
nan

>  <Num_Resolved_Atoms>  (998) 
nan

>  <Num_Not_Resolved_Atoms>  (998) 
nan

$$$$
CHEMBL3671106
     RDKit          3D

  0  0  0  0  0  0  0  0  0  0999 V3000
M  V30 BEGIN CTAB
M  V30 COUNTS 72 76 0 0 0
M  V30 BEGIN ATOM
M  V30 1 C 4.570448 2.813865 2.832852 0
M  V30 2 C 3.701580 1.694372 2.376506 0 CFG=2
M  V30 3 C 4.321921 0.804096 1.322032 0
M  V30 4 C 5.579936 0.145792 1.772663 0
M  V30 5 C 6.177840 -0.750077 0.693801 0
M  V30 6 C 6.510897 0.001172 -0.541015 0
M  V30 7 C 7.704220 0.608719 -0.817320 0
M  V30 8 C 7.961045 1.293999 -1.984223 0
M  V30 9 C 6.959742 1.384874 -2.950828 0
M  V30 10 C 5.743614 0.774798 -2.686571 0
M  V30 11 C 5.514536 0.086517 -1.492558 0
M  V30 12 N 2.424583 2.198698 1.907465 0
M  V30 13 C 1.158524 1.878918 2.500635 0
M  V30 14 O 1.257153 1.115435 3.474486 0
M  V30 15 N -0.009197 2.471912 1.897361 0
M  V30 16 C -1.201209 2.054290 2.593374 0
M  V30 17 C -1.883008 2.605319 3.657569 0
M  V30 18 C -3.009844 1.961836 4.113283 0
M  V30 19 C -3.476077 0.808580 3.558481 0
M  V30 20 N -4.560730 0.195329 4.005077 0
M  V30 21 C -5.004938 -0.960070 3.432254 0
M  V30 22 C -4.321357 -1.508643 2.369637 0
M  V30 23 C -4.737575 -2.742727 1.714250 0
M  V30 24 C -5.811765 -3.569579 1.973114 0
M  V30 25 N -5.758052 -4.586153 1.093677 0
M  V30 26 N -4.722555 -4.480029 0.278154 0
M  V30 27 C -4.203542 -5.296966 -0.779865 0
M  V30 28 C -4.763824 -5.057681 -2.153590 0
M  V30 29 N -4.650488 -3.790929 -2.715730 0
M  V30 30 C -5.413401 -2.699231 -2.257433 0
M  V30 31 C -4.528578 -1.451704 -2.354703 0
M  V30 32 O -3.811492 -1.567326 -3.520360 0
M  V30 33 C -4.423608 -2.295044 -4.526152 0
M  V30 34 C -4.583362 -3.779245 -4.150599 0
M  V30 35 C -4.077919 -3.332014 0.656738 0
M  V30 36 N -3.227015 -0.849085 1.952780 0
M  V30 37 C -2.766135 0.282065 2.490457 0
M  V30 38 N -1.663022 0.901212 2.034754 0
M  V30 39 H 5.049471 2.623219 3.812340 0
M  V30 40 H 3.914507 3.719649 2.990495 0
M  V30 41 H 5.294601 3.125761 2.035005 0
M  V30 42 H 3.456007 1.060686 3.277342 0
M  V30 43 H 3.549158 0.050928 1.056396 0
M  V30 44 H 4.524211 1.355230 0.382178 0
M  V30 45 H 6.348390 0.823676 2.136368 0
M  V30 46 H 5.332980 -0.538949 2.623177 0
M  V30 47 H 5.486219 -1.607542 0.458011 0
M  V30 48 H 7.116106 -1.218295 1.032943 0
M  V30 49 H 8.465042 0.518677 -0.041050 0
M  V30 50 H 8.940342 1.760276 -2.147034 0
M  V30 51 H 7.124854 1.916779 -3.884414 0
M  V30 52 H 4.919677 0.811794 -3.405434 0
M  V30 53 H 4.539551 -0.372136 -1.341941 0
M  V30 54 H 2.562409 2.830379 1.071826 0
M  V30 55 H 0.068285 3.115946 1.055362 0
M  V30 56 H -1.401587 3.511216 3.992509 0
M  V30 57 H -3.488730 2.444811 4.941149 0
M  V30 58 H -5.903252 -1.461705 3.807813 0
M  V30 59 H -6.522308 -3.363666 2.760869 0
M  V30 60 H -3.088614 -5.228956 -0.824881 0
M  V30 61 H -4.426341 -6.368695 -0.479725 0
M  V30 62 H -5.874337 -5.331198 -2.072243 0
M  V30 63 H -4.323092 -5.853447 -2.825071 0
M  V30 64 H -5.960432 -2.784311 -1.325745 0
M  V30 65 H -6.239506 -2.469390 -3.022592 0
M  V30 66 H -5.152976 -0.514378 -2.302207 0
M  V30 67 H -3.799061 -1.387074 -1.524693 0
M  V30 68 H -3.747724 -2.208348 -5.417547 0
M  V30 69 H -5.390054 -1.851380 -4.839229 0
M  V30 70 H -3.734277 -4.382603 -4.542000 0
M  V30 71 H -5.567025 -4.097577 -4.544572 0
M  V30 72 H -3.167568 -2.912806 0.206774 0
M  V30 END ATOM
M  V30 BEGIN BOND
M  V30 1 1 1 2
M  V30 2 1 2 3
M  V30 3 1 3 4
M  V30 4 1 4 5
M  V30 5 1 5 6
M  V30 6 2 6 7
M  V30 7 1 7 8
M  V30 8 2 8 9
M  V30 9 1 9 10
M  V30 10 2 10 11
M  V30 11 1 2 12
M  V30 12 1 12 13
M  V30 13 2 13 14
M  V30 14 1 13 15
M  V30 15 1 15 16
M  V30 16 2 16 17
M  V30 17 1 17 18
M  V30 18 2 18 19
M  V30 19 1 19 20
M  V30 20 2 20 21
M  V30 21 1 21 22
M  V30 22 1 22 23
M  V30 23 1 23 24
M  V30 24 2 24 25
M  V30 25 1 25 26
M  V30 26 1 26 27
M  V30 27 1 27 28
M  V30 28 1 28 29
M  V30 29 1 29 30
M  V30 30 1 30 31
M  V30 31 1 31 32
M  V30 32 1 32 33
M  V30 33 1 33 34
M  V30 34 1 26 35
M  V30 35 2 22 36
M  V30 36 1 36 37
M  V30 37 2 37 38
M  V30 38 1 11 6
M  V30 39 1 38 16
M  V30 40 1 37 19
M  V30 41 2 35 23
M  V30 42 1 34 29
M  V30 43 1 1 39
M  V30 44 1 1 40
M  V30 45 1 1 41
M  V30 46 1 2 42 CFG=1
M  V30 47 1 3 43
M  V30 48 1 3 44
M  V30 49 1 4 45
M  V30 50 1 4 46
M  V30 51 1 5 47
M  V30 52 1 5 48
M  V30 53 1 7 49
M  V30 54 1 8 50
M  V30 55 1 9 51
M  V30 56 1 10 52
M  V30 57 1 11 53
M  V30 58 1 12 54
M  V30 59 1 15 55
M  V30 60 1 17 56
M  V30 61 1 18 57
M  V30 62 1 21 58
M  V30 63 1 24 59
M  V30 64 1 27 60
M  V30 65 1 27 61
M  V30 66 1 28 62
M  V30 67 1 28 63
M  V30 68 1 30 64
M  V30 69 1 30 65
M  V30 70 1 31 66
M  V30 71 1 31 67
M  V30 72 1 33 68
M  V30 73 1 33 69
M  V30 74 1 34 70
M  V30 75 1 34 71
M  V30 76 1 35 72
M  V30 END BOND
M  V30 END CTAB
M  END
>  <Dataset>  (999) 
ChEMBL_Kinases

>  <Ligand_Instance>  (999) 
nan

>  <PDB_ID>  (999) 
nan

>  <Standardized_SMILES>  (999) 
C[C@H](CCCc1ccccc1)NC(=O)Nc1ccc2ncc(-c3cnn(CCN4CCOCC4)c3)nc2n1

>  <Name>  (999) 
nan

>  <Pocket>  (999) 
nan

>  <ATP_Site>  (999) 
nan

>  <Peripheral>  (999) 
nan

>  <Num_H_Atoms_ProtBoundConf>  (999) 
nan

>  <Num_Resolved_Atoms>  (999) 
nan

>  <Num_Not_Resolved_Atoms>  (999) 
nan

$$$$
