CHEMBL609
     RDKit          3D

  0  0  0  0  0  0  0  0  0  0999 V3000
M  V30 BEGIN CTAB
M  V30 COUNTS 28 27 0 0 0
M  V30 BEGIN ATOM
M  V30 1 N 0.601314 3.695228 1.988313 0
M  V30 2 C 1.773296 2.904667 2.240479 0
M  V30 3 C 1.445293 1.472797 2.707834 0
M  V30 4 N 0.668493 0.812248 1.703207 0
M  V30 5 C 0.439110 -0.608849 1.900033 0
M  V30 6 C -0.122208 -1.064611 0.582236 0
M  V30 7 N -0.399874 -2.400566 0.361875 0
M  V30 8 C -0.775950 -2.635664 -0.996547 0
M  V30 9 C -0.902993 -4.031349 -1.437865 0
M  V30 10 N 0.341592 -4.777797 -1.295671 0
M  V30 11 H 0.274312 3.627559 0.982224 0
M  V30 12 H -0.185592 3.542491 2.656353 0
M  V30 13 H 2.313326 2.818436 1.260343 0
M  V30 14 H 2.487915 3.364886 2.947753 0
M  V30 15 H 2.420314 0.995542 2.942724 0
M  V30 16 H 0.863363 1.587214 3.632961 0
M  V30 17 H -0.263504 1.305909 1.596292 0
M  V30 18 H 1.342217 -1.151857 2.219147 0
M  V30 19 H -0.357211 -0.719535 2.688015 0
M  V30 20 H -1.128604 -0.529182 0.527445 0
M  V30 21 H 0.444234 -0.643196 -0.271809 0
M  V30 22 H -0.241853 -3.147095 0.988280 0
M  V30 23 H -1.761145 -2.104570 -1.170603 0
M  V30 24 H -0.043012 -2.118034 -1.629107 0
M  V30 25 H -1.776387 -4.555358 -1.070944 0
M  V30 26 H -1.052051 -3.991604 -2.573158 0
M  V30 27 H 1.004365 -4.346220 -2.008533 0
M  V30 28 H 0.796844 -4.554476 -0.368667 0
M  V30 END ATOM
M  V30 BEGIN BOND
M  V30 1 1 1 2
M  V30 2 1 2 3
M  V30 3 1 3 4
M  V30 4 1 4 5
M  V30 5 1 5 6
M  V30 6 1 6 7
M  V30 7 1 7 8
M  V30 8 1 8 9
M  V30 9 1 9 10
M  V30 10 1 1 11
M  V30 11 1 1 12
M  V30 12 1 2 13
M  V30 13 1 2 14
M  V30 14 1 3 15
M  V30 15 1 3 16
M  V30 16 1 4 17
M  V30 17 1 5 18
M  V30 18 1 5 19
M  V30 19 1 6 20
M  V30 20 1 6 21
M  V30 21 1 7 22
M  V30 22 1 8 23
M  V30 23 1 8 24
M  V30 24 1 9 25
M  V30 25 1 9 26
M  V30 26 1 10 27
M  V30 27 1 10 28
M  V30 END BOND
M  V30 END CTAB
M  END
>  <Dataset>  (1) 
OralDrugs

>  <Ligand_Instance>  (1) 
nan

>  <PDB_ID>  (1) 
nan

>  <Standardized_SMILES>  (1) 
NCCNCCNCCN

>  <Name>  (1) 
Trientine

>  <Pocket>  (1) 
nan

>  <ATP_Site>  (1) 
nan

>  <Peripheral>  (1) 
nan

>  <Num_H_Atoms_ProtBoundConf>  (1) 
nan

>  <Num_Resolved_Atoms>  (1) 
nan

>  <Num_Not_Resolved_Atoms>  (1) 
nan

$$$$
CHEMBL422
     RDKit          3D

  0  0  0  0  0  0  0  0  0  0999 V3000
M  V30 BEGIN CTAB
M  V30 COUNTS 52 55 0 0 0
M  V30 BEGIN ATOM
M  V30 1 C 0.135219 -4.251904 2.770744 0
M  V30 2 N 1.247151 -4.690779 1.984539 0
M  V30 3 C 2.490526 -4.224346 2.512849 0
M  V30 4 C 2.711149 -2.755651 2.436608 0
M  V30 5 N 1.831555 -2.067565 1.490895 0
M  V30 6 C 2.477480 -0.866752 0.949296 0
M  V30 7 C 1.521274 -0.022203 0.124147 0
M  V30 8 C 0.358006 0.463663 1.006056 0
M  V30 9 N -0.590673 1.249014 0.257426 0
M  V30 10 C -0.243831 2.558244 -0.134938 0
M  V30 11 C 0.940129 3.164325 0.229291 0
M  V30 12 C 1.379426 4.442111 -0.084009 0
M  V30 13 C 0.513277 5.189084 -0.853361 0
M  V30 14 C -0.697040 4.687468 -1.274324 0
M  V30 15 C -1.002032 3.412795 -0.894332 0
M  V30 16 S -2.598052 2.891945 -1.498639 0
M  V30 17 C -2.819531 1.241586 -0.866244 0
M  V30 18 C -4.004766 0.690309 -1.215586 0
M  V30 19 C -4.290742 -0.604280 -0.785919 0
M  V30 20 C -3.335265 -1.252220 -0.021364 0
M  V30 21 C -3.690676 -2.639006 0.418482 0
M  V30 22 F -3.293393 -3.546394 -0.532667 0
M  V30 23 F -3.104397 -2.913976 1.639796 0
M  V30 24 F -5.061828 -2.731817 0.561854 0
M  V30 25 C -2.175290 -0.604357 0.272828 0
M  V30 26 C -1.826971 0.668713 -0.115414 0
M  V30 27 C 1.798929 -2.992228 0.331973 0
M  V30 28 C 1.045196 -4.252017 0.636002 0
M  V30 29 H 0.444311 -4.190419 3.826765 0
M  V30 30 H -0.163739 -3.233677 2.407222 0
M  V30 31 H -0.702725 -4.973426 2.611690 0
M  V30 32 H 3.362771 -4.778375 2.098738 0
M  V30 33 H 2.486060 -4.524308 3.603356 0
M  V30 34 H 3.749938 -2.530949 2.145513 0
M  V30 35 H 2.580592 -2.328909 3.468354 0
M  V30 36 H 2.860939 -0.301586 1.821124 0
M  V30 37 H 3.345806 -1.090365 0.322957 0
M  V30 38 H 2.115700 0.786241 -0.321797 0
M  V30 39 H 1.098412 -0.615408 -0.706775 0
M  V30 40 H 0.003162 -0.423215 1.487427 0
M  V30 41 H 0.784143 1.142653 1.791804 0
M  V30 42 H 1.667779 2.650842 0.859912 0
M  V30 43 H 2.325114 4.847868 0.238960 0
M  V30 44 H 0.836559 6.205279 -1.117676 0
M  V30 45 H -1.314846 5.337298 -1.875276 0
M  V30 46 H -4.774988 1.158390 -1.807317 0
M  V30 47 H -5.226639 -1.073916 -1.048582 0
M  V30 48 H -1.545852 -1.247349 0.867688 0
M  V30 49 H 1.392829 -2.529832 -0.558915 0
M  V30 50 H 2.884344 -3.249113 0.167415 0
M  V30 51 H -0.019150 -4.130279 0.373591 0
M  V30 52 H 1.458988 -5.047753 -0.018478 0
M  V30 END ATOM
M  V30 BEGIN BOND
M  V30 1 1 1 2
M  V30 2 1 2 3
M  V30 3 1 3 4
M  V30 4 1 4 5
M  V30 5 1 5 6
M  V30 6 1 6 7
M  V30 7 1 7 8
M  V30 8 1 8 9
M  V30 9 1 9 10
M  V30 10 2 10 11
M  V30 11 1 11 12
M  V30 12 2 12 13
M  V30 13 1 13 14
M  V30 14 2 14 15
M  V30 15 1 15 16
M  V30 16 1 16 17
M  V30 17 2 17 18
M  V30 18 1 18 19
M  V30 19 2 19 20
M  V30 20 1 20 21
M  V30 21 1 21 22
M  V30 22 1 21 23
M  V30 23 1 21 24
M  V30 24 1 20 25
M  V30 25 2 25 26
M  V30 26 1 5 27
M  V30 27 1 27 28
M  V30 28 1 28 2
M  V30 29 1 26 9
M  V30 30 1 15 10
M  V30 31 1 26 17
M  V30 32 1 1 29
M  V30 33 1 1 30
M  V30 34 1 1 31
M  V30 35 1 3 32
M  V30 36 1 3 33
M  V30 37 1 4 34
M  V30 38 1 4 35
M  V30 39 1 6 36
M  V30 40 1 6 37
M  V30 41 1 7 38
M  V30 42 1 7 39
M  V30 43 1 8 40
M  V30 44 1 8 41
M  V30 45 1 11 42
M  V30 46 1 12 43
M  V30 47 1 13 44
M  V30 48 1 14 45
M  V30 49 1 18 46
M  V30 50 1 19 47
M  V30 51 1 25 48
M  V30 52 1 27 49
M  V30 53 1 27 50
M  V30 54 1 28 51
M  V30 55 1 28 52
M  V30 END BOND
M  V30 END CTAB
M  END
>  <Dataset>  (2) 
OralDrugs

>  <Ligand_Instance>  (2) 
nan

>  <PDB_ID>  (2) 
nan

>  <Standardized_SMILES>  (2) 
CN1CCN(CCCN2c3ccccc3Sc3ccc(C(F)(F)F)cc32)CC1

>  <Name>  (2) 
Trifluoperazine

>  <Pocket>  (2) 
nan

>  <ATP_Site>  (2) 
nan

>  <Peripheral>  (2) 
nan

>  <Num_H_Atoms_ProtBoundConf>  (2) 
nan

>  <Num_Resolved_Atoms>  (2) 
nan

>  <Num_Not_Resolved_Atoms>  (2) 
nan

$$$$
CHEMBL570
     RDKit          3D

  0  0  0  0  0  0  0  0  0  0999 V3000
M  V30 BEGIN CTAB
M  V30 COUNTS 43 45 0 0 0
M  V30 BEGIN ATOM
M  V30 1 C -4.041872 0.318557 -2.310371 0
M  V30 2 N -3.139969 0.079523 -1.205575 0
M  V30 3 C -3.822553 -0.580094 -0.161629 0
M  V30 4 C -2.240240 1.125339 -0.902585 0
M  V30 5 C -1.161752 1.417592 -1.889665 0
M  V30 6 C -0.201291 0.340458 -2.191977 0
M  V30 7 N 0.594008 -0.179863 -1.110880 0
M  V30 8 C 1.648304 0.599141 -0.584720 0
M  V30 9 C 1.990859 1.817758 -1.126036 0
M  V30 10 C 3.002457 2.654996 -0.716491 0
M  V30 11 C 3.781161 2.239273 0.368267 0
M  V30 12 C 3.480785 1.007328 0.959678 0
M  V30 13 C 2.461476 0.280483 0.462997 0
M  V30 14 S 2.230675 -1.257401 1.328211 0
M  V30 15 C 0.892648 -2.062160 0.498041 0
M  V30 16 C 0.579412 -3.274582 1.009668 0
M  V30 17 C -0.467711 -4.012023 0.446451 0
M  V30 18 C -1.142293 -3.436691 -0.636226 0
M  V30 19 C -2.244504 -4.267327 -1.189483 0
M  V30 20 F -2.720167 -3.710529 -2.344975 0
M  V30 21 F -3.262987 -4.227994 -0.250774 0
M  V30 22 F -1.875644 -5.584460 -1.335668 0
M  V30 23 C -0.754655 -2.197362 -1.090996 0
M  V30 24 C 0.269746 -1.447806 -0.559976 0
M  V30 25 H -3.958469 -0.467729 -3.098978 0
M  V30 26 H -5.104875 0.310047 -1.992949 0
M  V30 27 H -3.715708 1.256589 -2.779843 0
M  V30 28 H -4.736082 0.017075 0.078254 0
M  V30 29 H -3.272325 -0.620458 0.802765 0
M  V30 30 H -4.213645 -1.582598 -0.451590 0
M  V30 31 H -2.891679 2.039263 -0.824044 0
M  V30 32 H -1.880920 1.018041 0.143216 0
M  V30 33 H -1.707323 1.590150 -2.870698 0
M  V30 34 H -0.767970 2.423607 -1.670471 0
M  V30 35 H 0.531019 0.804384 -2.938411 0
M  V30 36 H -0.652678 -0.415548 -2.863827 0
M  V30 37 H 1.483548 2.250332 -1.974044 0
M  V30 38 H 3.258222 3.609138 -1.151585 0
M  V30 39 H 4.586914 2.861741 0.728764 0
M  V30 40 H 4.121586 0.761243 1.782342 0
M  V30 41 H 1.075362 -3.752085 1.842845 0
M  V30 42 H -0.736478 -4.980342 0.836996 0
M  V30 43 H -1.361878 -1.913622 -1.905439 0
M  V30 END ATOM
M  V30 BEGIN BOND
M  V30 1 1 1 2
M  V30 2 1 2 3
M  V30 3 1 2 4
M  V30 4 1 4 5
M  V30 5 1 5 6
M  V30 6 1 6 7
M  V30 7 1 7 8
M  V30 8 2 8 9
M  V30 9 1 9 10
M  V30 10 2 10 11
M  V30 11 1 11 12
M  V30 12 2 12 13
M  V30 13 1 13 14
M  V30 14 1 14 15
M  V30 15 2 15 16
M  V30 16 1 16 17
M  V30 17 2 17 18
M  V30 18 1 18 19
M  V30 19 1 19 20
M  V30 20 1 19 21
M  V30 21 1 19 22
M  V30 22 1 18 23
M  V30 23 2 23 24
M  V30 24 1 24 7
M  V30 25 1 13 8
M  V30 26 1 24 15
M  V30 27 1 1 25
M  V30 28 1 1 26
M  V30 29 1 1 27
M  V30 30 1 3 28
M  V30 31 1 3 29
M  V30 32 1 3 30
M  V30 33 1 4 31
M  V30 34 1 4 32
M  V30 35 1 5 33
M  V30 36 1 5 34
M  V30 37 1 6 35
M  V30 38 1 6 36
M  V30 39 1 9 37
M  V30 40 1 10 38
M  V30 41 1 11 39
M  V30 42 1 12 40
M  V30 43 1 16 41
M  V30 44 1 17 42
M  V30 45 1 23 43
M  V30 END BOND
M  V30 END CTAB
M  END
>  <Dataset>  (3) 
OralDrugs

>  <Ligand_Instance>  (3) 
nan

>  <PDB_ID>  (3) 
nan

>  <Standardized_SMILES>  (3) 
CN(C)CCCN1c2ccccc2Sc2ccc(C(F)(F)F)cc21

>  <Name>  (3) 
Triflupromazine

>  <Pocket>  (3) 
nan

>  <ATP_Site>  (3) 
nan

>  <Peripheral>  (3) 
nan

>  <Num_H_Atoms_ProtBoundConf>  (3) 
nan

>  <Num_Resolved_Atoms>  (3) 
nan

>  <Num_Not_Resolved_Atoms>  (3) 
nan

$$$$
CHEMBL1129
     RDKit          3D

  0  0  0  0  0  0  0  0  0  0999 V3000
M  V30 BEGIN CTAB
M  V30 COUNTS 31 32 0 0 0
M  V30 BEGIN ATOM
M  V30 1 O -1.727646 -0.358381 4.831285 0
M  V30 2 C -1.025388 -0.203166 3.781771 0
M  V30 3 N 0.289353 -0.023106 4.005641 0
M  V30 4 C 1.058738 0.145234 2.889796 0
M  V30 5 O 2.296941 0.316688 3.063625 0
M  V30 6 N 0.511662 0.127688 1.660466 0
M  V30 7 C 1.460613 0.321647 0.554993 0 CFG=1
M  V30 8 C 2.207118 -1.011219 0.468204 0
M  V30 9 C 1.323184 -1.693402 -0.584583 0 CFG=2
M  V30 10 O 1.925370 -2.783375 -1.160609 0
M  V30 11 C 1.148678 -0.509862 -1.513151 0 CFG=1
M  V30 12 C 0.097872 -0.760319 -2.559070 0
M  V30 13 O 0.507701 -1.797847 -3.410469 0
M  V30 14 O 0.808064 0.497667 -0.644467 0
M  V30 15 C -0.805235 -0.052837 1.439576 0
M  V30 16 C -1.605940 -0.224795 2.536808 0
M  V30 17 C -3.079079 -0.431578 2.385735 0
M  V30 18 F -3.384353 -1.662716 2.943570 0
M  V30 19 F -3.827703 0.519590 3.017251 0
M  V30 20 F -3.398117 -0.484242 1.047063 0
M  V30 21 H 0.727232 -0.007255 4.954075 0
M  V30 22 H 2.138655 1.137033 0.850234 0
M  V30 23 H 2.220758 -1.557606 1.412364 0
M  V30 24 H 3.211339 -0.827961 0.015418 0
M  V30 25 H 0.347493 -1.896033 -0.099884 0
M  V30 26 H 1.318729 -3.573175 -1.001108 0
M  V30 27 H 2.101058 -0.257407 -2.019793 0
M  V30 28 H -0.905976 -0.887734 -2.152552 0
M  V30 29 H 0.092537 0.151152 -3.211105 0
M  V30 30 H 0.317158 -2.678499 -3.010894 0
M  V30 31 H -1.196178 -0.058494 0.425271 0
M  V30 END ATOM
M  V30 BEGIN BOND
M  V30 1 2 1 2
M  V30 2 1 2 3
M  V30 3 1 3 4
M  V30 4 2 4 5
M  V30 5 1 4 6
M  V30 6 1 6 7
M  V30 7 1 7 8
M  V30 8 1 8 9
M  V30 9 1 9 10
M  V30 10 1 9 11
M  V30 11 1 11 12
M  V30 12 1 12 13
M  V30 13 1 11 14
M  V30 14 1 6 15
M  V30 15 2 15 16
M  V30 16 1 16 17
M  V30 17 1 17 18
M  V30 18 1 17 19
M  V30 19 1 17 20
M  V30 20 1 16 2
M  V30 21 1 14 7
M  V30 22 1 3 21
M  V30 23 1 7 22 CFG=1
M  V30 24 1 8 23
M  V30 25 1 8 24
M  V30 26 1 9 25 CFG=1
M  V30 27 1 10 26
M  V30 28 1 11 27 CFG=3
M  V30 29 1 12 28
M  V30 30 1 12 29
M  V30 31 1 13 30
M  V30 32 1 15 31
M  V30 END BOND
M  V30 END CTAB
M  END
>  <Dataset>  (4) 
OralDrugs

>  <Ligand_Instance>  (4) 
nan

>  <PDB_ID>  (4) 
nan

>  <Standardized_SMILES>  (4) 
O=c1[nH]c(=O)n([C@H]2C[C@H](O)[C@@H](CO)O2)cc1C(F)(F)F

>  <Name>  (4) 
Trifluridine

>  <Pocket>  (4) 
nan

>  <ATP_Site>  (4) 
nan

>  <Peripheral>  (4) 
nan

>  <Num_H_Atoms_ProtBoundConf>  (4) 
nan

>  <Num_Resolved_Atoms>  (4) 
nan

>  <Num_Not_Resolved_Atoms>  (4) 
nan

$$$$
CHEMBL4297585
     RDKit          3D

  0  0  0  0  0  0  0  0  0  0999 V3000
M  V30 BEGIN CTAB
M  V30 COUNTS 74 73 0 0 0
M  V30 BEGIN ATOM
M  V30 1 C 3.794996 0.542483 5.799786 0
M  V30 2 C 4.831010 1.211111 4.945112 0
M  V30 3 C 4.254193 1.947032 3.755815 0
M  V30 4 C 3.303952 3.030758 4.168289 0
M  V30 5 C 2.721479 3.774290 2.964905 0
M  V30 6 C 1.965949 2.864666 2.059102 0
M  V30 7 C 1.389324 3.557089 0.879902 0
M  V30 8 O 1.411983 4.764999 0.486926 0
M  V30 9 O 0.704549 2.667551 0.088421 0
M  V30 10 C 0.032406 3.020137 -1.125835 0
M  V30 11 C -0.568692 1.689047 -1.621479 0
M  V30 12 C -1.198484 1.878865 -2.979690 0
M  V30 13 O -1.752488 0.674838 -3.465222 0
M  V30 14 C -1.005825 -0.446621 -3.677253 0
M  V30 15 O 0.230538 -0.543926 -3.472489 0
M  V30 16 C -1.761851 -1.639289 -4.198094 0
M  V30 17 C -2.167503 -2.588794 -3.118086 0
M  V30 18 C -2.926724 -3.784916 -3.650699 0
M  V30 19 C -2.124947 -4.585146 -4.625677 0
M  V30 20 C -0.850590 -5.130223 -4.023534 0
M  V30 21 C -1.093370 -6.028477 -2.859039 0
M  V30 22 O -1.418725 1.256746 -0.640983 0
M  V30 23 C -1.435033 0.195890 0.203860 0
M  V30 24 O -0.377825 -0.170702 -0.306296 0
M  V30 25 C -2.636231 0.259038 1.060854 0
M  V30 26 C -2.805849 -0.853498 2.018741 0
M  V30 27 C -2.984494 -2.225487 1.526767 0
M  V30 28 C -1.918193 -2.853822 0.713880 0
M  V30 29 C -0.594928 -2.961996 1.408684 0
M  V30 30 C -0.681529 -3.802954 2.669421 0
M  V30 31 H 3.425602 1.219753 6.593737 0
M  V30 32 H 2.936870 0.164664 5.228062 0
M  V30 33 H 4.276369 -0.375533 6.250074 0
M  V30 34 H 5.378803 1.925422 5.620778 0
M  V30 35 H 5.597759 0.474374 4.635011 0
M  V30 36 H 3.770077 1.187358 3.112892 0
M  V30 37 H 5.118412 2.346089 3.184926 0
M  V30 38 H 3.786410 3.723897 4.854471 0
M  V30 39 H 2.418198 2.511765 4.626097 0
M  V30 40 H 2.162442 4.645177 3.312157 0
M  V30 41 H 3.621757 4.186408 2.441681 0
M  V30 42 H 2.656522 2.090959 1.664650 0
M  V30 43 H 1.207389 2.337659 2.670551 0
M  V30 44 H -0.820372 3.665051 -0.832019 0
M  V30 45 H 0.700965 3.465669 -1.869648 0
M  V30 46 H 0.311240 1.046902 -1.779583 0
M  V30 47 H -1.870022 2.729728 -3.068194 0
M  V30 48 H -0.340536 2.102656 -3.673461 0
M  V30 49 H -1.098055 -2.195841 -4.896713 0
M  V30 50 H -2.657362 -1.332690 -4.773440 0
M  V30 51 H -1.272614 -2.929393 -2.583973 0
M  V30 52 H -2.846193 -2.034155 -2.428823 0
M  V30 53 H -3.353492 -4.395195 -2.839452 0
M  V30 54 H -3.829888 -3.414700 -4.218345 0
M  V30 55 H -1.914124 -3.956930 -5.511275 0
M  V30 56 H -2.704757 -5.456084 -4.992479 0
M  V30 57 H -0.219683 -4.271514 -3.716618 0
M  V30 58 H -0.273738 -5.710742 -4.770488 0
M  V30 59 H -1.377335 -7.052447 -3.154293 0
M  V30 60 H -1.809198 -5.634438 -2.106622 0
M  V30 61 H -0.125709 -6.111996 -2.294115 0
M  V30 62 H -2.540252 1.220413 1.658089 0
M  V30 63 H -3.562058 0.448076 0.456367 0
M  V30 64 H -1.942014 -0.826568 2.761557 0
M  V30 65 H -3.692797 -0.618838 2.677333 0
M  V30 66 H -3.240087 -2.865312 2.418104 0
M  V30 67 H -3.933191 -2.231456 0.906707 0
M  V30 68 H -2.216189 -3.932113 0.459772 0
M  V30 69 H -1.806365 -2.383929 -0.251327 0
M  V30 70 H -0.273737 -1.963398 1.735201 0
M  V30 71 H 0.137566 -3.358545 0.707177 0
M  V30 72 H -0.761360 -4.884843 2.469458 0
M  V30 73 H -1.439059 -3.418955 3.349961 0
M  V30 74 H 0.312920 -3.670300 3.171434 0
M  V30 END ATOM
M  V30 BEGIN BOND
M  V30 1 1 1 2
M  V30 2 1 2 3
M  V30 3 1 3 4
M  V30 4 1 4 5
M  V30 5 1 5 6
M  V30 6 1 6 7
M  V30 7 2 7 8
M  V30 8 1 7 9
M  V30 9 1 9 10
M  V30 10 1 10 11
M  V30 11 1 11 12
M  V30 12 1 12 13
M  V30 13 1 13 14
M  V30 14 2 14 15
M  V30 15 1 14 16
M  V30 16 1 16 17
M  V30 17 1 17 18
M  V30 18 1 18 19
M  V30 19 1 19 20
M  V30 20 1 20 21
M  V30 21 1 11 22
M  V30 22 1 22 23
M  V30 23 2 23 24
M  V30 24 1 23 25
M  V30 25 1 25 26
M  V30 26 1 26 27
M  V30 27 1 27 28
M  V30 28 1 28 29
M  V30 29 1 29 30
M  V30 30 1 1 31
M  V30 31 1 1 32
M  V30 32 1 1 33
M  V30 33 1 2 34
M  V30 34 1 2 35
M  V30 35 1 3 36
M  V30 36 1 3 37
M  V30 37 1 4 38
M  V30 38 1 4 39
M  V30 39 1 5 40
M  V30 40 1 5 41
M  V30 41 1 6 42
M  V30 42 1 6 43
M  V30 43 1 10 44
M  V30 44 1 10 45
M  V30 45 1 11 46
M  V30 46 1 12 47
M  V30 47 1 12 48
M  V30 48 1 16 49
M  V30 49 1 16 50
M  V30 50 1 17 51
M  V30 51 1 17 52
M  V30 52 1 18 53
M  V30 53 1 18 54
M  V30 54 1 19 55
M  V30 55 1 19 56
M  V30 56 1 20 57
M  V30 57 1 20 58
M  V30 58 1 21 59
M  V30 59 1 21 60
M  V30 60 1 21 61
M  V30 61 1 25 62
M  V30 62 1 25 63
M  V30 63 1 26 64
M  V30 64 1 26 65
M  V30 65 1 27 66
M  V30 66 1 27 67
M  V30 67 1 28 68
M  V30 68 1 28 69
M  V30 69 1 29 70
M  V30 70 1 29 71
M  V30 71 1 30 72
M  V30 72 1 30 73
M  V30 73 1 30 74
M  V30 END BOND
M  V30 END CTAB
M  END
>  <Dataset>  (5) 
OralDrugs

>  <Ligand_Instance>  (5) 
nan

>  <PDB_ID>  (5) 
nan

>  <Standardized_SMILES>  (5) 
CCCCCCC(=O)OCC(COC(=O)CCCCCC)OC(=O)CCCCCC

>  <Name>  (5) 
Triheptanoin

>  <Pocket>  (5) 
nan

>  <ATP_Site>  (5) 
nan

>  <Peripheral>  (5) 
nan

>  <Num_H_Atoms_ProtBoundConf>  (5) 
nan

>  <Num_Resolved_Atoms>  (5) 
nan

>  <Num_Not_Resolved_Atoms>  (5) 
nan

$$$$
CHEMBL1490
     RDKit          3D

  0  0  0  0  0  0  0  0  0  0999 V3000
M  V30 BEGIN CTAB
M  V30 COUNTS 53 55 0 0 0
M  V30 BEGIN ATOM
M  V30 1 O 0.541641 0.951522 0.448015 0
M  V30 2 C -0.156128 0.028472 1.225027 0
M  V30 3 C 0.364159 -1.358084 1.179563 0
M  V30 4 C 0.405778 -2.045594 -0.127841 0
M  V30 5 N 1.206997 -1.394276 -1.133303 0
M  V30 6 C 1.170922 -2.149116 -2.372330 0
M  V30 7 C 2.395141 -2.962795 -2.629315 0
M  V30 8 C 3.524157 -1.981827 -2.917573 0
M  V30 9 C 3.586647 -1.053583 -1.739952 0
M  V30 10 C 2.578917 -1.353947 -0.681712 0
M  V30 11 C 0.029736 0.576037 2.633996 0
M  V30 12 C -0.294446 1.880699 2.936987 0
M  V30 13 C -0.138843 2.391509 4.206606 0
M  V30 14 C 0.350852 1.602117 5.218240 0
M  V30 15 C 0.679460 0.310339 4.948406 0
M  V30 16 C 0.512029 -0.169233 3.669993 0
M  V30 17 C -1.619250 0.201314 0.968272 0
M  V30 18 C -2.098780 0.021159 -0.414698 0
M  V30 19 C -3.208066 -1.032342 -0.533335 0
M  V30 20 C -4.410407 -0.603824 0.283703 0
M  V30 21 C -3.911532 -0.410230 1.696757 0
M  V30 22 C -2.446369 -0.735347 1.861242 0
M  V30 23 H 1.353759 1.301452 0.919899 0
M  V30 24 H -0.165877 -2.000697 1.923013 0
M  V30 25 H 1.415428 -1.326942 1.597111 0
M  V30 26 H -0.562580 -2.331540 -0.574009 0
M  V30 27 H 0.892147 -3.058084 0.061515 0
M  V30 28 H 0.986223 -1.500745 -3.251871 0
M  V30 29 H 0.310183 -2.874905 -2.328449 0
M  V30 30 H 2.192161 -3.559542 -3.555118 0
M  V30 31 H 2.613179 -3.663782 -1.823355 0
M  V30 32 H 3.240042 -1.460329 -3.858802 0
M  V30 33 H 4.435262 -2.571434 -3.089031 0
M  V30 34 H 3.589885 0.024680 -2.017936 0
M  V30 35 H 4.583200 -1.226258 -1.273192 0
M  V30 36 H 2.757363 -0.643325 0.148545 0
M  V30 37 H 2.811927 -2.374644 -0.258101 0
M  V30 38 H -0.679319 2.553996 2.185764 0
M  V30 39 H -0.403160 3.427102 4.419392 0
M  V30 40 H 0.453267 2.052873 6.196365 0
M  V30 41 H 1.061727 -0.299748 5.745303 0
M  V30 42 H 0.790473 -1.201790 3.520342 0
M  V30 43 H -1.913727 1.225092 1.329673 0
M  V30 44 H -1.373489 -0.201929 -1.191577 0
M  V30 45 H -2.607678 0.971234 -0.775311 0
M  V30 46 H -3.478543 -1.118446 -1.598739 0
M  V30 47 H -2.891369 -2.022353 -0.182494 0
M  V30 48 H -4.837720 0.295570 -0.165325 0
M  V30 49 H -5.136752 -1.414589 0.237946 0
M  V30 50 H -4.033571 0.652296 1.981873 0
M  V30 51 H -4.478274 -1.077389 2.371920 0
M  V30 52 H -2.183222 -1.783128 1.710357 0
M  V30 53 H -2.217492 -0.519645 2.935146 0
M  V30 END ATOM
M  V30 BEGIN BOND
M  V30 1 1 1 2
M  V30 2 1 2 3
M  V30 3 1 3 4
M  V30 4 1 4 5
M  V30 5 1 5 6
M  V30 6 1 6 7
M  V30 7 1 7 8
M  V30 8 1 8 9
M  V30 9 1 9 10
M  V30 10 1 2 11
M  V30 11 2 11 12
M  V30 12 1 12 13
M  V30 13 2 13 14
M  V30 14 1 14 15
M  V30 15 2 15 16
M  V30 16 1 2 17
M  V30 17 1 17 18
M  V30 18 1 18 19
M  V30 19 1 19 20
M  V30 20 1 20 21
M  V30 21 1 21 22
M  V30 22 1 10 5
M  V30 23 1 16 11
M  V30 24 1 22 17
M  V30 25 1 1 23
M  V30 26 1 3 24
M  V30 27 1 3 25
M  V30 28 1 4 26
M  V30 29 1 4 27
M  V30 30 1 6 28
M  V30 31 1 6 29
M  V30 32 1 7 30
M  V30 33 1 7 31
M  V30 34 1 8 32
M  V30 35 1 8 33
M  V30 36 1 9 34
M  V30 37 1 9 35
M  V30 38 1 10 36
M  V30 39 1 10 37
M  V30 40 1 12 38
M  V30 41 1 13 39
M  V30 42 1 14 40
M  V30 43 1 15 41
M  V30 44 1 16 42
M  V30 45 1 17 43
M  V30 46 1 18 44
M  V30 47 1 18 45
M  V30 48 1 19 46
M  V30 49 1 19 47
M  V30 50 1 20 48
M  V30 51 1 20 49
M  V30 52 1 21 50
M  V30 53 1 21 51
M  V30 54 1 22 52
M  V30 55 1 22 53
M  V30 END BOND
M  V30 END CTAB
M  END
>  <Dataset>  (6) 
OralDrugs

>  <Ligand_Instance>  (6) 
nan

>  <PDB_ID>  (6) 
nan

>  <Standardized_SMILES>  (6) 
OC(CCN1CCCCC1)(c1ccccc1)C1CCCCC1

>  <Name>  (6) 
Trihexyphenidyl

>  <Pocket>  (6) 
nan

>  <ATP_Site>  (6) 
nan

>  <Peripheral>  (6) 
nan

>  <Num_H_Atoms_ProtBoundConf>  (6) 
nan

>  <Num_Resolved_Atoms>  (6) 
nan

>  <Num_Not_Resolved_Atoms>  (6) 
nan

$$$$
CHEMBL1200907
     RDKit          3D

  0  0  0  0  0  0  0  0  0  0999 V3000
M  V30 BEGIN CTAB
M  V30 COUNTS 51 55 0 0 0
M  V30 BEGIN ATOM
M  V30 1 C 1.601108 -0.404607 1.072711 0
M  V30 2 C 1.961703 -0.995690 -0.245394 0 CFG=2
M  V30 3 C 2.166664 0.045628 -1.322459 0
M  V30 4 C 0.892572 0.795335 -1.544194 0
M  V30 5 C -0.295198 -0.070082 -1.789463 0 CFG=1
M  V30 6 C -0.389275 -1.248131 -0.863609 0 CFG=1
M  V30 7 C -1.530376 -2.133756 -1.244060 0
M  V30 8 C -2.468318 -1.589056 -2.259492 0
M  V30 9 C -2.677823 -0.115918 -2.234864 0 CFG=1
M  V30 10 O -2.875204 0.370287 -3.645696 0
M  V30 11 C -3.846640 0.562299 -2.676639 0 CFG=2
M  V30 12 C -3.958838 1.942047 -2.169945 0
M  V30 13 O -5.228524 2.505082 -1.935332 0
M  V30 14 C -2.878079 2.673074 -1.927552 0
M  V30 15 C -2.938919 4.024232 -1.432696 0
M  V30 16 N -2.983124 5.113182 -1.040220 0
M  V30 17 C -1.506503 2.095926 -2.170923 0
M  V30 18 C -1.577855 0.687007 -1.619246 0 CFG=2
M  V30 19 C -1.913443 0.837646 -0.133137 0
M  V30 20 C 0.918720 -1.947332 -0.807604 0 CFG=2
M  V30 21 C 0.983811 -3.096785 0.142126 0
M  V30 22 C 2.490917 -3.276855 0.306077 0
M  V30 23 C 3.113480 -1.929668 -0.070297 0 CFG=2
M  V30 24 O 3.894389 -1.561418 1.028499 0
M  V30 25 H 0.803762 -0.894492 1.631404 0
M  V30 26 H 2.515255 -0.413665 1.735224 0
M  V30 27 H 1.321470 0.675720 1.032113 0
M  V30 28 H 2.949415 0.765394 -1.030226 0
M  V30 29 H 2.497126 -0.484968 -2.245333 0
M  V30 30 H 0.749810 1.535634 -0.729971 0
M  V30 31 H 1.056451 1.411257 -2.478275 0
M  V30 32 H -0.274819 -0.406624 -2.856630 0
M  V30 33 H -0.604214 -0.856746 0.155381 0
M  V30 34 H -1.066388 -3.068145 -1.667149 0
M  V30 35 H -2.068624 -2.515508 -0.330819 0
M  V30 36 H -3.476535 -2.045460 -2.028597 0
M  V30 37 H -2.234530 -2.012095 -3.274976 0
M  V30 38 H -4.794711 -0.014453 -2.731685 0
M  V30 39 H -5.431449 2.708911 -0.949487 0
M  V30 40 H -0.764053 2.641953 -1.539042 0
M  V30 41 H -1.216614 2.128395 -3.225222 0
M  V30 42 H -2.470283 -0.037565 0.242133 0
M  V30 43 H -2.638035 1.701425 -0.068842 0
M  V30 44 H -1.039944 1.127690 0.463051 0
M  V30 45 H 1.299634 -2.281299 -1.794288 0
M  V30 46 H 0.549021 -4.036893 -0.286234 0
M  V30 47 H 0.459741 -2.932430 1.090935 0
M  V30 48 H 2.798756 -4.022488 -0.477931 0
M  V30 49 H 2.748603 -3.610526 1.310436 0
M  V30 50 H 3.757619 -2.010677 -0.965368 0
M  V30 51 H 4.165702 -2.362385 1.568568 0
M  V30 END ATOM
M  V30 BEGIN BOND
M  V30 1 1 2 1 CFG=1
M  V30 2 1 2 3
M  V30 3 1 3 4
M  V30 4 1 4 5
M  V30 5 1 5 6
M  V30 6 1 6 7
M  V30 7 1 7 8
M  V30 8 1 8 9
M  V30 9 1 9 10 CFG=3
M  V30 10 1 10 11
M  V30 11 1 11 12
M  V30 12 1 12 13
M  V30 13 2 12 14
M  V30 14 1 14 15
M  V30 15 3 15 16
M  V30 16 1 14 17
M  V30 17 1 17 18
M  V30 18 1 18 19 CFG=1
M  V30 19 1 6 20
M  V30 20 1 20 21
M  V30 21 1 21 22
M  V30 22 1 22 23
M  V30 23 1 23 24
M  V30 24 1 20 2
M  V30 25 1 23 2
M  V30 26 1 18 5
M  V30 27 1 11 9
M  V30 28 1 18 9
M  V30 29 1 1 25
M  V30 30 1 1 26
M  V30 31 1 1 27
M  V30 32 1 3 28
M  V30 33 1 3 29
M  V30 34 1 4 30
M  V30 35 1 4 31
M  V30 36 1 5 32 CFG=3
M  V30 37 1 6 33 CFG=1
M  V30 38 1 7 34
M  V30 39 1 7 35
M  V30 40 1 8 36
M  V30 41 1 8 37
M  V30 42 1 11 38 CFG=3
M  V30 43 1 13 39
M  V30 44 1 17 40
M  V30 45 1 17 41
M  V30 46 1 19 42
M  V30 47 1 19 43
M  V30 48 1 19 44
M  V30 49 1 20 45 CFG=3
M  V30 50 1 21 46
M  V30 51 1 21 47
M  V30 52 1 22 48
M  V30 53 1 22 49
M  V30 54 1 23 50 CFG=3
M  V30 55 1 24 51
M  V30 END BOND
M  V30 END CTAB
M  END
>  <Dataset>  (7) 
OralDrugs

>  <Ligand_Instance>  (7) 
nan

>  <PDB_ID>  (7) 
nan

>  <Standardized_SMILES>  (7) 
C[C@]12CC[C@H]3[C@@H](CC[C@@]45O[C@@H]4C(O)=C(C#N)C[C@]35C)[C@@H]1CC[C@@H]2O

>  <Name>  (7) 
Trilostane

>  <Pocket>  (7) 
nan

>  <ATP_Site>  (7) 
nan

>  <Peripheral>  (7) 
nan

>  <Num_H_Atoms_ProtBoundConf>  (7) 
nan

>  <Num_Resolved_Atoms>  (7) 
nan

>  <Num_Not_Resolved_Atoms>  (7) 
nan

$$$$
CHEMBL695
     RDKit          3D

  0  0  0  0  0  0  0  0  0  0999 V3000
M  V30 BEGIN CTAB
M  V30 COUNTS 19 19 0 0 0
M  V30 BEGIN ATOM
M  V30 1 C -0.943905 -0.335585 -1.204737 0
M  V30 2 N 0.035506 -0.561332 -0.157832 0
M  V30 3 C 0.409144 -1.742485 0.564431 0
M  V30 4 O -0.205888 -2.797743 0.259908 0
M  V30 5 O 1.409506 -1.398137 1.464271 0
M  V30 6 C 1.503228 -0.002454 1.555076 0
M  V30 7 C 2.950416 0.447874 1.505792 0
M  V30 8 C 0.775154 0.540375 2.754107 0
M  V30 9 C 0.836017 0.509725 0.327686 0
M  V30 10 O 1.046363 1.686068 -0.068805 0
M  V30 11 H -0.423712 -0.273066 -2.174805 0
M  V30 12 H -1.483766 0.606025 -1.042851 0
M  V30 13 H -1.655730 -1.185011 -1.209097 0
M  V30 14 H 3.528861 0.189209 2.399679 0
M  V30 15 H 3.392202 0.010655 0.587057 0
M  V30 16 H 2.942028 1.556253 1.331344 0
M  V30 17 H 1.400270 1.261636 3.340860 0
M  V30 18 H -0.172733 1.043289 2.448499 0
M  V30 19 H 0.455536 -0.263668 3.450349 0
M  V30 END ATOM
M  V30 BEGIN BOND
M  V30 1 1 1 2
M  V30 2 1 2 3
M  V30 3 2 3 4
M  V30 4 1 3 5
M  V30 5 1 5 6
M  V30 6 1 6 7
M  V30 7 1 6 8
M  V30 8 1 6 9
M  V30 9 2 9 10
M  V30 10 1 9 2
M  V30 11 1 1 11
M  V30 12 1 1 12
M  V30 13 1 1 13
M  V30 14 1 7 14
M  V30 15 1 7 15
M  V30 16 1 7 16
M  V30 17 1 8 17
M  V30 18 1 8 18
M  V30 19 1 8 19
M  V30 END BOND
M  V30 END CTAB
M  END
>  <Dataset>  (8) 
OralDrugs

>  <Ligand_Instance>  (8) 
nan

>  <PDB_ID>  (8) 
nan

>  <Standardized_SMILES>  (8) 
CN1C(=O)OC(C)(C)C1=O

>  <Name>  (8) 
Trimethadione

>  <Pocket>  (8) 
nan

>  <ATP_Site>  (8) 
nan

>  <Peripheral>  (8) 
nan

>  <Num_H_Atoms_ProtBoundConf>  (8) 
nan

>  <Num_Resolved_Atoms>  (8) 
nan

>  <Num_Not_Resolved_Atoms>  (8) 
nan

$$$$
CHEMBL1201256
     RDKit          3D

  0  0  0  0  0  0  0  0  0  0999 V3000
M  V30 BEGIN CTAB
M  V30 COUNTS 56 57 0 0 0
M  V30 BEGIN ATOM
M  V30 1 C 3.374920 -4.650444 2.157516 0
M  V30 2 O 2.497422 -5.381678 1.317676 0
M  V30 3 C 1.859105 -4.732841 0.283308 0
M  V30 4 C 2.047340 -3.389201 0.037100 0
M  V30 5 C 1.412444 -2.742892 -0.992097 0
M  V30 6 C 1.537359 -1.333281 -1.338545 0
M  V30 7 O 0.896259 -0.866135 -2.337634 0
M  V30 8 N 2.336170 -0.431172 -0.628363 0
M  V30 9 C 2.554243 0.984461 -0.855556 0
M  V30 10 C 1.394477 1.805814 -0.397683 0
M  V30 11 C 0.329668 2.165517 -1.200219 0
M  V30 12 C -0.696534 2.937192 -0.638486 0
M  V30 13 C -0.669081 3.348561 0.702902 0
M  V30 14 O -1.798376 4.072995 0.924686 0
M  V30 15 C -2.259504 4.692023 2.081984 0
M  V30 16 C -2.528910 3.729659 3.183413 0
M  V30 17 N -3.543840 2.759136 2.777126 0
M  V30 18 C -3.845549 1.805030 3.802751 0
M  V30 19 C -4.713641 3.386089 2.219212 0
M  V30 20 C 0.423207 2.950846 1.434071 0
M  V30 21 C 1.451130 2.194074 0.923567 0
M  V30 22 C 0.569960 -3.548993 -1.760357 0
M  V30 23 C 0.349523 -4.884528 -1.557513 0
M  V30 24 O -0.493895 -5.640837 -2.344476 0
M  V30 25 C -1.219459 -5.147750 -3.431652 0
M  V30 26 C 1.011315 -5.487673 -0.510027 0
M  V30 27 O 0.828887 -6.848884 -0.250294 0
M  V30 28 C 1.721884 -7.734581 -0.910820 0
M  V30 29 H 2.846289 -3.727631 2.490793 0
M  V30 30 H 4.274845 -4.318539 1.606585 0
M  V30 31 H 3.737993 -5.248083 3.007326 0
M  V30 32 H 2.699642 -2.819887 0.651561 0
M  V30 33 H 2.849116 -0.853991 0.188779 0
M  V30 34 H 3.470646 1.328968 -0.344212 0
M  V30 35 H 2.741327 1.175662 -1.938399 0
M  V30 36 H 0.377349 1.816462 -2.218190 0
M  V30 37 H -1.446175 3.125598 -1.407673 0
M  V30 38 H -1.403879 5.353603 2.428633 0
M  V30 39 H -3.107403 5.385502 1.891722 0
M  V30 40 H -2.951331 4.302682 4.052464 0
M  V30 41 H -1.674586 3.163988 3.516003 0
M  V30 42 H -4.706345 2.138087 4.417836 0
M  V30 43 H -3.004321 1.675674 4.520024 0
M  V30 44 H -4.068426 0.800139 3.390589 0
M  V30 45 H -5.642861 2.810757 2.455055 0
M  V30 46 H -4.847456 4.407614 2.619619 0
M  V30 47 H -4.550919 3.466233 1.124365 0
M  V30 48 H 0.372626 3.315813 2.445890 0
M  V30 49 H 2.215297 1.985685 1.655977 0
M  V30 50 H 0.029480 -3.090863 -2.603112 0
M  V30 51 H -1.857323 -4.286190 -3.158892 0
M  V30 52 H -1.924461 -5.956331 -3.754519 0
M  V30 53 H -0.581926 -4.904760 -4.295953 0
M  V30 54 H 2.777524 -7.400813 -0.720412 0
M  V30 55 H 1.596499 -7.685183 -2.009476 0
M  V30 56 H 1.575759 -8.776566 -0.581127 0
M  V30 END ATOM
M  V30 BEGIN BOND
M  V30 1 1 1 2
M  V30 2 1 2 3
M  V30 3 2 3 4
M  V30 4 1 4 5
M  V30 5 1 5 6
M  V30 6 2 6 7
M  V30 7 1 6 8
M  V30 8 1 8 9
M  V30 9 1 9 10
M  V30 10 2 10 11
M  V30 11 1 11 12
M  V30 12 2 12 13
M  V30 13 1 13 14
M  V30 14 1 14 15
M  V30 15 1 15 16
M  V30 16 1 16 17
M  V30 17 1 17 18
M  V30 18 1 17 19
M  V30 19 1 13 20
M  V30 20 2 20 21
M  V30 21 2 5 22
M  V30 22 1 22 23
M  V30 23 1 23 24
M  V30 24 1 24 25
M  V30 25 2 23 26
M  V30 26 1 26 27
M  V30 27 1 27 28
M  V30 28 1 26 3
M  V30 29 1 21 10
M  V30 30 1 1 29
M  V30 31 1 1 30
M  V30 32 1 1 31
M  V30 33 1 4 32
M  V30 34 1 8 33
M  V30 35 1 9 34
M  V30 36 1 9 35
M  V30 37 1 11 36
M  V30 38 1 12 37
M  V30 39 1 15 38
M  V30 40 1 15 39
M  V30 41 1 16 40
M  V30 42 1 16 41
M  V30 43 1 18 42
M  V30 44 1 18 43
M  V30 45 1 18 44
M  V30 46 1 19 45
M  V30 47 1 19 46
M  V30 48 1 19 47
M  V30 49 1 20 48
M  V30 50 1 21 49
M  V30 51 1 22 50
M  V30 52 1 25 51
M  V30 53 1 25 52
M  V30 54 1 25 53
M  V30 55 1 28 54
M  V30 56 1 28 55
M  V30 57 1 28 56
M  V30 END BOND
M  V30 END CTAB
M  END
>  <Dataset>  (9) 
OralDrugs

>  <Ligand_Instance>  (9) 
nan

>  <PDB_ID>  (9) 
nan

>  <Standardized_SMILES>  (9) 
COc1cc(C(=O)NCc2ccc(OCCN(C)C)cc2)cc(OC)c1OC

>  <Name>  (9) 
Trimethobenzamide

>  <Pocket>  (9) 
nan

>  <ATP_Site>  (9) 
nan

>  <Peripheral>  (9) 
nan

>  <Num_H_Atoms_ProtBoundConf>  (9) 
nan

>  <Num_Resolved_Atoms>  (9) 
nan

>  <Num_Not_Resolved_Atoms>  (9) 
nan

$$$$
CHEMBL22
     RDKit          3D

  0  0  0  0  0  0  0  0  0  0999 V3000
M  V30 BEGIN CTAB
M  V30 COUNTS 39 40 0 0 0
M  V30 BEGIN ATOM
M  V30 1 C -0.478431 -4.609264 1.213388 0
M  V30 2 O -0.616826 -3.680678 2.273314 0
M  V30 3 C -0.021142 -2.455381 2.153511 0
M  V30 4 C 0.717078 -2.042380 1.065900 0
M  V30 5 C 1.321560 -0.811733 0.932552 0
M  V30 6 C 2.109150 -0.361207 -0.228469 0
M  V30 7 C 1.357705 0.379467 -1.242176 0
M  V30 8 C 1.470376 1.772492 -1.315165 0
M  V30 9 N 0.796937 2.493553 -2.226652 0
M  V30 10 C -0.025723 1.926458 -3.124622 0
M  V30 11 N -0.681294 2.796353 -4.036158 0
M  V30 12 N -0.163109 0.583899 -3.088704 0
M  V30 13 C 0.505088 -0.159628 -2.180049 0
M  V30 14 N 0.324241 -1.557868 -2.194339 0
M  V30 15 C 1.165087 0.081894 1.996278 0
M  V30 16 C 0.440393 -0.262211 3.116176 0
M  V30 17 O 0.279332 0.623265 4.182364 0
M  V30 18 C 0.904576 1.886858 4.036495 0
M  V30 19 C -0.138294 -1.512878 3.182067 0
M  V30 20 O -0.859621 -1.822628 4.324847 0
M  V30 21 C -2.261828 -1.547272 4.425589 0
M  V30 22 H -1.080290 -4.298115 0.350221 0
M  V30 23 H 0.582640 -4.692646 0.896874 0
M  V30 24 H -0.771425 -5.599251 1.621312 0
M  V30 25 H 0.823379 -2.754861 0.260930 0
M  V30 26 H 2.642176 -1.190990 -0.735610 0
M  V30 27 H 2.923940 0.308708 0.167724 0
M  V30 28 H 2.134998 2.265473 -0.594635 0
M  V30 29 H -0.292494 3.411247 -4.791738 0
M  V30 30 H -1.733781 2.932553 -4.054720 0
M  V30 31 H -0.506773 -1.723165 -1.564434 0
M  V30 32 H 0.694081 -2.457437 -2.583391 0
M  V30 33 H 1.625019 1.067481 1.936497 0
M  V30 34 H 0.589876 2.540354 4.901399 0
M  V30 35 H 0.620778 2.412155 3.110215 0
M  V30 36 H 2.005840 1.827048 4.125759 0
M  V30 37 H -2.705488 -2.272817 5.137391 0
M  V30 38 H -2.709810 -1.605304 3.411649 0
M  V30 39 H -2.400961 -0.532348 4.884522 0
M  V30 END ATOM
M  V30 BEGIN BOND
M  V30 1 1 1 2
M  V30 2 1 2 3
M  V30 3 2 3 4
M  V30 4 1 4 5
M  V30 5 1 5 6
M  V30 6 1 6 7
M  V30 7 2 7 8
M  V30 8 1 8 9
M  V30 9 2 9 10
M  V30 10 1 10 11
M  V30 11 1 10 12
M  V30 12 2 12 13
M  V30 13 1 13 14
M  V30 14 2 5 15
M  V30 15 1 15 16
M  V30 16 1 16 17
M  V30 17 1 17 18
M  V30 18 2 16 19
M  V30 19 1 19 20
M  V30 20 1 20 21
M  V30 21 1 19 3
M  V30 22 1 13 7
M  V30 23 1 1 22
M  V30 24 1 1 23
M  V30 25 1 1 24
M  V30 26 1 4 25
M  V30 27 1 6 26
M  V30 28 1 6 27
M  V30 29 1 8 28
M  V30 30 1 11 29
M  V30 31 1 11 30
M  V30 32 1 14 31
M  V30 33 1 14 32
M  V30 34 1 15 33
M  V30 35 1 18 34
M  V30 36 1 18 35
M  V30 37 1 18 36
M  V30 38 1 21 37
M  V30 39 1 21 38
M  V30 40 1 21 39
M  V30 END BOND
M  V30 END CTAB
M  END
>  <Dataset>  (10) 
OralDrugs

>  <Ligand_Instance>  (10) 
nan

>  <PDB_ID>  (10) 
nan

>  <Standardized_SMILES>  (10) 
COc1cc(Cc2cnc(N)nc2N)cc(OC)c1OC

>  <Name>  (10) 
Trimethoprim

>  <Pocket>  (10) 
nan

>  <ATP_Site>  (10) 
nan

>  <Peripheral>  (10) 
nan

>  <Num_H_Atoms_ProtBoundConf>  (10) 
nan

>  <Num_Resolved_Atoms>  (10) 
nan

>  <Num_Not_Resolved_Atoms>  (10) 
nan

$$$$
CHEMBL644
     RDKit          3D

  0  0  0  0  0  0  0  0  0  0999 V3000
M  V30 BEGIN CTAB
M  V30 COUNTS 48 50 0 0 0
M  V30 BEGIN ATOM
M  V30 1 C -1.298499 -2.866978 1.102766 0
M  V30 2 C -0.371081 -2.519371 0.011161 0
M  V30 3 C 0.992680 -2.466041 0.672849 0
M  V30 4 N 2.059750 -2.142687 -0.241236 0
M  V30 5 C 3.295510 -2.128259 0.530971 0
M  V30 6 C 2.187996 -3.061154 -1.329627 0
M  V30 7 C -0.715770 -1.215871 -0.731744 0
M  V30 8 N -0.724527 -0.085722 0.126201 0
M  V30 9 C 0.459875 0.750317 0.240219 0
M  V30 10 C 1.016392 0.849478 -1.048250 0
M  V30 11 C 2.156365 1.590117 -1.156364 0
M  V30 12 C 2.682289 2.188130 -0.005043 0
M  V30 13 C 2.094784 2.061175 1.243063 0
M  V30 14 C 0.954024 1.329201 1.395486 0
M  V30 15 C 0.379904 1.263088 2.780207 0
M  V30 16 C -1.029057 1.744079 2.830927 0
M  V30 17 C -2.016037 0.958107 2.074949 0
M  V30 18 C -3.289554 1.028024 2.643812 0
M  V30 19 C -4.399784 0.372907 2.117185 0
M  V30 20 C -4.244440 -0.390813 0.969437 0
M  V30 21 C -3.007839 -0.495574 0.364518 0
M  V30 22 C -1.928460 0.167540 0.913853 0
M  V30 23 H -2.293503 -3.269676 0.800299 0
M  V30 24 H -1.309581 -2.205301 1.976654 0
M  V30 25 H -0.825341 -3.805008 1.534235 0
M  V30 26 H -0.358254 -3.312202 -0.732967 0
M  V30 27 H 0.924565 -1.568342 1.359385 0
M  V30 28 H 1.230816 -3.365432 1.235328 0
M  V30 29 H 4.142285 -1.772502 -0.090695 0
M  V30 30 H 3.158732 -1.389604 1.361995 0
M  V30 31 H 3.453562 -3.135492 0.963825 0
M  V30 32 H 3.223188 -3.470655 -1.370672 0
M  V30 33 H 1.516670 -3.939530 -1.238047 0
M  V30 34 H 2.057508 -2.516396 -2.290338 0
M  V30 35 H 0.314447 -1.248673 -1.233211 0
M  V30 36 H -1.316157 -1.297914 -1.603459 0
M  V30 37 H 0.521219 0.361533 -1.880219 0
M  V30 38 H 2.630425 1.705244 -2.105208 0
M  V30 39 H 3.601943 2.791932 -0.061554 0
M  V30 40 H 2.512247 2.529511 2.125052 0
M  V30 41 H 0.978120 1.953891 3.397183 0
M  V30 42 H 0.501196 0.253525 3.214950 0
M  V30 43 H -1.342165 1.700808 3.896430 0
M  V30 44 H -1.038989 2.821507 2.568448 0
M  V30 45 H -3.470508 1.618163 3.553166 0
M  V30 46 H -5.363669 0.462338 2.599844 0
M  V30 47 H -5.069379 -0.922149 0.514469 0
M  V30 48 H -2.889872 -1.076482 -0.505510 0
M  V30 END ATOM
M  V30 BEGIN BOND
M  V30 1 1 1 2
M  V30 2 1 2 3
M  V30 3 1 3 4
M  V30 4 1 4 5
M  V30 5 1 4 6
M  V30 6 1 2 7
M  V30 7 1 7 8
M  V30 8 1 8 9
M  V30 9 2 9 10
M  V30 10 1 10 11
M  V30 11 2 11 12
M  V30 12 1 12 13
M  V30 13 2 13 14
M  V30 14 1 14 15
M  V30 15 1 15 16
M  V30 16 1 16 17
M  V30 17 2 17 18
M  V30 18 1 18 19
M  V30 19 2 19 20
M  V30 20 1 20 21
M  V30 21 2 21 22
M  V30 22 1 22 8
M  V30 23 1 14 9
M  V30 24 1 22 17
M  V30 25 1 1 23
M  V30 26 1 1 24
M  V30 27 1 1 25
M  V30 28 1 2 26
M  V30 29 1 3 27
M  V30 30 1 3 28
M  V30 31 1 5 29
M  V30 32 1 5 30
M  V30 33 1 5 31
M  V30 34 1 6 32
M  V30 35 1 6 33
M  V30 36 1 6 34
M  V30 37 1 7 35
M  V30 38 1 7 36
M  V30 39 1 10 37
M  V30 40 1 11 38
M  V30 41 1 12 39
M  V30 42 1 13 40
M  V30 43 1 15 41
M  V30 44 1 15 42
M  V30 45 1 16 43
M  V30 46 1 16 44
M  V30 47 1 18 45
M  V30 48 1 19 46
M  V30 49 1 20 47
M  V30 50 1 21 48
M  V30 END BOND
M  V30 END CTAB
M  END
>  <Dataset>  (11) 
OralDrugs

>  <Ligand_Instance>  (11) 
nan

>  <PDB_ID>  (11) 
nan

>  <Standardized_SMILES>  (11) 
CC(CN(C)C)CN1c2ccccc2CCc2ccccc21

>  <Name>  (11) 
Trimipramine

>  <Pocket>  (11) 
nan

>  <ATP_Site>  (11) 
nan

>  <Peripheral>  (11) 
nan

>  <Num_H_Atoms_ProtBoundConf>  (11) 
nan

>  <Num_Resolved_Atoms>  (11) 
nan

>  <Num_Not_Resolved_Atoms>  (11) 
nan

$$$$
CHEMBL1475
     RDKit          3D

  0  0  0  0  0  0  0  0  0  0999 V3000
M  V30 BEGIN CTAB
M  V30 COUNTS 29 31 0 0 0
M  V30 BEGIN ATOM
M  V30 1 C -0.702213 -3.612078 4.331511 0
M  V30 2 C -0.323418 -2.668804 3.227786 0
M  V30 3 C -1.282112 -2.126654 2.364792 0
M  V30 4 C -0.530442 -1.332224 1.519308 0
M  V30 5 C -0.878472 -0.527598 0.447384 0
M  V30 6 C 0.066308 0.200392 -0.277644 0
M  V30 7 C -0.370624 0.970070 -1.323222 0
M  V30 8 C -1.793814 1.065245 -1.718600 0
M  V30 9 C 0.582062 1.696213 -2.044401 0
M  V30 10 C 1.877527 1.536911 -1.593813 0
M  V30 11 O 2.825621 2.144660 -2.168117 0
M  V30 12 O 2.245423 0.785243 -0.584130 0
M  V30 13 C 1.377695 0.075519 0.133071 0
M  V30 14 C 1.771544 -0.713067 1.193880 0
M  V30 15 C 3.209524 -0.775852 1.551700 0
M  V30 16 C 0.803913 -1.415549 1.882629 0
M  V30 17 O 0.877440 -2.237401 2.922708 0
M  V30 18 H 0.196851 -4.094988 4.712695 0
M  V30 19 H -1.205513 -3.055511 5.139951 0
M  V30 20 H -1.418512 -4.381569 3.970899 0
M  V30 21 H -2.330320 -2.289911 2.364846 0
M  V30 22 H -1.934659 -0.492423 0.198208 0
M  V30 23 H -1.859970 1.434375 -2.777747 0
M  V30 24 H -2.209255 0.034960 -1.754475 0
M  V30 25 H -2.392938 1.755378 -1.119001 0
M  V30 26 H 0.335511 2.331348 -2.885057 0
M  V30 27 H 3.725382 -1.568728 0.977262 0
M  V30 28 H 3.722615 0.172867 1.331210 0
M  V30 29 H 3.337744 -0.963224 2.625065 0
M  V30 END ATOM
M  V30 BEGIN BOND
M  V30 1 1 1 2
M  V30 2 2 2 3
M  V30 3 1 3 4
M  V30 4 2 4 5
M  V30 5 1 5 6
M  V30 6 1 6 7
M  V30 7 1 7 8
M  V30 8 2 7 9
M  V30 9 1 9 10
M  V30 10 2 10 11
M  V30 11 1 10 12
M  V30 12 1 12 13
M  V30 13 1 13 14
M  V30 14 1 14 15
M  V30 15 2 14 16
M  V30 16 1 16 17
M  V30 17 1 17 2
M  V30 18 1 16 4
M  V30 19 2 13 6
M  V30 20 1 1 18
M  V30 21 1 1 19
M  V30 22 1 1 20
M  V30 23 1 3 21
M  V30 24 1 5 22
M  V30 25 1 8 23
M  V30 26 1 8 24
M  V30 27 1 8 25
M  V30 28 1 9 26
M  V30 29 1 15 27
M  V30 30 1 15 28
M  V30 31 1 15 29
M  V30 END BOND
M  V30 END CTAB
M  END
>  <Dataset>  (12) 
OralDrugs

>  <Ligand_Instance>  (12) 
nan

>  <PDB_ID>  (12) 
nan

>  <Standardized_SMILES>  (12) 
Cc1cc2cc3c(C)cc(=O)oc3c(C)c2o1

>  <Name>  (12) 
Trioxsalen

>  <Pocket>  (12) 
nan

>  <ATP_Site>  (12) 
nan

>  <Peripheral>  (12) 
nan

>  <Num_H_Atoms_ProtBoundConf>  (12) 
nan

>  <Num_Resolved_Atoms>  (12) 
nan

>  <Num_Not_Resolved_Atoms>  (12) 
nan

$$$$
CHEMBL1241
     RDKit          3D

  0  0  0  0  0  0  0  0  0  0999 V3000
M  V30 BEGIN CTAB
M  V30 COUNTS 40 41 0 0 0
M  V30 BEGIN ATOM
M  V30 1 C -1.367316 -2.457934 3.096916 0
M  V30 2 N -1.007153 -2.692323 1.731790 0
M  V30 3 C -2.051018 -3.324528 0.984416 0
M  V30 4 C 0.305254 -3.217827 1.525554 0
M  V30 5 C 1.366485 -2.179572 1.884523 0
M  V30 6 N 1.210567 -0.991111 1.067333 0
M  V30 7 C 1.516166 -1.201402 -0.311795 0
M  V30 8 C 1.358644 -0.026880 -1.185764 0
M  V30 9 C 0.094127 0.149904 -1.762337 0
M  V30 10 C -0.237506 1.197249 -2.614023 0
M  V30 11 C 0.752857 2.114782 -2.901325 0
M  V30 12 C 2.017204 1.978659 -2.353469 0
M  V30 13 C 2.311704 0.933637 -1.516693 0
M  V30 14 C 0.799905 0.258801 1.557769 0
M  V30 15 C 0.489506 0.551704 2.846597 0
M  V30 16 C 0.084225 1.779170 3.325186 0
M  V30 17 C -0.016014 2.809147 2.406339 0
M  V30 18 C 0.295298 2.527761 1.093702 0
M  V30 19 N 0.681878 1.296852 0.724262 0
M  V30 20 H -2.281028 -3.050123 3.348079 0
M  V30 21 H -0.567114 -2.748639 3.777583 0
M  V30 22 H -1.626006 -1.378706 3.198239 0
M  V30 23 H -2.434862 -4.241932 1.471081 0
M  V30 24 H -2.843067 -2.561071 0.815134 0
M  V30 25 H -1.638460 -3.535174 -0.039011 0
M  V30 26 H 0.451629 -4.054889 2.247543 0
M  V30 27 H 0.440611 -3.567344 0.487603 0
M  V30 28 H 2.375842 -2.654655 1.700771 0
M  V30 29 H 1.360098 -1.980932 2.971192 0
M  V30 30 H 0.914672 -2.024301 -0.728717 0
M  V30 31 H 2.584624 -1.573578 -0.328314 0
M  V30 32 H -0.699939 -0.552204 -1.553679 0
M  V30 33 H -1.240644 1.266055 -3.021896 0
M  V30 34 H 0.462614 2.920956 -3.568563 0
M  V30 35 H 2.770223 2.711332 -2.597303 0
M  V30 36 H 3.274375 0.778778 -1.064345 0
M  V30 37 H 0.556892 -0.234728 3.602817 0
M  V30 38 H -0.156430 1.979895 4.359740 0
M  V30 39 H -0.330271 3.822222 2.688887 0
M  V30 40 H 0.224906 3.324505 0.340008 0
M  V30 END ATOM
M  V30 BEGIN BOND
M  V30 1 1 1 2
M  V30 2 1 2 3
M  V30 3 1 2 4
M  V30 4 1 4 5
M  V30 5 1 5 6
M  V30 6 1 6 7
M  V30 7 1 7 8
M  V30 8 2 8 9
M  V30 9 1 9 10
M  V30 10 2 10 11
M  V30 11 1 11 12
M  V30 12 2 12 13
M  V30 13 1 6 14
M  V30 14 2 14 15
M  V30 15 1 15 16
M  V30 16 2 16 17
M  V30 17 1 17 18
M  V30 18 2 18 19
M  V30 19 1 13 8
M  V30 20 1 19 14
M  V30 21 1 1 20
M  V30 22 1 1 21
M  V30 23 1 1 22
M  V30 24 1 3 23
M  V30 25 1 3 24
M  V30 26 1 3 25
M  V30 27 1 4 26
M  V30 28 1 4 27
M  V30 29 1 5 28
M  V30 30 1 5 29
M  V30 31 1 7 30
M  V30 32 1 7 31
M  V30 33 1 9 32
M  V30 34 1 10 33
M  V30 35 1 11 34
M  V30 36 1 12 35
M  V30 37 1 13 36
M  V30 38 1 15 37
M  V30 39 1 16 38
M  V30 40 1 17 39
M  V30 41 1 18 40
M  V30 END BOND
M  V30 END CTAB
M  END
>  <Dataset>  (13) 
OralDrugs

>  <Ligand_Instance>  (13) 
nan

>  <PDB_ID>  (13) 
nan

>  <Standardized_SMILES>  (13) 
CN(C)CCN(Cc1ccccc1)c1ccccn1

>  <Name>  (13) 
Tripelennamine

>  <Pocket>  (13) 
nan

>  <ATP_Site>  (13) 
nan

>  <Peripheral>  (13) 
nan

>  <Num_H_Atoms_ProtBoundConf>  (13) 
nan

>  <Num_Resolved_Atoms>  (13) 
nan

>  <Num_Not_Resolved_Atoms>  (13) 
nan

$$$$
CHEMBL855
     RDKit          3D

  0  0  0  0  0  0  0  0  0  0999 V3000
M  V30 BEGIN CTAB
M  V30 COUNTS 43 45 0 0 0
M  V30 BEGIN ATOM
M  V30 1 C -4.801891 -0.688102 3.177324 0
M  V30 2 C -3.362613 -0.567939 2.837673 0
M  V30 3 C -2.646370 -1.703456 2.521933 0
M  V30 4 C -1.319544 -1.578227 2.210445 0
M  V30 5 C -0.600993 -0.420065 2.173360 0
M  V30 6 C 0.744726 -0.167677 1.722607 0
M  V30 7 C 1.198189 -1.009235 0.824638 0
M  V30 8 C 0.901698 -2.185017 0.010988 0
M  V30 9 N 1.080130 -1.810726 -1.400434 0
M  V30 10 C 0.792657 -2.921529 -2.272458 0
M  V30 11 C 1.646510 -2.657015 -3.492943 0
M  V30 12 C 2.336887 -1.339977 -3.249679 0
M  V30 13 C 2.387660 -1.345375 -1.714367 0
M  V30 14 C 1.555557 0.921046 2.236976 0
M  V30 15 C 2.827363 1.205575 1.810925 0
M  V30 16 C 3.611989 2.205234 2.293936 0
M  V30 17 C 3.126984 3.029827 3.300813 0
M  V30 18 C 1.841594 2.709133 3.701390 0
M  V30 19 N 1.115693 1.710112 3.187437 0
M  V30 20 C -1.291641 0.708740 2.483171 0
M  V30 21 C -2.649126 0.636405 2.809682 0
M  V30 22 H -4.993060 -1.388784 4.018481 0
M  V30 23 H -5.425704 -0.928891 2.283793 0
M  V30 24 H -5.173143 0.314913 3.507314 0
M  V30 25 H -3.144836 -2.665176 2.526549 0
M  V30 26 H -0.820567 -2.513588 2.029576 0
M  V30 27 H 2.215548 -0.842960 0.514650 0
M  V30 28 H 1.444034 -3.083686 0.296066 0
M  V30 29 H -0.187713 -2.483922 0.012607 0
M  V30 30 H -0.300361 -2.863409 -2.532034 0
M  V30 31 H 1.014633 -3.908283 -1.818499 0
M  V30 32 H 2.458457 -3.425798 -3.502497 0
M  V30 33 H 1.093184 -2.676903 -4.442421 0
M  V30 34 H 1.651239 -0.495766 -3.540428 0
M  V30 35 H 3.330416 -1.270791 -3.701682 0
M  V30 36 H 2.528881 -0.289490 -1.398406 0
M  V30 37 H 3.212190 -2.004881 -1.384383 0
M  V30 38 H 3.305849 0.634214 1.034888 0
M  V30 39 H 4.623540 2.420207 1.944894 0
M  V30 40 H 3.642535 3.855516 3.770990 0
M  V30 41 H 1.366796 3.293995 4.485892 0
M  V30 42 H -1.045400 1.746826 2.537125 0
M  V30 43 H -3.317008 1.465545 3.072899 0
M  V30 END ATOM
M  V30 BEGIN BOND
M  V30 1 1 1 2
M  V30 2 2 2 3
M  V30 3 1 3 4
M  V30 4 2 4 5
M  V30 5 1 5 6
M  V30 6 2 6 7
M  V30 7 1 7 8
M  V30 8 1 8 9
M  V30 9 1 9 10
M  V30 10 1 10 11
M  V30 11 1 11 12
M  V30 12 1 12 13
M  V30 13 1 6 14
M  V30 14 2 14 15
M  V30 15 1 15 16
M  V30 16 2 16 17
M  V30 17 1 17 18
M  V30 18 2 18 19
M  V30 19 1 5 20
M  V30 20 2 20 21
M  V30 21 1 21 2
M  V30 22 1 13 9
M  V30 23 1 19 14
M  V30 24 1 1 22
M  V30 25 1 1 23
M  V30 26 1 1 24
M  V30 27 1 3 25
M  V30 28 1 4 26
M  V30 29 1 7 27
M  V30 30 1 8 28
M  V30 31 1 8 29
M  V30 32 1 10 30
M  V30 33 1 10 31
M  V30 34 1 11 32
M  V30 35 1 11 33
M  V30 36 1 12 34
M  V30 37 1 12 35
M  V30 38 1 13 36
M  V30 39 1 13 37
M  V30 40 1 15 38
M  V30 41 1 16 39
M  V30 42 1 17 40
M  V30 43 1 18 41
M  V30 44 1 20 42
M  V30 45 1 21 43
M  V30 END BOND
M  V30 END CTAB
M  END
>  <Dataset>  (14) 
OralDrugs

>  <Ligand_Instance>  (14) 
nan

>  <PDB_ID>  (14) 
nan

>  <Standardized_SMILES>  (14) 
Cc1ccc(/C(=C\CN2CCCC2)c2ccccn2)cc1

>  <Name>  (14) 
Triprolidine

>  <Pocket>  (14) 
nan

>  <ATP_Site>  (14) 
nan

>  <Peripheral>  (14) 
nan

>  <Num_H_Atoms_ProtBoundConf>  (14) 
nan

>  <Num_Resolved_Atoms>  (14) 
nan

>  <Num_Not_Resolved_Atoms>  (14) 
nan

$$$$
CHEMBL197084
     RDKit          3D

  0  0  0  0  0  0  0  0  0  0999 V3000
M  V30 BEGIN CTAB
M  V30 COUNTS 43 43 0 0 0
M  V30 BEGIN ATOM
M  V30 1 C -0.213599 0.947866 2.146007 0
M  V30 2 C 0.602248 -0.308303 2.326228 0 CFG=1
M  V30 3 C 0.586081 -1.054298 1.032430 0
M  V30 4 O 0.258131 -2.230142 0.688598 0
M  V30 5 N 1.028774 -0.336487 -0.116529 0
M  V30 6 C 1.086154 -0.878375 -1.443457 0 CFG=1
M  V30 7 C 0.203015 -0.029800 -2.334544 0
M  V30 8 C 0.206937 -0.537399 -3.763744 0
M  V30 9 C -0.686815 0.362337 -4.548682 0
M  V30 10 O -0.890409 0.194788 -5.786071 0
M  V30 11 O -1.475512 1.484431 -4.308989 0
M  V30 12 C 2.477745 -0.830038 -2.003016 0
M  V30 13 O 2.930334 -0.293375 -0.935816 0
M  V30 14 O 3.776148 -0.786719 -2.529373 0
M  V30 15 C 2.010640 0.006330 2.777882 0
M  V30 16 C 2.500688 -1.346657 3.179877 0
M  V30 17 C 1.209560 -2.115119 3.492445 0
M  V30 18 N 0.134969 -1.143861 3.416664 0
M  V30 19 C -0.947829 -1.270657 4.327697 0
M  V30 20 O -0.689428 -2.283518 5.044166 0
M  V30 21 C -2.170026 -0.439921 4.484179 0
M  V30 22 N -2.946018 -1.021300 5.578812 0
M  V30 23 H -0.114223 1.329902 1.109066 0
M  V30 24 H -1.300430 0.795850 2.301277 0
M  V30 25 H 0.181278 1.778093 2.793736 0
M  V30 26 H 1.359176 0.654822 -0.128056 0
M  V30 27 H 0.760821 -1.915766 -1.542981 0
M  V30 28 H -0.848300 -0.079696 -1.983725 0
M  V30 29 H 0.572134 1.028418 -2.393055 0
M  V30 30 H 1.213487 -0.588832 -4.198150 0
M  V30 31 H -0.246797 -1.556387 -3.839156 0
M  V30 32 H -1.188136 2.392276 -4.651317 0
M  V30 33 H 4.280716 -1.668649 -2.529774 0
M  V30 34 H 2.619952 0.499706 2.005411 0
M  V30 35 H 1.916515 0.633623 3.671904 0
M  V30 36 H 3.051793 -1.899356 2.402810 0
M  V30 37 H 3.160774 -1.309502 4.081749 0
M  V30 38 H 1.342850 -2.587014 4.463353 0
M  V30 39 H 1.076962 -2.949965 2.755936 0
M  V30 40 H -2.826683 -0.522830 3.593957 0
M  V30 41 H -1.925566 0.602692 4.764440 0
M  V30 42 H -3.775388 -1.557442 5.248826 0
M  V30 43 H -2.327759 -1.549109 6.237775 0
M  V30 END ATOM
M  V30 BEGIN BOND
M  V30 1 1 2 1 CFG=3
M  V30 2 1 2 3
M  V30 3 2 3 4
M  V30 4 1 3 5
M  V30 5 1 5 6
M  V30 6 1 6 7
M  V30 7 1 7 8
M  V30 8 1 8 9
M  V30 9 2 9 10
M  V30 10 1 9 11
M  V30 11 1 6 12
M  V30 12 2 12 13
M  V30 13 1 12 14
M  V30 14 1 2 15
M  V30 15 1 15 16
M  V30 16 1 16 17
M  V30 17 1 17 18
M  V30 18 1 18 19
M  V30 19 2 19 20
M  V30 20 1 19 21
M  V30 21 1 21 22
M  V30 22 1 18 2
M  V30 23 1 1 23
M  V30 24 1 1 24
M  V30 25 1 1 25
M  V30 26 1 5 26
M  V30 27 1 6 27 CFG=1
M  V30 28 1 7 28
M  V30 29 1 7 29
M  V30 30 1 8 30
M  V30 31 1 8 31
M  V30 32 1 11 32
M  V30 33 1 14 33
M  V30 34 1 15 34
M  V30 35 1 15 35
M  V30 36 1 16 36
M  V30 37 1 16 37
M  V30 38 1 17 38
M  V30 39 1 17 39
M  V30 40 1 21 40
M  V30 41 1 21 41
M  V30 42 1 22 42
M  V30 43 1 22 43
M  V30 END BOND
M  V30 END CTAB
M  END
>  <Dataset>  (15) 
OralDrugs

>  <Ligand_Instance>  (15) 
nan

>  <PDB_ID>  (15) 
nan

>  <Standardized_SMILES>  (15) 
C[C@@]1(C(=O)N[C@@H](CCC(=O)O)C(=O)O)CCCN1C(=O)CN

>  <Name>  (15) 
Trofinetide

>  <Pocket>  (15) 
nan

>  <ATP_Site>  (15) 
nan

>  <Peripheral>  (15) 
nan

>  <Num_H_Atoms_ProtBoundConf>  (15) 
nan

>  <Num_Resolved_Atoms>  (15) 
nan

>  <Num_Not_Resolved_Atoms>  (15) 
nan

$$$$
CHEMBL564085
     RDKit          3D

  0  0  0  0  0  0  0  0  0  0999 V3000
M  V30 BEGIN CTAB
M  V30 COUNTS 124 127 0 0 0
M  V30 BEGIN ATOM
M  V30 1 C -1.471341 -5.148317 -5.273912 0
M  V30 2 O -2.178535 -4.473692 -4.283937 0
M  V30 3 C -1.222916 -3.824825 -3.461731 0 CFG=1
M  V30 4 C -1.499400 -2.369861 -3.435343 0
M  V30 5 C -1.339785 -1.735744 -2.063149 0 CFG=2
M  V30 6 O -0.142313 -1.810922 -1.465508 0
M  V30 7 C 0.674484 -0.794884 -1.251064 0 CFG=1
M  V30 8 C 1.138090 -0.385647 0.121608 0 CFG=2
M  V30 9 C 1.794684 -1.680354 0.692498 0
M  V30 10 C 0.239179 0.219148 1.089695 0 CFG=1
M  V30 11 O -0.489112 -0.591229 1.867531 0
M  V30 12 C -1.799920 -0.358012 2.039634 0 CFG=2
M  V30 13 O -1.802368 0.401075 3.302332 0
M  V30 14 C -1.447514 -0.382047 4.355868 0 CFG=2
M  V30 15 C -0.268799 0.117518 5.163546 0
M  V30 16 C -1.273833 -1.843382 4.082784 0
M  V30 17 C -2.542691 -2.336916 3.427174 0 CFG=2
M  V30 18 N -2.393302 -3.728986 3.164096 0
M  V30 19 C -3.573392 -4.337106 2.595713 0
M  V30 20 C -1.941250 -4.396716 4.359731 0
M  V30 21 C -2.750215 -1.477919 2.183869 0 CFG=1
M  V30 22 O -4.084116 -0.938488 2.210180 0
M  V30 23 C -5.062079 -1.235851 1.300469 0
M  V30 24 C -6.335659 -0.526763 1.596041 0
M  V30 25 O -5.042220 -1.979041 0.307748 0
M  V30 26 C 0.910057 1.367961 1.899181 0 CFG=1
M  V30 27 C 2.145988 0.934437 2.576214 0
M  V30 28 C 1.013628 2.521219 0.952785 0
M  V30 29 C 1.555282 3.797267 1.422834 0 CFG=2
M  V30 30 C 1.482421 4.172310 2.840581 0
M  V30 31 O 0.589226 4.724806 1.964774 0
M  V30 32 C 2.537677 4.479401 0.493892 0
M  V30 33 O 3.387857 5.107617 1.159482 0
M  V30 34 C 2.744197 4.595825 -0.957038 0 CFG=2
M  V30 35 C 1.406563 5.025049 -1.552795 0
M  V30 36 C 3.235522 3.428814 -1.716468 0 CFG=1
M  V30 37 O 3.306162 3.922146 -3.098022 0
M  V30 38 C 2.471989 3.444776 -4.085555 0
M  V30 39 C 2.670348 4.041028 -5.456253 0
M  V30 40 O 1.560472 2.580386 -4.027363 0
M  V30 41 C 4.610351 2.972479 -1.425436 0 CFG=1
M  V30 42 C 4.869400 2.676730 0.031410 0
M  V30 43 C 4.848246 1.625625 -2.150150 0 CFG=1
M  V30 44 C 6.323759 1.235378 -1.943750 0
M  V30 45 O 3.996383 0.730093 -1.636984 0
M  V30 46 C 3.038248 -0.137560 -1.833411 0
M  V30 47 O 3.368443 0.372023 -2.925593 0
M  V30 48 C 1.962852 -1.109692 -2.063169 0 CFG=2
M  V30 49 C 1.637470 -1.362991 -3.505964 0
M  V30 50 O -2.290787 -2.300283 -1.244483 0
M  V30 51 C -2.300671 -3.675458 -1.233930 0 CFG=1
M  V30 52 C -3.697114 -4.150642 -1.614354 0
M  V30 53 C -1.258642 -4.360387 -2.062547 0 CFG=2
M  V30 54 O -0.027548 -4.450640 -1.417119 0
M  V30 55 C 0.513974 -5.695493 -1.034566 0
M  V30 56 C 1.830405 -5.597373 -0.361340 0
M  V30 57 O -0.049265 -6.805714 -1.234826 0
M  V30 58 H -0.767189 -5.909299 -4.883370 0
M  V30 59 H -2.163166 -5.664737 -5.973570 0
M  V30 60 H -0.842287 -4.408250 -5.845408 0
M  V30 61 H -0.260535 -4.121348 -3.922221 0
M  V30 62 H -1.032198 -1.850391 -4.240620 0
M  V30 63 H -2.617336 -2.264961 -3.631084 0
M  V30 64 H -1.616195 -0.680529 -2.241437 0
M  V30 65 H 0.318498 0.189729 -1.690605 0
M  V30 66 H 2.097604 0.261331 -0.022455 0
M  V30 67 H 1.379911 -1.802723 1.726145 0
M  V30 68 H 2.871762 -1.518062 0.833134 0
M  V30 69 H 1.537177 -2.559657 0.107975 0
M  V30 70 H -0.538237 0.886745 0.527267 0
M  V30 71 H -2.255212 0.452010 1.404426 0
M  V30 72 H -2.323133 -0.329468 5.076100 0
M  V30 73 H 0.579123 -0.588194 5.039200 0
M  V30 74 H -0.471319 0.105198 6.271885 0
M  V30 75 H -0.005897 1.164496 4.940396 0
M  V30 76 H -0.350117 -2.131632 3.567037 0
M  V30 77 H -1.217279 -2.347415 5.091242 0
M  V30 78 H -3.353488 -2.140797 4.169459 0
M  V30 79 H -3.462800 -5.439136 2.571504 0
M  V30 80 H -3.725188 -4.014913 1.556494 0
M  V30 81 H -4.485737 -4.149996 3.199617 0
M  V30 82 H -0.862176 -4.304935 4.549853 0
M  V30 83 H -2.190413 -5.486332 4.350192 0
M  V30 84 H -2.486069 -3.949631 5.243474 0
M  V30 85 H -2.713867 -2.167670 1.333898 0
M  V30 86 H -6.096806 0.566266 1.721452 0
M  V30 87 H -7.026840 -0.558532 0.732198 0
M  V30 88 H -6.853903 -0.915649 2.479466 0
M  V30 89 H 0.089931 1.661487 2.607417 0
M  V30 90 H 2.903364 0.659580 1.783711 0
M  V30 91 H 2.640176 1.751281 3.135262 0
M  V30 92 H 2.017256 0.048578 3.233051 0
M  V30 93 H 1.437778 2.111024 0.032682 0
M  V30 94 H -0.073160 2.733133 0.648962 0
M  V30 95 H 2.333585 4.841096 3.175184 0
M  V30 96 H 1.174447 3.501766 3.635072 0
M  V30 97 H 3.420681 5.454090 -1.213970 0
M  V30 98 H 0.780809 5.566858 -0.787577 0
M  V30 99 H 1.510027 5.671717 -2.434448 0
M  V30 100 H 0.809936 4.110106 -1.786482 0
M  V30 101 H 2.463435 2.673149 -1.829093 0
M  V30 102 H 3.779785 4.181547 -5.584799 0
M  V30 103 H 2.403385 3.284951 -6.218426 0
M  V30 104 H 2.110879 4.984535 -5.574663 0
M  V30 105 H 5.413992 3.636086 -1.786993 0
M  V30 106 H 5.477592 3.511967 0.447186 0
M  V30 107 H 5.549829 1.806291 0.091033 0
M  V30 108 H 3.978892 2.439749 0.610341 0
M  V30 109 H 4.746217 1.791020 -3.228583 0
M  V30 110 H 6.850608 2.189320 -1.748487 0
M  V30 111 H 6.688335 0.878846 -2.925168 0
M  V30 112 H 6.428658 0.482126 -1.148264 0
M  V30 113 H 2.377203 -2.094191 -1.681242 0
M  V30 114 H 1.355337 -2.390779 -3.734894 0
M  V30 115 H 0.935767 -0.588163 -3.852190 0
M  V30 116 H 2.617778 -1.217592 -4.065636 0
M  V30 117 H -2.127845 -4.008877 -0.192390 0
M  V30 118 H -3.641290 -5.101891 -2.223004 0
M  V30 119 H -4.254466 -3.448683 -2.233297 0
M  V30 120 H -4.302837 -4.401840 -0.736295 0
M  V30 121 H -1.621668 -5.429594 -2.168984 0
M  V30 122 H 2.307581 -6.610778 -0.422540 0
M  V30 123 H 1.765936 -5.325198 0.691998 0
M  V30 124 H 2.530563 -4.935159 -0.946441 0
M  V30 END ATOM
M  V30 BEGIN BOND
M  V30 1 1 1 2
M  V30 2 1 2 3
M  V30 3 1 3 4
M  V30 4 1 4 5
M  V30 5 1 5 6
M  V30 6 1 6 7
M  V30 7 1 7 8
M  V30 8 1 8 9
M  V30 9 1 8 10
M  V30 10 1 10 11
M  V30 11 1 11 12
M  V30 12 1 12 13
M  V30 13 1 13 14
M  V30 14 1 14 15
M  V30 15 1 14 16
M  V30 16 1 16 17
M  V30 17 1 17 18
M  V30 18 1 18 19
M  V30 19 1 18 20
M  V30 20 1 17 21
M  V30 21 1 21 22
M  V30 22 1 22 23
M  V30 23 1 23 24
M  V30 24 2 23 25
M  V30 25 1 10 26
M  V30 26 1 26 27
M  V30 27 1 26 28
M  V30 28 1 28 29
M  V30 29 1 29 30
M  V30 30 1 30 31
M  V30 31 1 29 32
M  V30 32 2 32 33
M  V30 33 1 32 34
M  V30 34 1 34 35
M  V30 35 1 34 36
M  V30 36 1 36 37
M  V30 37 1 37 38
M  V30 38 1 38 39
M  V30 39 2 38 40
M  V30 40 1 36 41
M  V30 41 1 41 42
M  V30 42 1 41 43
M  V30 43 1 43 44
M  V30 44 1 43 45
M  V30 45 1 45 46
M  V30 46 2 46 47
M  V30 47 1 46 48
M  V30 48 1 48 49
M  V30 49 1 5 50
M  V30 50 1 50 51
M  V30 51 1 51 52
M  V30 52 1 51 53
M  V30 53 1 53 54
M  V30 54 1 54 55
M  V30 55 1 55 56
M  V30 56 2 55 57
M  V30 57 1 53 3
M  V30 58 1 48 7
M  V30 59 1 21 12
M  V30 60 1 29 31 CFG=3
M  V30 61 1 1 58
M  V30 62 1 1 59
M  V30 63 1 1 60
M  V30 64 1 3 61 CFG=3
M  V30 65 1 4 62
M  V30 66 1 4 63
M  V30 67 1 5 64 CFG=3
M  V30 68 1 7 65 CFG=3
M  V30 69 1 8 66 CFG=3
M  V30 70 1 9 67
M  V30 71 1 9 68
M  V30 72 1 9 69
M  V30 73 1 10 70 CFG=3
M  V30 74 1 12 71 CFG=3
M  V30 75 1 14 72 CFG=1
M  V30 76 1 15 73
M  V30 77 1 15 74
M  V30 78 1 15 75
M  V30 79 1 16 76
M  V30 80 1 16 77
M  V30 81 1 17 78 CFG=1
M  V30 82 1 19 79
M  V30 83 1 19 80
M  V30 84 1 19 81
M  V30 85 1 20 82
M  V30 86 1 20 83
M  V30 87 1 20 84
M  V30 88 1 21 85 CFG=3
M  V30 89 1 24 86
M  V30 90 1 24 87
M  V30 91 1 24 88
M  V30 92 1 26 89 CFG=1
M  V30 93 1 27 90
M  V30 94 1 27 91
M  V30 95 1 27 92
M  V30 96 1 28 93
M  V30 97 1 28 94
M  V30 98 1 30 95
M  V30 99 1 30 96
M  V30 100 1 34 97 CFG=1
M  V30 101 1 35 98
M  V30 102 1 35 99
M  V30 103 1 35 100
M  V30 104 1 36 101 CFG=3
M  V30 105 1 39 102
M  V30 106 1 39 103
M  V30 107 1 39 104
M  V30 108 1 41 105 CFG=3
M  V30 109 1 42 106
M  V30 110 1 42 107
M  V30 111 1 42 108
M  V30 112 1 43 109 CFG=3
M  V30 113 1 44 110
M  V30 114 1 44 111
M  V30 115 1 44 112
M  V30 116 1 48 113 CFG=1
M  V30 117 1 49 114
M  V30 118 1 49 115
M  V30 119 1 49 116
M  V30 120 1 51 117 CFG=1
M  V30 121 1 52 118
M  V30 122 1 52 119
M  V30 123 1 52 120
M  V30 124 1 53 121 CFG=3
M  V30 125 1 56 122
M  V30 126 1 56 123
M  V30 127 1 56 124
M  V30 END BOND
M  V30 END CTAB
M  END
>  <Dataset>  (16) 
OralDrugs

>  <Ligand_Instance>  (16) 
nan

>  <PDB_ID>  (16) 
nan

>  <Standardized_SMILES>  (16) 
CO[C@H]1C[C@H](O[C@H]2[C@H](C)[C@@H](O[C@@H]3O[C@H](C)C[C@H](N(C)C)[C@H]3OC(C)=O)[C@@H](C)C[C@@]3(CO3)C(=O)[C@H](C)[C@@H](OC(C)=O)[C@@H](C)[C@@H](C)OC(=O)[C@@H]2C)O[C@@H](C)[C@@H]1OC(C)=O

>  <Name>  (16) 
Troleandomycin

>  <Pocket>  (16) 
nan

>  <ATP_Site>  (16) 
nan

>  <Peripheral>  (16) 
nan

>  <Num_H_Atoms_ProtBoundConf>  (16) 
nan

>  <Num_Resolved_Atoms>  (16) 
nan

>  <Num_Not_Resolved_Atoms>  (16) 
nan

$$$$
CHEMBL1888176
     RDKit          3D

  0  0  0  0  0  0  0  0  0  0999 V3000
M  V30 BEGIN CTAB
M  V30 COUNTS 59 63 0 0 0
M  V30 BEGIN ATOM
M  V30 1 O -0.639052 -2.533402 2.635691 0
M  V30 2 C -0.584999 -2.564607 1.380755 0
M  V30 3 O -0.113686 -1.413332 0.793791 0
M  V30 4 C 0.292595 -0.254073 1.527970 0 CFG=1
M  V30 5 C 1.723343 0.066546 1.341883 0
M  V30 6 C 2.043691 1.485147 1.030966 0 CFG=1
M  V30 7 C 1.939369 1.677345 -0.469462 0
M  V30 8 C 0.478259 2.059982 -0.635189 0
M  V30 9 C -0.067956 2.142019 0.794851 0 CFG=1
M  V30 10 C -0.673578 0.830488 1.199228 0
M  V30 11 N 1.118145 2.447155 1.513985 0 CHG=1 VAL=4
M  V30 12 C 1.606850 3.760500 1.146236 0
M  V30 13 C 0.821297 4.747693 1.988132 0
M  V30 14 C 0.255536 3.891791 3.074512 0
M  V30 15 C 0.972457 2.563773 2.926495 0
M  V30 16 C -1.000904 -3.756615 0.607467 0
M  V30 17 O -1.450653 -4.681505 1.581829 0
M  V30 18 C -2.099686 -3.501111 -0.321101 0
M  V30 19 C -1.771727 -2.690434 -1.388106 0
M  V30 20 C -2.707771 -2.347372 -2.365848 0
M  V30 21 C -3.973664 -2.865400 -2.200899 0
M  V30 22 C -4.345040 -3.681420 -1.146954 0
M  V30 23 C -3.388879 -4.009909 -0.181698 0
M  V30 24 C 0.156875 -4.462522 -0.034962 0
M  V30 25 C -0.126240 -5.747155 -0.483404 0
M  V30 26 C 0.908893 -6.464146 -1.093082 0
M  V30 27 C 2.159210 -5.859110 -1.218266 0
M  V30 28 C 2.442331 -4.600996 -0.780940 0
M  V30 29 C 1.407815 -3.895001 -0.176114 0
M  V30 30 H 0.140446 -0.528278 2.613515 0
M  V30 31 H 2.110892 -0.574565 0.496375 0
M  V30 32 H 2.350941 -0.235188 2.220694 0
M  V30 33 H 3.108505 1.702651 1.330205 0
M  V30 34 H 2.610649 2.484999 -0.833486 0
M  V30 35 H 2.174786 0.747474 -1.016436 0
M  V30 36 H -0.095199 1.217411 -1.114880 0
M  V30 37 H 0.314118 2.971447 -1.209629 0
M  V30 38 H -0.845576 2.923840 0.901200 0
M  V30 39 H -1.368831 1.040517 2.053715 0
M  V30 40 H -1.382532 0.555340 0.362536 0
M  V30 41 H 2.674583 3.861741 1.465028 0
M  V30 42 H 1.470151 4.025689 0.098658 0
M  V30 43 H 1.462185 5.587192 2.360668 0
M  V30 44 H -0.018619 5.202248 1.407270 0
M  V30 45 H 0.373991 4.324256 4.085109 0
M  V30 46 H -0.832083 3.710309 2.894787 0
M  V30 47 H 1.957888 2.537758 3.404147 0
M  V30 48 H 0.320031 1.810872 3.405669 0
M  V30 49 H -1.943148 -4.220535 2.303937 0
M  V30 50 H -0.779314 -2.256759 -1.559745 0
M  V30 51 H -2.447906 -1.711726 -3.202175 0
M  V30 52 H -4.736342 -2.618376 -2.948387 0
M  V30 53 H -5.330032 -4.093247 -1.004949 0
M  V30 54 H -3.541926 -4.631812 0.684665 0
M  V30 55 H -1.088053 -6.233295 -0.395799 0
M  V30 56 H 0.737617 -7.468569 -1.459062 0
M  V30 57 H 2.902848 -6.465734 -1.692865 0
M  V30 58 H 3.406155 -4.131320 -0.876151 0
M  V30 59 H 1.579812 -2.893608 0.187173 0
M  V30 END ATOM
M  V30 BEGIN BOND
M  V30 1 2 1 2
M  V30 2 1 2 3
M  V30 3 1 3 4
M  V30 4 1 4 5
M  V30 5 1 5 6
M  V30 6 1 6 7
M  V30 7 1 7 8
M  V30 8 1 8 9
M  V30 9 1 9 10
M  V30 10 1 9 11
M  V30 11 1 11 12
M  V30 12 1 12 13
M  V30 13 1 13 14
M  V30 14 1 14 15
M  V30 15 1 2 16
M  V30 16 1 16 17
M  V30 17 1 16 18
M  V30 18 2 18 19
M  V30 19 1 19 20
M  V30 20 2 20 21
M  V30 21 1 21 22
M  V30 22 2 22 23
M  V30 23 1 16 24
M  V30 24 2 24 25
M  V30 25 1 25 26
M  V30 26 2 26 27
M  V30 27 1 27 28
M  V30 28 2 28 29
M  V30 29 1 10 4
M  V30 30 1 15 11
M  V30 31 1 23 18
M  V30 32 1 29 24
M  V30 33 1 11 6
M  V30 34 1 4 30 CFG=1
M  V30 35 1 5 31
M  V30 36 1 5 32
M  V30 37 1 6 33 CFG=1
M  V30 38 1 7 34
M  V30 39 1 7 35
M  V30 40 1 8 36
M  V30 41 1 8 37
M  V30 42 1 9 38 CFG=3
M  V30 43 1 10 39
M  V30 44 1 10 40
M  V30 45 1 12 41
M  V30 46 1 12 42
M  V30 47 1 13 43
M  V30 48 1 13 44
M  V30 49 1 14 45
M  V30 50 1 14 46
M  V30 51 1 15 47
M  V30 52 1 15 48
M  V30 53 1 17 49
M  V30 54 1 19 50
M  V30 55 1 20 51
M  V30 56 1 21 52
M  V30 57 1 22 53
M  V30 58 1 23 54
M  V30 59 1 25 55
M  V30 60 1 26 56
M  V30 61 1 27 57
M  V30 62 1 28 58
M  V30 63 1 29 59
M  V30 END BOND
M  V30 END CTAB
M  END
>  <Dataset>  (17) 
OralDrugs

>  <Ligand_Instance>  (17) 
nan

>  <PDB_ID>  (17) 
nan

>  <Standardized_SMILES>  (17) 
O=C(O[C@H]1C[C@H]2CC[C@@H](C1)[N+]21CCCC1)C(O)(c1ccccc1)c1ccccc1

>  <Name>  (17) 
Trospium

>  <Pocket>  (17) 
nan

>  <ATP_Site>  (17) 
nan

>  <Peripheral>  (17) 
nan

>  <Num_H_Atoms_ProtBoundConf>  (17) 
nan

>  <Num_Resolved_Atoms>  (17) 
nan

>  <Num_Not_Resolved_Atoms>  (17) 
nan

$$$$
CHEMBL3989868
     RDKit          3D

  0  0  0  0  0  0  0  0  0  0999 V3000
M  V30 BEGIN CTAB
M  V30 COUNTS 60 65 0 0 0
M  V30 BEGIN ATOM
M  V30 1 C -0.540968 -3.879287 2.064906 0
M  V30 2 C 0.713470 -3.237801 1.663893 0
M  V30 3 C 1.058149 -2.139953 2.422532 0
M  V30 4 C 2.213481 -1.412226 2.188071 0
M  V30 5 N 2.672735 -0.282227 2.929061 0
M  V30 6 C 3.528729 0.637769 2.257648 0
M  V30 7 N 4.834232 0.530387 1.970477 0
M  V30 8 C 5.494149 1.524662 1.326178 0
M  V30 9 N 4.776797 2.605491 0.998237 0
M  V30 10 C 3.485335 2.798090 1.242092 0
M  V30 11 C 2.830019 3.973966 0.862826 0
M  V30 12 C 1.487713 4.133104 1.146149 0
M  V30 13 C 0.789782 3.151523 1.795310 0
M  V30 14 N -0.608468 3.196809 2.153511 0
M  V30 15 C -1.698265 2.683506 1.409346 0
M  V30 16 N -1.490115 1.706313 0.580284 0
M  V30 17 C -2.723614 1.333103 -0.073611 0
M  V30 18 C -3.239874 -0.001818 0.454773 0
M  V30 19 C -2.606680 1.230180 -1.569743 0
M  V30 20 C -3.707388 2.388582 0.355971 0
M  V30 21 O -3.029411 3.055001 1.401604 0
M  V30 22 C 1.465695 2.008981 2.152749 0
M  V30 23 C 2.794186 1.773959 1.908074 0
M  V30 24 C 2.987895 -1.890946 1.122862 0
M  V30 25 C 2.704667 -2.980545 0.324623 0
M  V30 26 C 1.538555 -3.652663 0.618223 0
M  V30 27 O 1.190511 -4.759424 -0.140439 0
M  V30 28 C 0.047405 -4.782943 -0.921194 0
M  V30 29 C -0.739172 -3.631816 -1.063413 0
M  V30 30 C -1.912285 -3.543436 -1.826611 0
M  V30 31 N -2.290350 -4.670049 -2.463104 0
M  V30 32 N -3.356334 -4.833319 -3.240631 0
M  V30 33 C -3.366581 -6.102500 -3.679239 0
M  V30 34 N -2.266180 -6.706234 -3.137739 0
M  V30 35 C -1.586439 -5.828568 -2.378901 0
M  V30 36 C -0.443457 -5.860411 -1.616990 0
M  V30 37 H -0.662142 -3.906504 3.186324 0
M  V30 38 H -0.670862 -4.902095 1.728751 0
M  V30 39 H -1.461240 -3.311886 1.723138 0
M  V30 40 H 0.470632 -1.741885 3.263035 0
M  V30 41 H 2.320640 -0.257979 3.906438 0
M  V30 42 H 6.547003 1.371724 1.127592 0
M  V30 43 H 3.355481 4.760463 0.351906 0
M  V30 44 H 0.936121 5.016110 0.878073 0
M  V30 45 H -0.830008 3.670604 3.082287 0
M  V30 46 H -2.799474 -0.203200 1.457849 0
M  V30 47 H -3.010477 -0.850089 -0.206846 0
M  V30 48 H -4.336620 0.063935 0.523760 0
M  V30 49 H -3.038341 0.256388 -1.937124 0
M  V30 50 H -3.148270 2.041260 -2.094781 0
M  V30 51 H -1.555127 1.247527 -1.941889 0
M  V30 52 H -3.902405 3.028026 -0.523486 0
M  V30 53 H -4.666213 1.931085 0.730554 0
M  V30 54 H 0.950741 1.221279 2.662917 0
M  V30 55 H 3.926167 -1.370960 0.866500 0
M  V30 56 H 3.354949 -3.275155 -0.470819 0
M  V30 57 H -0.440916 -2.703155 -0.553548 0
M  V30 58 H -2.434598 -2.594004 -1.860495 0
M  V30 59 H -4.085551 -6.582755 -4.329143 0
M  V30 60 H 0.129261 -6.788958 -1.543905 0
M  V30 END ATOM
M  V30 BEGIN BOND
M  V30 1 1 1 2
M  V30 2 2 2 3
M  V30 3 1 3 4
M  V30 4 1 4 5
M  V30 5 1 5 6
M  V30 6 2 6 7
M  V30 7 1 7 8
M  V30 8 2 8 9
M  V30 9 1 9 10
M  V30 10 2 10 11
M  V30 11 1 11 12
M  V30 12 2 12 13
M  V30 13 1 13 14
M  V30 14 1 14 15
M  V30 15 2 15 16
M  V30 16 1 16 17
M  V30 17 1 17 18
M  V30 18 1 17 19
M  V30 19 1 17 20
M  V30 20 1 20 21
M  V30 21 1 13 22
M  V30 22 2 22 23
M  V30 23 2 4 24
M  V30 24 1 24 25
M  V30 25 2 25 26
M  V30 26 1 26 27
M  V30 27 1 27 28
M  V30 28 1 28 29
M  V30 29 2 29 30
M  V30 30 1 30 31
M  V30 31 1 31 32
M  V30 32 2 32 33
M  V30 33 1 33 34
M  V30 34 2 34 35
M  V30 35 1 35 36
M  V30 36 1 26 2
M  V30 37 2 36 28
M  V30 38 1 23 6
M  V30 39 1 35 31
M  V30 40 1 23 10
M  V30 41 1 21 15
M  V30 42 1 1 37
M  V30 43 1 1 38
M  V30 44 1 1 39
M  V30 45 1 3 40
M  V30 46 1 5 41
M  V30 47 1 8 42
M  V30 48 1 11 43
M  V30 49 1 12 44
M  V30 50 1 14 45
M  V30 51 1 18 46
M  V30 52 1 18 47
M  V30 53 1 18 48
M  V30 54 1 19 49
M  V30 55 1 19 50
M  V30 56 1 19 51
M  V30 57 1 20 52
M  V30 58 1 20 53
M  V30 59 1 22 54
M  V30 60 1 24 55
M  V30 61 1 25 56
M  V30 62 1 29 57
M  V30 63 1 30 58
M  V30 64 1 33 59
M  V30 65 1 36 60
M  V30 END BOND
M  V30 END CTAB
M  END
>  <Dataset>  (18) 
OralDrugs

>  <Ligand_Instance>  (18) 
nan

>  <PDB_ID>  (18) 
nan

>  <Standardized_SMILES>  (18) 
Cc1cc(Nc2ncnc3ccc(NC4=NC(C)(C)CO4)cc23)ccc1Oc1ccn2ncnc2c1

>  <Name>  (18) 
Tucatinib

>  <Pocket>  (18) 
nan

>  <ATP_Site>  (18) 
nan

>  <Peripheral>  (18) 
nan

>  <Num_H_Atoms_ProtBoundConf>  (18) 
nan

>  <Num_Resolved_Atoms>  (18) 
nan

>  <Num_Not_Resolved_Atoms>  (18) 
nan

$$$$
CHEMBL1200899
     RDKit          3D

  0  0  0  0  0  0  0  0  0  0999 V3000
M  V30 BEGIN CTAB
M  V30 COUNTS 40 40 0 0 0
M  V30 BEGIN ATOM
M  V30 1 C 1.454371 -5.600839 2.050633 0
M  V30 2 C 0.633323 -5.636775 0.778747 0
M  V30 3 C 1.175339 -4.626647 -0.201966 0
M  V30 4 C 1.140738 -3.254587 0.308226 0
M  V30 5 O 0.679935 -3.119064 1.480172 0
M  V30 6 N 1.618679 -2.238984 -0.548909 0
M  V30 7 C 1.682534 -0.860917 -0.275191 0
M  V30 8 C 2.849532 -0.415726 0.303355 0
M  V30 9 I 4.427107 -1.753760 0.741000 0
M  V30 10 C 2.975685 0.922062 0.594789 0
M  V30 11 C 1.932613 1.771756 0.300420 0
M  V30 12 I 2.400613 3.799850 0.721586 0
M  V30 13 C 0.725451 1.422158 -0.274197 0
M  V30 14 C -0.385948 2.334070 -0.537286 0
M  V30 15 C -1.313177 2.677826 0.550817 0
M  V30 16 C -0.840094 3.312522 1.794230 0
M  V30 17 C -2.112576 3.483060 2.677023 0
M  V30 18 C -2.320517 1.608499 0.769777 0
M  V30 19 O -2.240887 0.902207 1.798802 0
M  V30 20 O -3.407622 1.269417 -0.060365 0
M  V30 21 C 0.678639 0.057378 -0.540031 0
M  V30 22 I -0.984188 -0.827762 -1.481031 0
M  V30 23 H 0.974067 -5.018339 2.862567 0
M  V30 24 H 2.464998 -5.181697 1.843662 0
M  V30 25 H 1.631423 -6.664240 2.372124 0
M  V30 26 H 0.651097 -6.632658 0.289727 0
M  V30 27 H -0.425890 -5.456313 1.053941 0
M  V30 28 H 0.751245 -4.755546 -1.217375 0
M  V30 29 H 2.266971 -4.888348 -0.321255 0
M  V30 30 H 1.979514 -2.453782 -1.502015 0
M  V30 31 H 3.911300 1.223970 1.047973 0
M  V30 32 H -0.008964 3.314992 -0.980408 0
M  V30 33 H -0.932316 1.897933 -1.433320 0
M  V30 34 H -2.020088 3.523242 0.109125 0
M  V30 35 H -0.562292 4.371063 1.591432 0
M  V30 36 H -0.154732 2.777255 2.432301 0
M  V30 37 H -2.185400 2.616553 3.381776 0
M  V30 38 H -3.024477 3.476966 2.056199 0
M  V30 39 H -2.087080 4.419516 3.235292 0
M  V30 40 H -3.795449 0.355244 -0.066521 0
M  V30 END ATOM
M  V30 BEGIN BOND
M  V30 1 1 1 2
M  V30 2 1 2 3
M  V30 3 1 3 4
M  V30 4 2 4 5
M  V30 5 1 4 6
M  V30 6 1 6 7
M  V30 7 2 7 8
M  V30 8 1 8 9
M  V30 9 1 8 10
M  V30 10 2 10 11
M  V30 11 1 11 12
M  V30 12 1 11 13
M  V30 13 1 13 14
M  V30 14 1 14 15
M  V30 15 1 15 16
M  V30 16 1 16 17
M  V30 17 1 15 18
M  V30 18 2 18 19
M  V30 19 1 18 20
M  V30 20 2 13 21
M  V30 21 1 21 22
M  V30 22 1 21 7
M  V30 23 1 1 23
M  V30 24 1 1 24
M  V30 25 1 1 25
M  V30 26 1 2 26
M  V30 27 1 2 27
M  V30 28 1 3 28
M  V30 29 1 3 29
M  V30 30 1 6 30
M  V30 31 1 10 31
M  V30 32 1 14 32
M  V30 33 1 14 33
M  V30 34 1 15 34
M  V30 35 1 16 35
M  V30 36 1 16 36
M  V30 37 1 17 37
M  V30 38 1 17 38
M  V30 39 1 17 39
M  V30 40 1 20 40
M  V30 END BOND
M  V30 END CTAB
M  END
>  <Dataset>  (19) 
OralDrugs

>  <Ligand_Instance>  (19) 
nan

>  <PDB_ID>  (19) 
nan

>  <Standardized_SMILES>  (19) 
CCCC(=O)Nc1c(I)cc(I)c(CC(CC)C(=O)O)c1I

>  <Name>  (19) 
Tyropanoate Sodium

>  <Pocket>  (19) 
nan

>  <ATP_Site>  (19) 
nan

>  <Peripheral>  (19) 
nan

>  <Num_H_Atoms_ProtBoundConf>  (19) 
nan

>  <Num_Resolved_Atoms>  (19) 
nan

>  <Num_Not_Resolved_Atoms>  (19) 
nan

$$$$
CHEMBL925
     RDKit          3D

  0  0  0  0  0  0  0  0  0  0999 V3000
M  V30 BEGIN CTAB
M  V30 COUNTS 24 24 0 0 0
M  V30 BEGIN ATOM
M  V30 1 N 2.084575 -0.064789 2.743981 0
M  V30 2 C 2.601548 -0.519210 1.475014 0 CFG=1
M  V30 3 C 1.661531 -1.542186 0.877110 0
M  V30 4 C 0.316390 -0.946393 0.662899 0
M  V30 5 C -0.620475 -1.021220 1.671544 0
M  V30 6 C -1.884202 -0.459144 1.464767 0
M  V30 7 C -2.118285 0.144733 0.245043 0
M  V30 8 O -3.374857 0.719565 0.001754 0
M  V30 9 C -1.206522 0.240483 -0.790779 0
M  V30 10 C 0.043821 -0.334149 -0.542434 0
M  V30 11 C 2.782498 0.669298 0.618074 0
M  V30 12 O 2.504807 1.854489 1.011417 0
M  V30 13 O 3.259245 0.685411 -0.685442 0
M  V30 14 H 1.735674 -0.800057 3.366529 0
M  V30 15 H 1.425782 0.741909 2.660006 0
M  V30 16 H 3.560913 -1.056275 1.701906 0
M  V30 17 H 1.561332 -2.346994 1.606123 0
M  V30 18 H 2.078550 -1.914555 -0.063079 0
M  V30 19 H -0.445339 -1.492248 2.629552 0
M  V30 20 H -2.628542 -0.505727 2.235713 0
M  V30 21 H -3.643478 1.627178 0.367429 0
M  V30 22 H -1.466592 0.730757 -1.718874 0
M  V30 23 H 0.762846 -0.264090 -1.346404 0
M  V30 24 H 3.860917 1.444960 -1.037838 0
M  V30 END ATOM
M  V30 BEGIN BOND
M  V30 1 1 1 2
M  V30 2 1 2 3
M  V30 3 1 3 4
M  V30 4 2 4 5
M  V30 5 1 5 6
M  V30 6 2 6 7
M  V30 7 1 7 8
M  V30 8 1 7 9
M  V30 9 2 9 10
M  V30 10 1 2 11
M  V30 11 2 11 12
M  V30 12 1 11 13
M  V30 13 1 10 4
M  V30 14 1 1 14
M  V30 15 1 1 15
M  V30 16 1 2 16 CFG=1
M  V30 17 1 3 17
M  V30 18 1 3 18
M  V30 19 1 5 19
M  V30 20 1 6 20
M  V30 21 1 8 21
M  V30 22 1 9 22
M  V30 23 1 10 23
M  V30 24 1 13 24
M  V30 END BOND
M  V30 END CTAB
M  END
>  <Dataset>  (20) 
OralDrugs

>  <Ligand_Instance>  (20) 
nan

>  <PDB_ID>  (20) 
nan

>  <Standardized_SMILES>  (20) 
N[C@@H](Cc1ccc(O)cc1)C(=O)O

>  <Name>  (20) 
Tyrosine

>  <Pocket>  (20) 
nan

>  <ATP_Site>  (20) 
nan

>  <Peripheral>  (20) 
nan

>  <Num_H_Atoms_ProtBoundConf>  (20) 
nan

>  <Num_Resolved_Atoms>  (20) 
nan

>  <Num_Not_Resolved_Atoms>  (20) 
nan

$$$$
CHEMBL2364638
     RDKit          3D

  0  0  0  0  0  0  0  0  0  0999 V3000
M  V30 BEGIN CTAB
M  V30 COUNTS 66 71 0 0 0
M  V30 BEGIN ATOM
M  V30 1 C 2.218856 1.271583 2.411477 0
M  V30 2 C 2.836678 2.392294 1.665034 0 CFG=2
M  V30 3 C 1.907991 3.188629 0.818773 0 CFG=2
M  V30 4 C 0.587935 3.439678 1.501991 0
M  V30 5 C 0.473897 4.611201 2.258540 0
M  V30 6 C -0.673155 5.022632 2.946397 0
M  V30 7 C -1.766641 4.187980 2.855569 0
M  V30 8 C -1.692772 3.025195 2.119561 0
M  V30 9 C -0.553000 2.640350 1.450415 0
M  V30 10 C 1.638508 2.671728 -0.532012 0
M  V30 11 C 2.308169 1.417852 -0.963061 0 CFG=2
M  V30 12 N 1.368967 0.313930 -0.821068 0
M  V30 13 C 0.949932 -0.443074 -1.949160 0
M  V30 14 O 1.402638 -0.152485 -3.108341 0
M  V30 15 C 0.016829 -1.564405 -1.919649 0
M  V30 16 C -0.298928 -2.195176 -3.103193 0
M  V30 17 N -1.166977 -3.249384 -3.128913 0
M  V30 18 C -1.760468 -3.733991 -2.024284 0
M  V30 19 C -1.468622 -3.128031 -0.820085 0
M  V30 20 C -0.592817 -2.062681 -0.786483 0
M  V30 21 C -2.220042 -3.810590 0.259885 0
M  V30 22 C -2.751007 -5.062137 -0.380282 0 CFG=1
M  V30 23 C -2.717118 -4.853378 -1.855071 0
M  V30 24 C -1.991502 -6.265055 0.005663 0
M  V30 25 O -0.766303 -6.393464 -0.293003 0
M  V30 26 N -2.864893 -7.132081 0.705793 0
M  V30 27 C -4.167983 -6.561184 0.801044 0
M  V30 28 N -5.351380 -6.922443 1.335326 0
M  V30 29 C -6.422465 -6.124337 1.245766 0
M  V30 30 C -6.398396 -4.889497 0.609785 0
M  V30 31 C -5.198230 -4.474408 0.043178 0
M  V30 32 C -4.121370 -5.331072 0.160744 0
M  V30 33 C 3.596434 1.154014 -0.335054 0
M  V30 34 O 4.410146 0.288583 -0.726021 0
M  V30 35 N 3.936676 1.942124 0.796761 0
M  V30 36 C 5.336784 2.291468 1.093197 0
M  V30 37 C 6.008149 1.278496 1.969719 0
M  V30 38 F 7.315209 1.712793 2.178857 0
M  V30 39 F 5.431162 1.144308 3.205769 0
M  V30 40 F 6.050091 0.081736 1.283845 0
M  V30 41 H 2.414639 0.321985 1.832218 0
M  V30 42 H 2.651706 1.155624 3.449259 0
M  V30 43 H 1.141718 1.329517 2.572178 0
M  V30 44 H 3.313692 3.060660 2.427387 0
M  V30 45 H 2.353549 4.231230 0.724877 0
M  V30 46 H 1.330789 5.296463 2.349160 0
M  V30 47 H -0.663956 5.944948 3.504195 0
M  V30 48 H -2.668704 4.448262 3.358187 0
M  V30 49 H -2.548400 2.364073 2.044115 0
M  V30 50 H -0.447837 1.752165 0.863424 0
M  V30 51 H 1.938280 3.465814 -1.286712 0
M  V30 52 H 0.516407 2.613726 -0.713319 0
M  V30 53 H 2.518017 1.442337 -2.079994 0
M  V30 54 H 0.906677 -0.049984 0.039047 0
M  V30 55 H 0.088219 -1.930143 -4.068180 0
M  V30 56 H -0.379792 -1.608717 0.150891 0
M  V30 57 H -1.511031 -4.156656 1.057693 0
M  V30 58 H -2.977925 -3.180235 0.735386 0
M  V30 59 H -2.310881 -5.729388 -2.414807 0
M  V30 60 H -3.690855 -4.549324 -2.281306 0
M  V30 61 H -2.590689 -8.062107 1.097962 0
M  V30 62 H -7.399683 -6.396261 1.673672 0
M  V30 63 H -7.264117 -4.241672 0.535985 0
M  V30 64 H -5.182049 -3.528319 -0.443095 0
M  V30 65 H 5.245082 3.279881 1.631902 0
M  V30 66 H 5.922943 2.424118 0.179702 0
M  V30 END ATOM
M  V30 BEGIN BOND
M  V30 1 1 1 2
M  V30 2 1 2 3
M  V30 3 1 3 4
M  V30 4 2 4 5
M  V30 5 1 5 6
M  V30 6 2 6 7
M  V30 7 1 7 8
M  V30 8 2 8 9
M  V30 9 1 3 10
M  V30 10 1 10 11
M  V30 11 1 11 12
M  V30 12 1 12 13
M  V30 13 2 13 14
M  V30 14 1 13 15
M  V30 15 2 15 16
M  V30 16 1 16 17
M  V30 17 2 17 18
M  V30 18 1 18 19
M  V30 19 2 19 20
M  V30 20 1 19 21
M  V30 21 1 22 21 CFG=1
M  V30 22 1 22 23
M  V30 23 1 22 24
M  V30 24 2 24 25
M  V30 25 1 24 26
M  V30 26 1 26 27
M  V30 27 2 27 28
M  V30 28 1 28 29
M  V30 29 2 29 30
M  V30 30 1 30 31
M  V30 31 2 31 32
M  V30 32 1 11 33
M  V30 33 2 33 34
M  V30 34 1 33 35
M  V30 35 1 35 36
M  V30 36 1 36 37
M  V30 37 1 37 38
M  V30 38 1 37 39
M  V30 39 1 37 40
M  V30 40 1 35 2
M  V30 41 1 9 4
M  V30 42 1 20 15
M  V30 43 1 32 22
M  V30 44 1 23 18
M  V30 45 1 32 27
M  V30 46 1 1 41
M  V30 47 1 1 42
M  V30 48 1 1 43
M  V30 49 1 2 44 CFG=1
M  V30 50 1 3 45 CFG=3
M  V30 51 1 5 46
M  V30 52 1 6 47
M  V30 53 1 7 48
M  V30 54 1 8 49
M  V30 55 1 9 50
M  V30 56 1 10 51
M  V30 57 1 10 52
M  V30 58 1 11 53 CFG=3
M  V30 59 1 12 54
M  V30 60 1 16 55
M  V30 61 1 20 56
M  V30 62 1 21 57
M  V30 63 1 21 58
M  V30 64 1 23 59
M  V30 65 1 23 60
M  V30 66 1 26 61
M  V30 67 1 29 62
M  V30 68 1 30 63
M  V30 69 1 31 64
M  V30 70 1 36 65
M  V30 71 1 36 66
M  V30 END BOND
M  V30 END CTAB
M  END
>  <Dataset>  (21) 
OralDrugs

>  <Ligand_Instance>  (21) 
nan

>  <PDB_ID>  (21) 
nan

>  <Standardized_SMILES>  (21) 
C[C@@H]1[C@H](c2ccccc2)C[C@H](NC(=O)c2cnc3c(c2)C[C@@]2(C3)C(=O)Nc3ncccc32)C(=O)N1CC(F)(F)F

>  <Name>  (21) 
Ubrogepant

>  <Pocket>  (21) 
nan

>  <ATP_Site>  (21) 
nan

>  <Peripheral>  (21) 
nan

>  <Num_H_Atoms_ProtBoundConf>  (21) 
nan

>  <Num_Resolved_Atoms>  (21) 
nan

>  <Num_Not_Resolved_Atoms>  (21) 
nan

$$$$
CHEMBL3948730
     RDKit          3D

  0  0  0  0  0  0  0  0  0  0999 V3000
M  V30 BEGIN CTAB
M  V30 COUNTS 66 71 0 0 0
M  V30 BEGIN ATOM
M  V30 1 C 3.334372 -3.460900 7.801588 0
M  V30 2 C 2.441942 -2.442977 7.178921 0
M  V30 3 C 1.826801 -1.609049 8.301317 0
M  V30 4 O 3.041288 -1.620444 6.215523 0
M  V30 5 C 2.584351 -1.312204 4.969075 0
M  V30 6 C 1.408780 -1.753106 4.341006 0
M  V30 7 C 1.061549 -1.357503 3.069284 0
M  V30 8 C 1.852250 -0.499839 2.332054 0
M  V30 9 C 1.399228 -0.149437 0.992955 0
M  V30 10 N 1.025052 -0.938888 -0.033034 0
M  V30 11 N 0.655123 -0.243728 -1.070766 0
M  V30 12 C 0.166937 -0.601034 -2.420510 0 CFG=1
M  V30 13 C 0.651738 -1.977162 -2.662862 0
M  V30 14 C -1.254885 -0.333328 -2.431659 0
M  V30 15 O -1.684012 0.712056 -1.737417 0
M  V30 16 C -2.916891 1.082396 -1.645495 0
M  V30 17 C -3.216047 2.198660 -0.884131 0
M  V30 18 C -4.499697 2.694805 -0.709779 0
M  V30 19 C -5.493643 1.985269 -1.362517 0
M  V30 20 F -6.775028 2.448042 -1.214389 0
M  V30 21 C -5.272032 0.867375 -2.136739 0
M  V30 22 C -3.977878 0.442546 -2.258159 0
M  V30 23 C -3.588982 -0.665313 -3.002944 0
M  V30 24 O -4.491112 -1.310679 -3.597448 0
M  V30 25 C -2.244378 -1.010589 -3.061394 0
M  V30 26 C -1.965973 -2.179887 -3.889525 0
M  V30 27 C -1.903842 -3.543377 -3.691188 0
M  V30 28 C -1.611381 -4.402945 -4.710790 0
M  V30 29 C -1.361946 -3.959371 -5.989048 0
M  V30 30 C -1.413748 -2.587937 -6.234042 0
M  V30 31 F -1.156478 -2.245320 -7.508513 0
M  V30 32 C -1.712135 -1.718381 -5.192482 0
M  V30 33 C 0.766319 1.090234 -0.780208 0
M  V30 34 N 0.515495 2.230277 -1.464423 0
M  V30 35 C 0.697206 3.450769 -0.939758 0
M  V30 36 N 1.155910 3.545753 0.342826 0
M  V30 37 C 1.409343 2.411232 1.034195 0
M  V30 38 N 1.849909 2.613571 2.367262 0
M  V30 39 C 1.237279 1.138860 0.531097 0
M  V30 40 C 3.011695 -0.065770 2.947958 0
M  V30 41 C 3.362864 -0.458313 4.219592 0
M  V30 42 F 4.520792 0.038790 4.710606 0
M  V30 43 H 4.081312 -2.956449 8.458132 0
M  V30 44 H 2.693683 -4.044775 8.532346 0
M  V30 45 H 3.783921 -4.198244 7.132875 0
M  V30 46 H 1.568866 -2.957345 6.709517 0
M  V30 47 H 2.258963 -1.965639 9.252795 0
M  V30 48 H 2.192070 -0.564112 8.181057 0
M  V30 49 H 0.743664 -1.704216 8.376477 0
M  V30 50 H 0.802510 -2.424087 4.922204 0
M  V30 51 H 0.122005 -1.760852 2.670850 0
M  V30 52 H 0.656352 0.070938 -3.153876 0
M  V30 53 H 0.235492 -2.740415 -1.968930 0
M  V30 54 H 0.698829 -2.292183 -3.718610 0
M  V30 55 H 1.750741 -1.968693 -2.366016 0
M  V30 56 H -2.454843 2.786594 -0.346845 0
M  V30 57 H -4.708265 3.574055 -0.105802 0
M  V30 58 H -6.058098 0.320550 -2.643070 0
M  V30 59 H -2.123356 -3.723118 -2.629281 0
M  V30 60 H -1.614924 -5.431999 -4.343712 0
M  V30 61 H -1.143642 -4.746435 -6.702438 0
M  V30 62 H -1.705693 -0.693506 -5.584115 0
M  V30 63 H 0.443238 4.242235 -1.633959 0
M  V30 64 H 2.753414 3.175696 2.429525 0
M  V30 65 H 1.494940 2.340847 3.324386 0
M  V30 66 H 3.649464 0.583700 2.397686 0
M  V30 END ATOM
M  V30 BEGIN BOND
M  V30 1 1 1 2
M  V30 2 1 2 3
M  V30 3 1 2 4
M  V30 4 1 4 5
M  V30 5 2 5 6
M  V30 6 1 6 7
M  V30 7 2 7 8
M  V30 8 1 8 9
M  V30 9 2 9 10
M  V30 10 1 10 11
M  V30 11 1 11 12
M  V30 12 1 12 13
M  V30 13 1 12 14
M  V30 14 1 14 15
M  V30 15 1 15 16
M  V30 16 2 16 17
M  V30 17 1 17 18
M  V30 18 2 18 19
M  V30 19 1 19 20
M  V30 20 1 19 21
M  V30 21 2 21 22
M  V30 22 1 22 23
M  V30 23 2 23 24
M  V30 24 1 23 25
M  V30 25 1 25 26
M  V30 26 2 26 27
M  V30 27 1 27 28
M  V30 28 2 28 29
M  V30 29 1 29 30
M  V30 30 1 30 31
M  V30 31 2 30 32
M  V30 32 1 11 33
M  V30 33 2 33 34
M  V30 34 1 34 35
M  V30 35 2 35 36
M  V30 36 1 36 37
M  V30 37 1 37 38
M  V30 38 2 37 39
M  V30 39 1 8 40
M  V30 40 2 40 41
M  V30 41 1 41 42
M  V30 42 1 41 5
M  V30 43 1 39 9
M  V30 44 2 25 14
M  V30 45 1 32 26
M  V30 46 1 39 33
M  V30 47 1 22 16
M  V30 48 1 1 43
M  V30 49 1 1 44
M  V30 50 1 1 45
M  V30 51 1 2 46
M  V30 52 1 3 47
M  V30 53 1 3 48
M  V30 54 1 3 49
M  V30 55 1 6 50
M  V30 56 1 7 51
M  V30 57 1 12 52 CFG=3
M  V30 58 1 13 53
M  V30 59 1 13 54
M  V30 60 1 13 55
M  V30 61 1 17 56
M  V30 62 1 18 57
M  V30 63 1 21 58
M  V30 64 1 27 59
M  V30 65 1 28 60
M  V30 66 1 29 61
M  V30 67 1 32 62
M  V30 68 1 35 63
M  V30 69 1 38 64
M  V30 70 1 38 65
M  V30 71 1 40 66
M  V30 END BOND
M  V30 END CTAB
M  END
>  <Dataset>  (22) 
OralDrugs

>  <Ligand_Instance>  (22) 
nan

>  <PDB_ID>  (22) 
nan

>  <Standardized_SMILES>  (22) 
CC(C)Oc1ccc(-c2nn([C@@H](C)c3oc4ccc(F)cc4c(=O)c3-c3cccc(F)c3)c3ncnc(N)c23)cc1F

>  <Name>  (22) 
Umbralisib

>  <Pocket>  (22) 
nan

>  <ATP_Site>  (22) 
nan

>  <Peripheral>  (22) 
nan

>  <Num_H_Atoms_ProtBoundConf>  (22) 
nan

>  <Num_Resolved_Atoms>  (22) 
nan

>  <Num_Not_Resolved_Atoms>  (22) 
nan

$$$$
CHEMBL3622821
     RDKit          3D

  0  0  0  0  0  0  0  0  0  0999 V3000
M  V30 BEGIN CTAB
M  V30 COUNTS 46 49 0 0 0
M  V30 BEGIN ATOM
M  V30 1 C -3.741771 0.339360 -0.594639 0
M  V30 2 C -2.269753 0.031063 -0.754925 0
M  V30 3 C -1.843796 -1.102375 0.130784 0 CFG=2
M  V30 4 C -2.032560 -0.895875 1.569076 0
M  V30 5 N -0.791871 -1.251989 2.189512 0
M  V30 6 C -0.162178 -0.777605 3.386621 0
M  V30 7 O 0.946638 -1.246705 3.738862 0
M  V30 8 N -0.761105 0.215562 4.192189 0
M  V30 9 C -0.295440 0.815573 5.407983 0
M  V30 10 C 1.015476 1.546645 5.277456 0
M  V30 11 F 2.047000 0.758314 4.873989 0
M  V30 12 F 1.285407 2.062643 6.551262 0
M  V30 13 F 0.860058 2.656313 4.451585 0
M  V30 14 C -0.263965 -2.266441 1.303732 0
M  V30 15 C -0.472416 -1.598826 -0.078347 0 CFG=2
M  V30 16 C 0.587858 -0.624824 -0.192710 0
M  V30 17 C 0.534579 0.571363 0.491798 0
M  V30 18 N 1.627546 1.308691 0.229296 0
M  V30 19 C 2.414214 0.619563 -0.624250 0
M  V30 20 C 3.632720 0.897556 -1.210549 0
M  V30 21 N 4.192440 -0.002937 -2.037320 0
M  V30 22 C 3.557304 -1.164403 -2.282532 0
M  V30 23 N 3.946746 -2.190003 -3.066723 0
M  V30 24 C 2.943966 -3.110409 -2.953901 0
M  V30 25 C 1.970119 -2.631208 -2.109446 0
M  V30 26 C 2.354608 -1.389827 -1.677642 0
M  V30 27 N 1.752844 -0.530937 -0.848884 0
M  V30 28 H -3.950633 1.401193 -0.867456 0
M  V30 29 H -4.092366 0.183217 0.451155 0
M  V30 30 H -4.387266 -0.300242 -1.224537 0
M  V30 31 H -2.160087 -0.333237 -1.814804 0
M  V30 32 H -1.614392 0.920228 -0.709834 0
M  V30 33 H -2.536444 -1.977040 -0.132372 0
M  V30 34 H -2.834118 -1.546542 2.014159 0
M  V30 35 H -2.230075 0.167880 1.864812 0
M  V30 36 H -1.692359 0.559791 3.833463 0
M  V30 37 H -0.108296 -0.017591 6.154794 0
M  V30 38 H -1.027612 1.474940 5.879116 0
M  V30 39 H -0.862796 -3.187137 1.376626 0
M  V30 40 H 0.793985 -2.388162 1.520681 0
M  V30 41 H -0.521616 -2.384320 -0.854427 0
M  V30 42 H -0.139794 1.043191 1.158374 0
M  V30 43 H 4.119292 1.837192 -0.995448 0
M  V30 44 H 4.846286 -2.216754 -3.624348 0
M  V30 45 H 3.083640 -4.031934 -3.531452 0
M  V30 46 H 1.168282 -3.289425 -1.972877 0
M  V30 END ATOM
M  V30 BEGIN BOND
M  V30 1 1 1 2
M  V30 2 1 2 3
M  V30 3 1 3 4
M  V30 4 1 4 5
M  V30 5 1 5 6
M  V30 6 2 6 7
M  V30 7 1 6 8
M  V30 8 1 8 9
M  V30 9 1 9 10
M  V30 10 1 10 11
M  V30 11 1 10 12
M  V30 12 1 10 13
M  V30 13 1 5 14
M  V30 14 1 14 15
M  V30 15 1 15 16
M  V30 16 2 16 17
M  V30 17 1 17 18
M  V30 18 2 18 19
M  V30 19 1 19 20
M  V30 20 2 20 21
M  V30 21 1 21 22
M  V30 22 1 22 23
M  V30 23 1 23 24
M  V30 24 2 24 25
M  V30 25 1 25 26
M  V30 26 1 26 27
M  V30 27 1 15 3
M  V30 28 1 27 16
M  V30 29 1 27 19
M  V30 30 2 26 22
M  V30 31 1 1 28
M  V30 32 1 1 29
M  V30 33 1 1 30
M  V30 34 1 2 31
M  V30 35 1 2 32
M  V30 36 1 3 33 CFG=3
M  V30 37 1 4 34
M  V30 38 1 4 35
M  V30 39 1 8 36
M  V30 40 1 9 37
M  V30 41 1 9 38
M  V30 42 1 14 39
M  V30 43 1 14 40
M  V30 44 1 15 41 CFG=3
M  V30 45 1 17 42
M  V30 46 1 20 43
M  V30 47 1 23 44
M  V30 48 1 24 45
M  V30 49 1 25 46
M  V30 END BOND
M  V30 END CTAB
M  END
>  <Dataset>  (23) 
OralDrugs

>  <Ligand_Instance>  (23) 
nan

>  <PDB_ID>  (23) 
nan

>  <Standardized_SMILES>  (23) 
CC[C@@H]1CN(C(=O)NCC(F)(F)F)C[C@@H]1c1cnc2cnc3[nH]ccc3n12

>  <Name>  (23) 
Upadacitinib

>  <Pocket>  (23) 
nan

>  <ATP_Site>  (23) 
nan

>  <Peripheral>  (23) 
nan

>  <Num_H_Atoms_ProtBoundConf>  (23) 
nan

>  <Num_Resolved_Atoms>  (23) 
nan

>  <Num_Not_Resolved_Atoms>  (23) 
nan

$$$$
CHEMBL1488
     RDKit          3D

  0  0  0  0  0  0  0  0  0  0999 V3000
M  V30 BEGIN CTAB
M  V30 COUNTS 26 26 0 0 0
M  V30 BEGIN ATOM
M  V30 1 O 2.839262 1.443622 4.159732 0
M  V30 2 C 2.108258 0.838443 3.135277 0
M  V30 3 N 0.985200 0.234610 3.571996 0
M  V30 4 C 0.207771 -0.379211 2.664201 0
M  V30 5 C 0.487720 -0.428677 1.319815 0
M  V30 6 N -0.155817 -0.980142 0.191393 0
M  V30 7 C -0.811908 -0.132481 -0.747537 0
M  V30 8 C -0.887740 1.312856 -0.416693 0
M  V30 9 Cl -1.759376 2.091702 -1.786262 0
M  V30 10 C -0.207177 -2.371541 -0.197075 0
M  V30 11 C -1.595416 -2.942694 -0.156565 0
M  V30 12 Cl -2.343818 -2.880503 1.446385 0
M  V30 13 C 1.668983 0.214262 0.913027 0
M  V30 14 O 2.290576 0.381064 -0.342295 0
M  V30 15 N 2.457848 0.838461 1.838519 0
M  V30 16 H 3.731913 1.019386 4.424300 0
M  V30 17 H -0.713417 -0.891978 2.888871 0
M  V30 18 H -0.367724 -0.314183 -1.761349 0
M  V30 19 H -1.883023 -0.474500 -0.882377 0
M  V30 20 H 0.028054 1.839143 -0.187593 0
M  V30 21 H -1.570027 1.485767 0.467747 0
M  V30 22 H 0.487066 -2.979845 0.455583 0
M  V30 23 H 0.219336 -2.498496 -1.222471 0
M  V30 24 H -2.235073 -2.457857 -0.916889 0
M  V30 25 H -1.512689 -4.034066 -0.448892 0
M  V30 26 H 2.307176 1.329929 -0.692703 0
M  V30 END ATOM
M  V30 BEGIN BOND
M  V30 1 1 1 2
M  V30 2 2 2 3
M  V30 3 1 3 4
M  V30 4 2 4 5
M  V30 5 1 5 6
M  V30 6 1 6 7
M  V30 7 1 7 8
M  V30 8 1 8 9
M  V30 9 1 6 10
M  V30 10 1 10 11
M  V30 11 1 11 12
M  V30 12 1 5 13
M  V30 13 1 13 14
M  V30 14 2 13 15
M  V30 15 1 15 2
M  V30 16 1 1 16
M  V30 17 1 4 17
M  V30 18 1 7 18
M  V30 19 1 7 19
M  V30 20 1 8 20
M  V30 21 1 8 21
M  V30 22 1 10 22
M  V30 23 1 10 23
M  V30 24 1 11 24
M  V30 25 1 11 25
M  V30 26 1 14 26
M  V30 END BOND
M  V30 END CTAB
M  END
>  <Dataset>  (24) 
OralDrugs

>  <Ligand_Instance>  (24) 
nan

>  <PDB_ID>  (24) 
nan

>  <Standardized_SMILES>  (24) 
Oc1ncc(N(CCCl)CCCl)c(O)n1

>  <Name>  (24) 
Uracil Mustard

>  <Pocket>  (24) 
nan

>  <ATP_Site>  (24) 
nan

>  <Peripheral>  (24) 
nan

>  <Num_H_Atoms_ProtBoundConf>  (24) 
nan

>  <Num_Resolved_Atoms>  (24) 
nan

>  <Num_Not_Resolved_Atoms>  (24) 
nan

$$$$
CHEMBL985
     RDKit          3D

  0  0  0  0  0  0  0  0  0  0999 V3000
M  V30 BEGIN CTAB
M  V30 COUNTS 8 7 0 0 0
M  V30 BEGIN ATOM
M  V30 1 N 2.119522 -0.981501 3.005193 0
M  V30 2 C 1.927574 -1.489650 1.707247 0
M  V30 3 N 0.604510 -1.986345 1.531333 0
M  V30 4 O 2.789799 -1.517021 0.797545 0
M  V30 5 H 1.439019 -0.449164 3.555543 0
M  V30 6 H 3.038068 -1.155024 3.465449 0
M  V30 7 H 0.515317 -3.037192 1.439688 0
M  V30 8 H -0.287223 -1.482114 1.478562 0
M  V30 END ATOM
M  V30 BEGIN BOND
M  V30 1 1 1 2
M  V30 2 1 2 3
M  V30 3 2 2 4
M  V30 4 1 1 5
M  V30 5 1 1 6
M  V30 6 1 3 7
M  V30 7 1 3 8
M  V30 END BOND
M  V30 END CTAB
M  END
>  <Dataset>  (25) 
OralDrugs

>  <Ligand_Instance>  (25) 
nan

>  <PDB_ID>  (25) 
nan

>  <Standardized_SMILES>  (25) 
NC(N)=O

>  <Name>  (25) 
Urea

>  <Pocket>  (25) 
nan

>  <ATP_Site>  (25) 
nan

>  <Peripheral>  (25) 
nan

>  <Num_H_Atoms_ProtBoundConf>  (25) 
nan

>  <Num_Resolved_Atoms>  (25) 
nan

>  <Num_Not_Resolved_Atoms>  (25) 
nan

$$$$
CHEMBL1551
     RDKit          3D

  0  0  0  0  0  0  0  0  0  0999 V3000
M  V30 BEGIN CTAB
M  V30 COUNTS 68 71 0 0 0
M  V30 BEGIN ATOM
M  V30 1 C 2.773579 -3.923436 2.007685 0
M  V30 2 C 2.762150 -2.522896 1.431319 0 CFG=2
M  V30 3 C 3.948099 -1.783573 1.877872 0
M  V30 4 C 5.223234 -2.448153 1.439955 0
M  V30 5 C 5.471989 -3.787493 1.950374 0
M  V30 6 O 5.970020 -3.788501 3.118230 0
M  V30 7 O 5.708602 -5.057958 2.436072 0
M  V30 8 C 1.430349 -1.963683 1.684892 0 CFG=1
M  V30 9 C 0.965523 -1.837544 3.093722 0
M  V30 10 C -0.248620 -0.892474 3.018811 0
M  V30 11 C -0.404690 -0.706671 1.547966 0 CFG=1
M  V30 12 C -1.193155 0.420979 1.048653 0 CFG=2
M  V30 13 C -2.614976 0.349476 1.540776 0 CFG=1
M  V30 14 O -3.048218 1.586281 2.050472 0
M  V30 15 C -3.590470 -0.190403 0.547948 0
M  V30 16 C -3.568202 0.530227 -0.774995 0 CFG=2
M  V30 17 C -4.175171 -0.441170 -1.766905 0
M  V30 18 C -4.279150 0.129606 -3.153751 0 CFG=2
M  V30 19 O -3.911926 -0.885160 -4.035080 0
M  V30 20 C -3.300793 1.260346 -3.331307 0
M  V30 21 C -1.989742 0.813396 -2.669377 0
M  V30 22 C -2.211677 1.030319 -1.174094 0 CFG=1
M  V30 23 C -2.041603 2.510383 -0.928837 0
M  V30 24 C -1.172670 0.231925 -0.476884 0 CFG=1
M  V30 25 C 0.241499 0.554009 -0.889675 0
M  V30 26 C 1.165377 -0.513005 -0.343518 0
M  V30 27 C 1.079396 -0.622970 1.139213 0 CFG=2
M  V30 28 C 1.740183 0.518181 1.869207 0
M  V30 29 H 3.262760 -3.905564 2.997978 0
M  V30 30 H 3.268866 -4.645717 1.331373 0
M  V30 31 H 1.709482 -4.276282 2.189858 0
M  V30 32 H 2.819377 -2.697638 0.307590 0
M  V30 33 H 4.002070 -1.743644 3.007286 0
M  V30 34 H 3.988164 -0.717480 1.578219 0
M  V30 35 H 6.118414 -1.795108 1.661658 0
M  V30 36 H 5.268199 -2.527494 0.307531 0
M  V30 37 H 5.801228 -5.867950 1.814212 0
M  V30 38 H 0.691716 -2.678330 1.194058 0
M  V30 39 H 0.618806 -2.855030 3.431145 0
M  V30 40 H 1.694409 -1.497102 3.827057 0
M  V30 41 H -1.117674 -1.427770 3.427724 0
M  V30 42 H -0.098465 0.029336 3.590430 0
M  V30 43 H -0.760223 -1.653228 1.104363 0
M  V30 44 H -0.819803 1.413491 1.304544 0
M  V30 45 H -2.627428 -0.331750 2.419158 0
M  V30 46 H -3.781407 1.906956 1.475621 0
M  V30 47 H -3.451724 -1.278603 0.443748 0
M  V30 48 H -4.604667 -0.020312 0.971722 0
M  V30 49 H -4.259554 1.412823 -0.733466 0
M  V30 50 H -3.584579 -1.368785 -1.727430 0
M  V30 51 H -5.221569 -0.618868 -1.386423 0
M  V30 52 H -5.321682 0.419942 -3.406473 0
M  V30 53 H -3.670301 -1.736742 -3.577357 0
M  V30 54 H -3.131105 1.460886 -4.413111 0
M  V30 55 H -3.739053 2.142965 -2.804436 0
M  V30 56 H -1.218080 1.494293 -3.057453 0
M  V30 57 H -1.825163 -0.237663 -2.910633 0
M  V30 58 H -2.948078 2.986056 -0.515181 0
M  V30 59 H -1.144493 2.668754 -0.277326 0
M  V30 60 H -1.805514 3.085450 -1.864261 0
M  V30 61 H -1.337427 -0.846601 -0.677655 0
M  V30 62 H 0.532140 1.521670 -0.444639 0
M  V30 63 H 0.371412 0.619060 -1.991600 0
M  V30 64 H 2.201440 -0.181491 -0.632864 0
M  V30 65 H 0.974727 -1.502358 -0.807554 0
M  V30 66 H 2.420742 1.025793 1.161919 0
M  V30 67 H 2.180303 0.177748 2.804613 0
M  V30 68 H 0.997573 1.295388 2.152078 0
M  V30 END ATOM
M  V30 BEGIN BOND
M  V30 1 1 1 2
M  V30 2 1 2 3
M  V30 3 1 3 4
M  V30 4 1 4 5
M  V30 5 2 5 6
M  V30 6 1 5 7
M  V30 7 1 2 8
M  V30 8 1 8 9
M  V30 9 1 9 10
M  V30 10 1 10 11
M  V30 11 1 11 12
M  V30 12 1 12 13
M  V30 13 1 13 14
M  V30 14 1 13 15
M  V30 15 1 15 16
M  V30 16 1 16 17
M  V30 17 1 17 18
M  V30 18 1 18 19
M  V30 19 1 18 20
M  V30 20 1 20 21
M  V30 21 1 21 22
M  V30 22 1 22 23 CFG=3
M  V30 23 1 22 24
M  V30 24 1 24 25
M  V30 25 1 25 26
M  V30 26 1 26 27
M  V30 27 1 27 28 CFG=1
M  V30 28 1 27 8
M  V30 29 1 27 11
M  V30 30 1 24 12
M  V30 31 1 22 16
M  V30 32 1 1 29
M  V30 33 1 1 30
M  V30 34 1 1 31
M  V30 35 1 2 32 CFG=3
M  V30 36 1 3 33
M  V30 37 1 3 34
M  V30 38 1 4 35
M  V30 39 1 4 36
M  V30 40 1 7 37
M  V30 41 1 8 38 CFG=3
M  V30 42 1 9 39
M  V30 43 1 9 40
M  V30 44 1 10 41
M  V30 45 1 10 42
M  V30 46 1 11 43 CFG=3
M  V30 47 1 12 44 CFG=3
M  V30 48 1 13 45 CFG=1
M  V30 49 1 14 46
M  V30 50 1 15 47
M  V30 51 1 15 48
M  V30 52 1 16 49 CFG=1
M  V30 53 1 17 50
M  V30 54 1 17 51
M  V30 55 1 18 52 CFG=3
M  V30 56 1 19 53
M  V30 57 1 20 54
M  V30 58 1 20 55
M  V30 59 1 21 56
M  V30 60 1 21 57
M  V30 61 1 23 58
M  V30 62 1 23 59
M  V30 63 1 23 60
M  V30 64 1 24 61 CFG=1
M  V30 65 1 25 62
M  V30 66 1 25 63
M  V30 67 1 26 64
M  V30 68 1 26 65
M  V30 69 1 28 66
M  V30 70 1 28 67
M  V30 71 1 28 68
M  V30 END BOND
M  V30 END CTAB
M  END
>  <Dataset>  (26) 
OralDrugs

>  <Ligand_Instance>  (26) 
nan

>  <PDB_ID>  (26) 
nan

>  <Standardized_SMILES>  (26) 
C[C@H](CCC(=O)O)[C@H]1CC[C@H]2[C@@H]3[C@@H](O)C[C@@H]4C[C@H](O)CC[C@]4(C)[C@H]3CC[C@]12C

>  <Name>  (26) 
Ursodiol

>  <Pocket>  (26) 
nan

>  <ATP_Site>  (26) 
nan

>  <Peripheral>  (26) 
nan

>  <Num_H_Atoms_ProtBoundConf>  (26) 
nan

>  <Num_Resolved_Atoms>  (26) 
nan

>  <Num_Not_Resolved_Atoms>  (26) 
nan

$$$$
CHEMBL1069
     RDKit          3D

  0  0  0  0  0  0  0  0  0  0999 V3000
M  V30 BEGIN CTAB
M  V30 COUNTS 61 63 0 0 0
M  V30 BEGIN ATOM
M  V30 1 C 0.971606 -2.057401 4.762066 0
M  V30 2 C 2.099107 -3.016494 4.452559 0
M  V30 3 C 3.269872 -2.352261 3.816707 0
M  V30 4 C 3.031017 -1.654220 2.528115 0
M  V30 5 C 2.556579 -2.484910 1.410771 0
M  V30 6 O 2.608164 -3.692088 1.863401 0
M  V30 7 N 2.149317 -1.915290 0.109212 0
M  V30 8 C 2.182592 -0.492883 0.021436 0
M  V30 9 C 0.930857 0.250292 0.135888 0
M  V30 10 C 0.338395 0.761689 -1.041412 0
M  V30 11 C -0.833746 1.473446 -1.162096 0
M  V30 12 C -1.544568 1.737842 -0.006399 0
M  V30 13 C -2.788715 2.482210 0.059511 0
M  V30 14 C -2.581119 3.767587 0.539635 0
M  V30 15 C -3.641500 4.636642 0.642187 0
M  V30 16 C -4.888851 4.200379 0.261031 0
M  V30 17 C -5.022142 2.919790 -0.203303 0
M  V30 18 C -4.009125 1.996145 -0.332505 0
M  V30 19 C -4.252050 0.646848 -0.800223 0
M  V30 20 N -5.431625 0.317946 -1.311638 0
M  V30 21 N -5.453530 -0.930411 -1.707030 0
M  V30 22 N -4.271309 -1.443362 -1.455773 0
M  V30 23 N -3.561793 -0.477629 -0.908443 0
M  V30 24 C -1.035765 1.273746 1.180016 0
M  V30 25 C 0.142916 0.572503 1.198627 0
M  V30 26 C 1.887156 -3.149544 -0.604043 0 CFG=2
M  V30 27 C 2.913224 -3.345881 -1.692137 0
M  V30 28 O 3.167945 -4.268047 -2.546975 0
M  V30 29 O 4.004854 -2.796523 -2.342124 0
M  V30 30 C 0.507242 -3.358902 -1.095943 0
M  V30 31 C -0.029591 -2.395686 -2.088083 0
M  V30 32 C 0.343248 -4.765877 -1.671778 0
M  V30 33 H 0.089304 -2.425236 4.166022 0
M  V30 34 H 0.757675 -2.061971 5.841985 0
M  V30 35 H 1.175452 -1.016625 4.459903 0
M  V30 36 H 1.778424 -3.937656 3.953202 0
M  V30 37 H 2.481725 -3.382903 5.459921 0
M  V30 38 H 4.033948 -3.171382 3.652232 0
M  V30 39 H 3.726940 -1.692803 4.592837 0
M  V30 40 H 2.474376 -0.710504 2.632006 0
M  V30 41 H 4.068121 -1.301435 2.191553 0
M  V30 42 H 2.651488 -0.174073 -0.955907 0
M  V30 43 H 2.940312 -0.115900 0.770171 0
M  V30 44 H 0.817981 0.615123 -2.017974 0
M  V30 45 H -1.229418 1.834113 -2.093610 0
M  V30 46 H -1.639318 4.177292 0.853820 0
M  V30 47 H -3.580038 5.653898 1.004357 0
M  V30 48 H -5.742661 4.859184 0.329627 0
M  V30 49 H -6.044728 2.630313 -0.491986 0
M  V30 50 H -2.583867 -0.567220 -0.581406 0
M  V30 51 H -1.566500 1.462093 2.120754 0
M  V30 52 H 0.473158 0.242584 2.170396 0
M  V30 53 H 2.105645 -3.973924 0.115036 0
M  V30 54 H 3.924138 -2.013243 -2.975683 0
M  V30 55 H -0.223619 -3.359632 -0.233875 0
M  V30 56 H -0.816283 -1.779488 -1.621551 0
M  V30 57 H -0.577401 -2.926786 -2.930572 0
M  V30 58 H 0.727225 -1.702363 -2.505174 0
M  V30 59 H 0.949133 -4.810394 -2.594620 0
M  V30 60 H -0.723889 -4.957608 -1.928855 0
M  V30 61 H 0.766202 -5.493729 -0.958439 0
M  V30 END ATOM
M  V30 BEGIN BOND
M  V30 1 1 1 2
M  V30 2 1 2 3
M  V30 3 1 3 4
M  V30 4 1 4 5
M  V30 5 2 5 6
M  V30 6 1 5 7
M  V30 7 1 7 8
M  V30 8 1 8 9
M  V30 9 2 9 10
M  V30 10 1 10 11
M  V30 11 2 11 12
M  V30 12 1 12 13
M  V30 13 2 13 14
M  V30 14 1 14 15
M  V30 15 2 15 16
M  V30 16 1 16 17
M  V30 17 2 17 18
M  V30 18 1 18 19
M  V30 19 2 19 20
M  V30 20 1 20 21
M  V30 21 2 21 22
M  V30 22 1 22 23
M  V30 23 1 12 24
M  V30 24 2 24 25
M  V30 25 1 7 26
M  V30 26 1 26 27
M  V30 27 2 27 28
M  V30 28 1 27 29
M  V30 29 1 26 30
M  V30 30 1 30 31
M  V30 31 1 30 32
M  V30 32 1 25 9
M  V30 33 1 18 13
M  V30 34 1 23 19
M  V30 35 1 1 33
M  V30 36 1 1 34
M  V30 37 1 1 35
M  V30 38 1 2 36
M  V30 39 1 2 37
M  V30 40 1 3 38
M  V30 41 1 3 39
M  V30 42 1 4 40
M  V30 43 1 4 41
M  V30 44 1 8 42
M  V30 45 1 8 43
M  V30 46 1 10 44
M  V30 47 1 11 45
M  V30 48 1 14 46
M  V30 49 1 15 47
M  V30 50 1 16 48
M  V30 51 1 17 49
M  V30 52 1 23 50
M  V30 53 1 24 51
M  V30 54 1 25 52
M  V30 55 1 26 53 CFG=1
M  V30 56 1 29 54
M  V30 57 1 30 55
M  V30 58 1 31 56
M  V30 59 1 31 57
M  V30 60 1 31 58
M  V30 61 1 32 59
M  V30 62 1 32 60
M  V30 63 1 32 61
M  V30 END BOND
M  V30 END CTAB
M  END
>  <Dataset>  (27) 
OralDrugs

>  <Ligand_Instance>  (27) 
nan

>  <PDB_ID>  (27) 
nan

>  <Standardized_SMILES>  (27) 
CCCCC(=O)N(Cc1ccc(-c2ccccc2-c2nnn[nH]2)cc1)[C@H](C(=O)O)C(C)C

>  <Name>  (27) 
Valsartan

>  <Pocket>  (27) 
nan

>  <ATP_Site>  (27) 
nan

>  <Peripheral>  (27) 
nan

>  <Num_H_Atoms_ProtBoundConf>  (27) 
nan

>  <Num_Resolved_Atoms>  (27) 
nan

>  <Num_Not_Resolved_Atoms>  (27) 
nan

$$$$
CHEMBL3707311
     RDKit          3D

  0  0  0  0  0  0  0  0  0  0999 V3000
M  V30 BEGIN CTAB
M  V30 COUNTS 56 59 0 0 0
M  V30 BEGIN ATOM
M  V30 1 C -0.442646 -3.898760 4.282902 0
M  V30 2 C -0.075784 -4.635684 3.014470 0
M  V30 3 C -0.699485 -3.965686 1.812744 0
M  V30 4 O -1.896939 -4.235043 1.636616 0
M  V30 5 C 0.181602 -3.104609 1.031750 0 CFG=1
M  V30 6 O 1.480625 -3.023464 1.530845 0
M  V30 7 C 0.382670 -3.580311 -0.415376 0 CFG=2
M  V30 8 C 1.222445 -4.804716 -0.516506 0
M  V30 9 C 1.090896 -2.353578 -1.016230 0
M  V30 10 C 0.874184 -1.217433 -0.047007 0 CFG=1
M  V30 11 C 0.625317 0.101487 -0.656681 0 CFG=2
M  V30 12 C 1.827400 0.997583 -0.651436 0
M  V30 13 C 1.601546 2.447152 -0.755647 0
M  V30 14 C 0.278982 2.956861 -0.358093 0
M  V30 15 C 0.165900 4.158807 0.200700 0
M  V30 16 C -1.173007 4.605295 0.571678 0
M  V30 17 O -1.396240 5.719226 1.104196 0
M  V30 18 C -2.318651 3.762035 0.334359 0
M  V30 19 C -2.164834 2.578041 -0.221073 0
M  V30 20 C -0.871901 2.050732 -0.622458 0 CFG=1
M  V30 21 C -0.980530 1.763666 -2.126869 0
M  V30 22 C -0.470089 0.794844 0.080186 0
M  V30 23 C -1.091588 0.460116 1.208456 0
M  V30 24 C -0.604581 -0.824894 1.836017 0
M  V30 25 C -0.360727 -1.739054 0.706209 0 CFG=2
M  V30 26 C -1.562320 -1.794717 -0.175404 0
M  V30 27 H 0.367664 -3.218277 4.625059 0
M  V30 28 H -0.578866 -4.650056 5.093724 0
M  V30 29 H -1.393683 -3.366132 4.079293 0
M  V30 30 H 1.030842 -4.721323 2.896581 0
M  V30 31 H -0.495693 -5.649480 3.072097 0
M  V30 32 H 1.578174 -2.464042 2.319976 0
M  V30 33 H -0.561888 -3.717465 -0.943776 0
M  V30 34 H 0.563895 -5.714192 -0.567527 0
M  V30 35 H 2.006437 -4.900787 0.235801 0
M  V30 36 H 1.741927 -4.788796 -1.515306 0
M  V30 37 H 2.177695 -2.622382 -0.950746 0
M  V30 38 H 0.767510 -2.129610 -2.030665 0
M  V30 39 H 1.658097 -1.146765 0.714687 0
M  V30 40 H 0.238640 -0.051590 -1.704206 0
M  V30 41 H 2.378760 0.789138 0.298521 0
M  V30 42 H 2.534236 0.629455 -1.440345 0
M  V30 43 H 2.434224 2.993085 -0.217998 0
M  V30 44 H 1.761177 2.755756 -1.822481 0
M  V30 45 H 1.023316 4.792736 0.380863 0
M  V30 46 H -3.352340 4.032168 0.585844 0
M  V30 47 H -2.993068 1.895979 -0.426884 0
M  V30 48 H -1.598830 2.588675 -2.563473 0
M  V30 49 H -1.560080 0.837718 -2.297963 0
M  V30 50 H -0.012712 1.786746 -2.636508 0
M  V30 51 H -1.869245 1.123543 1.563374 0
M  V30 52 H 0.314904 -0.542946 2.390580 0
M  V30 53 H -1.391820 -1.196505 2.521202 0
M  V30 54 H -1.326706 -1.663680 -1.252370 0
M  V30 55 H -2.149346 -2.731846 -0.123844 0
M  V30 56 H -2.291962 -0.972884 0.050988 0
M  V30 END ATOM
M  V30 BEGIN BOND
M  V30 1 1 1 2
M  V30 2 1 2 3
M  V30 3 2 3 4
M  V30 4 1 3 5
M  V30 5 1 5 6 CFG=1
M  V30 6 1 5 7
M  V30 7 1 7 8
M  V30 8 1 7 9
M  V30 9 1 9 10
M  V30 10 1 10 11
M  V30 11 1 11 12
M  V30 12 1 12 13
M  V30 13 1 13 14
M  V30 14 2 14 15
M  V30 15 1 15 16
M  V30 16 2 16 17
M  V30 17 1 16 18
M  V30 18 2 18 19
M  V30 19 1 19 20
M  V30 20 1 20 21 CFG=3
M  V30 21 1 20 22
M  V30 22 2 22 23
M  V30 23 1 23 24
M  V30 24 1 24 25
M  V30 25 1 25 26 CFG=3
M  V30 26 1 25 5
M  V30 27 1 25 10
M  V30 28 1 22 11
M  V30 29 1 20 14
M  V30 30 1 1 27
M  V30 31 1 1 28
M  V30 32 1 1 29
M  V30 33 1 2 30
M  V30 34 1 2 31
M  V30 35 1 6 32
M  V30 36 1 7 33 CFG=3
M  V30 37 1 8 34
M  V30 38 1 8 35
M  V30 39 1 8 36
M  V30 40 1 9 37
M  V30 41 1 9 38
M  V30 42 1 10 39 CFG=1
M  V30 43 1 11 40 CFG=3
M  V30 44 1 12 41
M  V30 45 1 12 42
M  V30 46 1 13 43
M  V30 47 1 13 44
M  V30 48 1 15 45
M  V30 49 1 18 46
M  V30 50 1 19 47
M  V30 51 1 21 48
M  V30 52 1 21 49
M  V30 53 1 21 50
M  V30 54 1 23 51
M  V30 55 1 24 52
M  V30 56 1 24 53
M  V30 57 1 26 54
M  V30 58 1 26 55
M  V30 59 1 26 56
M  V30 END BOND
M  V30 END CTAB
M  END
>  <Dataset>  (28) 
OralDrugs

>  <Ligand_Instance>  (28) 
nan

>  <PDB_ID>  (28) 
nan

>  <Standardized_SMILES>  (28) 
CCC(=O)[C@@]1(O)[C@H](C)C[C@H]2[C@@H]3CCC4=CC(=O)C=C[C@]4(C)C3=CC[C@@]21C

>  <Name>  (28) 
Vamorolone

>  <Pocket>  (28) 
nan

>  <ATP_Site>  (28) 
nan

>  <Peripheral>  (28) 
nan

>  <Num_H_Atoms_ProtBoundConf>  (28) 
nan

>  <Num_Resolved_Atoms>  (28) 
nan

>  <Num_Not_Resolved_Atoms>  (28) 
nan

$$$$
CHEMBL262777
     RDKit          2D

  0  0  0  0  0  0  0  0  0  0999 V3000
M  V30 BEGIN CTAB
M  V30 COUNTS 176 185 0 0 0
M  V30 BEGIN ATOM
M  V30 1 C -16.673569 -10.132713 0.000000 0
M  V30 2 N -15.186401 -10.328502 0.000000 0
M  V30 3 C -14.612376 -11.714321 0.000000 0
M  V30 4 C -15.998195 -12.288346 0.000000 0
M  V30 5 C -17.384015 -12.862372 0.000000 0
M  V30 6 C -18.769834 -13.436397 0.000000 0
M  V30 7 C -16.809990 -14.248191 0.000000 0
M  V30 8 C -13.226557 -11.140296 0.000000 0
M  V30 9 O -13.030768 -9.653129 0.000000 0
M  V30 10 N -12.036527 -12.053438 0.000000 0
M  V30 11 C -10.650708 -11.479413 0.000000 0
M  V30 12 C -10.076682 -10.093594 0.000000 0
M  V30 13 O -11.323887 -9.260238 0.000000 0
M  V30 14 N -9.016022 -9.032934 0.000000 0
M  V30 15 C -7.630203 -8.458908 0.000000 0
M  V30 16 C -8.690863 -7.398248 0.000000 0
M  V30 17 C -9.751523 -6.337588 0.000000 0
M  V30 18 N -9.363295 -4.888699 0.000000 0
M  V30 19 O -11.200412 -6.725817 0.000000 0
M  V30 20 C -6.130203 -8.458908 0.000000 0
M  V30 21 O -5.837567 -6.987731 0.000000 0
M  V30 22 N -4.744384 -9.032934 0.000000 0
M  V30 23 C -3.683723 -10.093594 0.000000 0
M  V30 24 C -3.683723 -8.593594 0.000000 0
M  V30 25 O -5.040372 -7.953668 0.000000 0
M  V30 26 N -3.109698 -7.207774 0.000000 0
M  V30 27 C -2.049038 -6.147114 0.000000 0
M  V30 28 C -0.750000 -6.897114 0.000000 0
M  V30 29 O -1.138229 -8.346003 0.000000 0
M  V30 30 N 0.750000 -6.897114 0.000000 0
M  V30 31 C 2.049038 -6.147114 0.000000 0
M  V30 32 C 2.799038 -4.848076 0.000000 0
M  V30 33 O 4.284446 -5.056796 0.000000 0
M  V30 34 N 2.799038 -3.348076 0.000000 0
M  V30 35 C 2.049038 -2.049038 0.000000 0
M  V30 36 C 2.309510 -0.571826 0.000000 0
M  V30 37 O 3.771075 -0.234439 0.000000 0
M  V30 38 O 1.160444 0.392355 0.000000 0
M  V30 39 C 0.750000 -1.299038 0.000000 0
M  V30 40 C 1.500000 0.000000 0.000000 0
M  V30 41 C 0.750000 1.299038 0.000000 0
M  V30 42 O 1.500000 2.598076 0.000000 0
M  V30 43 C -0.750000 1.299038 0.000000 0
M  V30 44 C -1.500000 0.000000 0.000000 0
M  V30 45 O -3.000000 0.000000 0.000000 0
M  V30 46 C -0.750000 -1.299038 0.000000 0
M  V30 47 C -2.049038 -2.049038 0.000000 0
M  V30 48 C -2.799038 -3.348076 0.000000 0
M  V30 49 C -2.799038 -4.848076 0.000000 0
M  V30 50 C -4.170358 -4.170358 0.000000 0
M  V30 51 C -4.558587 -2.721470 0.000000 0
M  V30 52 C -3.497927 -1.660810 0.000000 0
M  V30 53 O -3.886155 -0.211921 0.000000 0
M  V30 54 C 3.283261 -7.207774 0.000000 0
M  V30 55 O 4.783261 -7.207774 0.000000 0
M  V30 56 C 3.857286 -8.593594 0.000000 0
M  V30 57 C 3.857286 -10.093594 0.000000 0
M  V30 58 C 3.283261 -11.479413 0.000000 0
M  V30 59 C 2.222600 -12.540073 0.000000 0
M  V30 60 C 2.222600 -11.040073 0.000000 0
M  V30 61 Cl 0.751423 -10.747438 0.000000 0
M  V30 62 C 2.796626 -9.654254 0.000000 0
M  V30 63 O 0.836781 -13.114098 0.000000 0
M  V30 64 C -0.663219 -13.114098 0.000000 0
M  V30 65 C -2.049038 -12.540073 0.000000 0
M  V30 66 C -3.109698 -11.479413 0.000000 0
M  V30 67 C -3.109698 -12.979413 0.000000 0
M  V30 68 C -3.683723 -14.365232 0.000000 0
M  V30 69 C -1.576361 -14.304128 0.000000 0
M  V30 70 O -1.002336 -15.689948 0.000000 0
M  V30 71 C -1.915478 -16.879978 0.000000 0
M  V30 72 O -0.584962 -17.572601 0.000000 0
M  V30 73 C -0.519533 -19.071173 0.000000 0
M  V30 74 C 0.054493 -20.456992 0.000000 0
M  V30 75 O 0.628518 -21.842812 0.000000 0
M  V30 76 C -1.784620 -19.877122 0.000000 0
M  V30 77 O -2.697762 -21.067152 0.000000 0
M  V30 78 C -3.115136 -19.184499 0.000000 0
M  V30 79 O -4.602303 -18.988710 0.000000 0
M  V30 80 C -3.180565 -17.685927 0.000000 0
M  V30 81 O -3.754590 -16.300108 0.000000 0
M  V30 82 C -5.241758 -16.104319 0.000000 0
M  V30 83 C -5.176328 -17.602891 0.000000 0
M  V30 84 C -6.441416 -18.408840 0.000000 0
M  V30 85 C -7.354558 -19.598870 0.000000 0
M  V30 86 N -5.428030 -19.514756 0.000000 0
M  V30 87 C -7.771932 -17.716217 0.000000 0
M  V30 88 O -9.259099 -17.520428 0.000000 0
M  V30 89 C -7.837361 -16.217645 0.000000 0
M  V30 90 C -8.411386 -14.831826 0.000000 0
M  V30 91 O -6.572274 -15.411696 0.000000 0
M  V30 92 O -4.744384 -15.425893 0.000000 0
M  V30 93 C -6.130203 -15.999918 0.000000 0
M  V30 94 C -7.630203 -15.999918 0.000000 0
M  V30 95 C -9.016022 -15.425893 0.000000 0
M  V30 96 C -10.076682 -14.365232 0.000000 0
M  V30 97 C -8.576682 -14.365232 0.000000 0
M  V30 98 C -7.190863 -14.939258 0.000000 0
M  V30 99 Cl -6.211693 -13.802936 0.000000 0
M  V30 100 C -10.650708 -12.979413 0.000000 0
M  V30 101 O -11.711368 -14.040073 0.000000 0
M  V30 102 H -18.160736 -9.936923 0.000000 0
M  V30 103 H -16.477779 -8.645545 0.000000 0
M  V30 104 H -17.049178 -11.584924 0.000000 0
M  V30 105 H -14.273259 -9.138472 0.000000 0
M  V30 106 H -14.038351 -13.100141 0.000000 0
M  V30 107 H -17.030815 -11.200368 0.000000 0
M  V30 108 H -15.259525 -13.593860 0.000000 0
M  V30 109 H -17.958040 -11.476552 0.000000 0
M  V30 110 H -20.155653 -14.010422 0.000000 0
M  V30 111 H -19.343859 -12.050577 0.000000 0
M  V30 112 H -18.369015 -14.881853 0.000000 0
M  V30 113 H -16.235964 -15.634010 0.000000 0
M  V30 114 H -18.115503 -14.986861 0.000000 0
M  V30 115 H -15.364533 -13.847372 0.000000 0
M  V30 116 H -12.586354 -13.449035 0.000000 0
M  V30 117 H -11.711368 -10.418753 0.000000 0
M  V30 118 H -9.995192 -7.896613 0.000000 0
M  V30 119 H -7.056178 -7.073089 0.000000 0
M  V30 120 H -9.872904 -8.321709 0.000000 0
M  V30 121 H -7.630203 -6.337588 0.000000 0
M  V30 122 H -10.423955 -3.828039 0.000000 0
M  V30 123 H -7.914406 -4.500471 0.000000 0
M  V30 124 H -3.911028 -7.785729 0.000000 0
M  V30 125 H -4.841263 -9.139601 0.000000 0
M  V30 126 H -4.356903 -6.374419 0.000000 0
M  V30 127 H -2.821526 -7.432907 0.000000 0
M  V30 128 H 0.958720 -8.382522 0.000000 0
M  V30 129 H 3.334831 -6.919602 0.000000 0
M  V30 130 H 4.247927 -2.959848 0.000000 0
M  V30 131 H 3.526250 -1.788566 0.000000 0
M  V30 132 H 1.770623 1.762640 0.000000 0
M  V30 133 H 2.988814 0.182844 0.000000 0
M  V30 134 H 0.750000 3.897114 0.000000 0
M  V30 135 H -1.500000 2.598076 0.000000 0
M  V30 136 H -3.750000 1.299038 0.000000 0
M  V30 137 H -4.110928 -2.620791 0.000000 0
M  V30 138 H -5.231019 -5.231019 0.000000 0
M  V30 139 H -6.007476 -2.333241 0.000000 0
M  V30 140 H -5.335044 0.176308 0.000000 0
M  V30 141 H 4.021931 -5.902261 0.000000 0
M  V30 142 H 5.533261 -5.908736 0.000000 0
M  V30 143 H 5.328464 -10.386229 0.000000 0
M  V30 144 H 4.530465 -12.312768 0.000000 0
M  V30 145 H 1.457139 -8.979142 0.000000 0
M  V30 146 H -2.882393 -13.787278 0.000000 0
M  V30 147 H -1.638520 -13.272049 0.000000 0
M  V30 148 H -2.928863 -15.774062 0.000000 0
M  V30 149 H 0.944911 -18.746514 0.000000 0
M  V30 150 H 1.440312 -19.882967 0.000000 0
M  V30 151 H -1.251021 -21.195663 0.000000 0
M  V30 152 H 2.115685 -22.038601 0.000000 0
M  V30 153 H -0.913598 -21.098319 0.000000 0
M  V30 154 H -4.197705 -21.054103 0.000000 0
M  V30 155 H -3.737213 -20.549425 0.000000 0
M  V30 156 H -4.849715 -20.468165 0.000000 0
M  V30 157 H -4.522931 -18.355296 0.000000 0
M  V30 158 H -5.150265 -14.607111 0.000000 0
M  V30 159 H -4.775510 -19.048347 0.000000 0
M  V30 160 H -3.676845 -17.642237 0.000000 0
M  V30 161 H -8.267700 -20.788900 0.000000 0
M  V30 162 H -8.647022 -18.837598 0.000000 0
M  V30 163 H -6.420849 -20.772833 0.000000 0
M  V30 164 H -5.879089 -20.945332 0.000000 0
M  V30 165 H -4.014082 -19.014008 0.000000 0
M  V30 166 H -8.394009 -19.081143 0.000000 0
M  V30 167 H -10.172241 -18.710458 0.000000 0
M  V30 168 H -9.251310 -16.718393 0.000000 0
M  V30 169 H -8.812205 -13.386369 0.000000 0
M  V30 170 H -9.894922 -15.053460 0.000000 0
M  V30 171 H -7.323408 -13.799206 0.000000 0
M  V30 172 H -8.270129 -17.356566 0.000000 0
M  V30 173 H -9.995192 -16.562214 0.000000 0
M  V30 174 H -8.465560 -12.869354 0.000000 0
M  V30 175 H -12.134243 -12.757779 0.000000 0
M  V30 176 H -13.160256 -13.651845 0.000000 0
M  V30 END ATOM
M  V30 BEGIN BOND
M  V30 1 1 1 2
M  V30 2 1 2 3
M  V30 3 1 3 4
M  V30 4 1 4 5
M  V30 5 1 5 6
M  V30 6 1 5 7
M  V30 7 1 3 8
M  V30 8 2 8 9
M  V30 9 1 8 10
M  V30 10 1 10 11
M  V30 11 1 11 12
M  V30 12 2 12 13
M  V30 13 1 12 14
M  V30 14 1 14 15
M  V30 15 1 15 16
M  V30 16 1 16 17
M  V30 17 1 17 18
M  V30 18 2 17 19
M  V30 19 1 15 20
M  V30 20 2 20 21
M  V30 21 1 20 22
M  V30 22 1 22 23
M  V30 23 1 23 24
M  V30 24 2 24 25
M  V30 25 1 24 26
M  V30 26 1 26 27
M  V30 27 1 27 28
M  V30 28 2 28 29
M  V30 29 1 28 30
M  V30 30 1 30 31
M  V30 31 1 31 32
M  V30 32 2 32 33
M  V30 33 1 32 34
M  V30 34 1 34 35
M  V30 35 1 35 36
M  V30 36 2 36 37
M  V30 37 1 36 38
M  V30 38 1 35 39
M  V30 39 2 39 40
M  V30 40 1 40 41
M  V30 41 1 41 42
M  V30 42 2 41 43
M  V30 43 1 43 44
M  V30 44 1 44 45
M  V30 45 2 44 46
M  V30 46 1 46 47
M  V30 47 2 47 48
M  V30 48 1 48 49
M  V30 49 2 49 50
M  V30 50 1 50 51
M  V30 51 2 51 52
M  V30 52 1 52 53
M  V30 53 1 31 54
M  V30 54 1 54 55
M  V30 55 1 54 56
M  V30 56 2 56 57
M  V30 57 1 57 58
M  V30 58 2 58 59
M  V30 59 1 59 60
M  V30 60 1 60 61
M  V30 61 2 60 62
M  V30 62 1 59 63
M  V30 63 1 63 64
M  V30 64 2 64 65
M  V30 65 1 65 66
M  V30 66 2 66 67
M  V30 67 1 67 68
M  V30 68 2 68 69
M  V30 69 1 69 70
M  V30 70 1 70 71
M  V30 71 1 71 72
M  V30 72 1 72 73
M  V30 73 1 73 74
M  V30 74 1 74 75
M  V30 75 1 73 76
M  V30 76 1 76 77
M  V30 77 1 76 78
M  V30 78 1 78 79
M  V30 79 1 78 80
M  V30 80 1 80 81
M  V30 81 1 81 82
M  V30 82 1 82 83
M  V30 83 1 83 84
M  V30 84 1 84 85
M  V30 85 1 84 86 CFG=3
M  V30 86 1 84 87
M  V30 87 1 87 88
M  V30 88 1 87 89
M  V30 89 1 89 90
M  V30 90 1 89 91
M  V30 91 1 68 92
M  V30 92 1 92 93
M  V30 93 2 93 94
M  V30 94 1 94 95
M  V30 95 2 95 96
M  V30 96 1 96 97
M  V30 97 2 97 98
M  V30 98 1 98 99
M  V30 99 1 96 100
M  V30 100 1 100 101
M  V30 101 1 100 11
M  V30 102 1 66 23
M  V30 103 1 80 71
M  V30 104 1 91 82
M  V30 105 1 98 93
M  V30 106 1 49 27
M  V30 107 1 62 56
M  V30 108 1 69 64
M  V30 109 1 46 39
M  V30 110 1 52 47
M  V30 111 1 1 102
M  V30 112 1 1 103
M  V30 113 1 1 104
M  V30 114 1 2 105
M  V30 115 1 3 106 CFG=3
M  V30 116 1 4 107
M  V30 117 1 4 108
M  V30 118 1 5 109
M  V30 119 1 6 110
M  V30 120 1 6 111
M  V30 121 1 6 112
M  V30 122 1 7 113
M  V30 123 1 7 114
M  V30 124 1 7 115
M  V30 125 1 10 116
M  V30 126 1 11 117 CFG=3
M  V30 127 1 14 118
M  V30 128 1 15 119 CFG=3
M  V30 129 1 16 120
M  V30 130 1 16 121
M  V30 131 1 18 122
M  V30 132 1 18 123
M  V30 133 1 22 124
M  V30 134 1 23 125 CFG=3
M  V30 135 1 26 126
M  V30 136 1 27 127 CFG=1
M  V30 137 1 30 128
M  V30 138 1 31 129 CFG=1
M  V30 139 1 34 130
M  V30 140 1 35 131 CFG=3
M  V30 141 1 38 132
M  V30 142 1 40 133
M  V30 143 1 42 134
M  V30 144 1 43 135
M  V30 145 1 45 136
M  V30 146 1 48 137
M  V30 147 1 50 138
M  V30 148 1 51 139
M  V30 149 1 53 140
M  V30 150 1 54 141 CFG=1
M  V30 151 1 55 142
M  V30 152 1 57 143
M  V30 153 1 58 144
M  V30 154 1 62 145
M  V30 155 1 65 146
M  V30 156 1 67 147
M  V30 157 1 71 148 CFG=1
M  V30 158 1 73 149 CFG=1
M  V30 159 1 74 150
M  V30 160 1 74 151
M  V30 161 1 75 152
M  V30 162 1 76 153 CFG=3
M  V30 163 1 77 154
M  V30 164 1 78 155 CFG=1
M  V30 165 1 79 156
M  V30 166 1 80 157 CFG=3
M  V30 167 1 82 158 CFG=3
M  V30 168 1 83 159
M  V30 169 1 83 160
M  V30 170 1 85 161
M  V30 171 1 85 162
M  V30 172 1 85 163
M  V30 173 1 86 164
M  V30 174 1 86 165
M  V30 175 1 87 166 CFG=1
M  V30 176 1 88 167
M  V30 177 1 89 168 CFG=1
M  V30 178 1 90 169
M  V30 179 1 90 170
M  V30 180 1 90 171
M  V30 181 1 94 172
M  V30 182 1 95 173
M  V30 183 1 97 174
M  V30 184 1 100 175 CFG=3
M  V30 185 1 101 176
M  V30 END BOND
M  V30 END CTAB
M  END
>  <Dataset>  (29) 
OralDrugs

>  <Ligand_Instance>  (29) 
nan

>  <PDB_ID>  (29) 
nan

>  <Standardized_SMILES>  (29) 
CN[C@H](CC(C)C)C(=O)N[C@H]1C(=O)N[C@@H](CC(N)=O)C(=O)N[C@H]2C(=O)N[C@H]3C(=O)N[C@H](C(=O)N[C@H](C(=O)O)c4cc(O)cc(O)c4-c4cc3ccc4O)[C@H](O)c3ccc(c(Cl)c3)Oc3cc2cc(c3O[C@@H]2O[C@H](CO)[C@@H](O)[C@H](O)[C@H]2O[C@H]2C[C@](C)(N)[C@H](O)[C@H](C)O2)Oc2ccc(cc2Cl)[C@H]1O

>  <Name>  (29) 
Vancomycin

>  <Pocket>  (29) 
nan

>  <ATP_Site>  (29) 
nan

>  <Peripheral>  (29) 
nan

>  <Num_H_Atoms_ProtBoundConf>  (29) 
nan

>  <Num_Resolved_Atoms>  (29) 
nan

>  <Num_Not_Resolved_Atoms>  (29) 
nan

$$$$
CHEMBL24828
     RDKit          3D

  0  0  0  0  0  0  0  0  0  0999 V3000
M  V30 BEGIN CTAB
M  V30 COUNTS 54 57 0 0 0
M  V30 BEGIN ATOM
M  V30 1 C 3.108748 -0.719366 -2.192086 0
M  V30 2 O 2.288725 -1.596966 -1.448151 0
M  V30 3 C 1.628524 -1.079386 -0.340992 0
M  V30 4 C 1.846084 0.273177 -0.073005 0
M  V30 5 C 1.226715 0.888174 1.019423 0
M  V30 6 C 1.423360 2.223361 1.308009 0
M  V30 7 N 2.185968 2.924529 0.567892 0
M  V30 8 C 2.442964 4.318690 0.799395 0
M  V30 9 C 1.993455 5.265375 -0.108336 0
M  V30 10 C 2.247773 6.620633 0.123803 0
M  V30 11 C 2.944269 6.983249 1.257972 0
M  V30 12 Br 3.269439 8.842469 1.536123 0
M  V30 13 C 3.391259 6.040409 2.160856 0
M  V30 14 C 3.137607 4.706315 1.926726 0
M  V30 15 F 3.565769 3.755692 2.798773 0
M  V30 16 N 0.810074 2.780096 2.368236 0
M  V30 17 C 0.010857 2.002300 3.125588 0
M  V30 18 N -0.241369 0.682684 2.918524 0
M  V30 19 C 0.391613 0.178827 1.853662 0
M  V30 20 C 0.220905 -1.143954 1.535154 0
M  V30 21 C 0.784374 -1.828747 0.488272 0
M  V30 22 O 0.704647 -3.111605 0.058859 0
M  V30 23 C -0.018338 -4.173523 0.556539 0
M  V30 24 C -1.509518 -4.022213 0.539176 0
M  V30 25 C -2.060179 -5.327958 1.136125 0
M  V30 26 C -3.566046 -5.322504 0.977905 0
M  V30 27 N -3.817842 -5.392210 -0.442946 0
M  V30 28 C -5.123242 -5.852565 -0.798019 0
M  V30 29 C -3.455619 -4.147853 -1.051756 0
M  V30 30 C -1.999761 -3.852012 -0.883607 0
M  V30 31 H 3.895971 -0.223647 -1.567466 0
M  V30 32 H 3.590216 -1.214652 -3.046628 0
M  V30 33 H 2.443013 0.121525 -2.534352 0
M  V30 34 H 2.478648 0.928652 -0.655505 0
M  V30 35 H 1.452550 4.915675 -0.978974 0
M  V30 36 H 1.888318 7.361698 -0.599743 0
M  V30 37 H 3.941986 6.368761 3.051363 0
M  V30 38 H -0.443473 2.538741 3.962666 0
M  V30 39 H -0.871641 0.150758 3.549642 0
M  V30 40 H -0.413049 -1.739070 2.167381 0
M  V30 41 H 0.242311 -5.149777 0.082572 0
M  V30 42 H 0.329327 -4.318003 1.628176 0
M  V30 43 H -1.886646 -3.202041 1.161741 0
M  V30 44 H -1.608722 -6.197204 0.598875 0
M  V30 45 H -1.734474 -5.321733 2.185172 0
M  V30 46 H -3.963885 -6.222910 1.506410 0
M  V30 47 H -3.941489 -4.391209 1.450533 0
M  V30 48 H -5.906310 -5.538222 -0.096156 0
M  V30 49 H -5.357865 -5.518138 -1.827285 0
M  V30 50 H -5.105652 -6.978126 -0.772707 0
M  V30 51 H -3.646601 -4.273728 -2.150395 0
M  V30 52 H -4.097763 -3.298234 -0.722235 0
M  V30 53 H -1.849689 -2.781953 -1.143957 0
M  V30 54 H -1.375337 -4.455732 -1.558545 0
M  V30 END ATOM
M  V30 BEGIN BOND
M  V30 1 1 1 2
M  V30 2 1 2 3
M  V30 3 2 3 4
M  V30 4 1 4 5
M  V30 5 1 5 6
M  V30 6 2 6 7
M  V30 7 1 7 8
M  V30 8 2 8 9
M  V30 9 1 9 10
M  V30 10 2 10 11
M  V30 11 1 11 12
M  V30 12 1 11 13
M  V30 13 2 13 14
M  V30 14 1 14 15
M  V30 15 1 6 16
M  V30 16 2 16 17
M  V30 17 1 17 18
M  V30 18 1 18 19
M  V30 19 1 19 20
M  V30 20 2 20 21
M  V30 21 1 21 22
M  V30 22 1 22 23
M  V30 23 1 23 24
M  V30 24 1 24 25
M  V30 25 1 25 26
M  V30 26 1 26 27
M  V30 27 1 27 28
M  V30 28 1 27 29
M  V30 29 1 29 30
M  V30 30 1 21 3
M  V30 31 1 30 24
M  V30 32 2 19 5
M  V30 33 1 14 8
M  V30 34 1 1 31
M  V30 35 1 1 32
M  V30 36 1 1 33
M  V30 37 1 4 34
M  V30 38 1 9 35
M  V30 39 1 10 36
M  V30 40 1 13 37
M  V30 41 1 17 38
M  V30 42 1 18 39
M  V30 43 1 20 40
M  V30 44 1 23 41
M  V30 45 1 23 42
M  V30 46 1 24 43
M  V30 47 1 25 44
M  V30 48 1 25 45
M  V30 49 1 26 46
M  V30 50 1 26 47
M  V30 51 1 28 48
M  V30 52 1 28 49
M  V30 53 1 28 50
M  V30 54 1 29 51
M  V30 55 1 29 52
M  V30 56 1 30 53
M  V30 57 1 30 54
M  V30 END BOND
M  V30 END CTAB
M  END
>  <Dataset>  (30) 
OralDrugs

>  <Ligand_Instance>  (30) 
nan

>  <PDB_ID>  (30) 
nan

>  <Standardized_SMILES>  (30) 
COc1cc2/c(=N/c3ccc(Br)cc3F)nc[nH]c2cc1OCC1CCN(C)CC1

>  <Name>  (30) 
Vandetanib

>  <Pocket>  (30) 
nan

>  <ATP_Site>  (30) 
nan

>  <Peripheral>  (30) 
nan

>  <Num_H_Atoms_ProtBoundConf>  (30) 
nan

>  <Num_Resolved_Atoms>  (30) 
nan

>  <Num_Not_Resolved_Atoms>  (30) 
nan

$$$$
CHEMBL1520
     RDKit          3D

  0  0  0  0  0  0  0  0  0  0999 V3000
M  V30 BEGIN CTAB
M  V30 COUNTS 66 69 0 0 0
M  V30 BEGIN ATOM
M  V30 1 C 5.618513 -0.720856 3.578307 0
M  V30 2 C 4.484022 -1.429086 2.896797 0
M  V30 3 C 4.390125 -1.059797 1.427274 0
M  V30 4 C 4.169651 0.405628 1.248237 0
M  V30 5 N 5.134146 1.335304 1.124995 0
M  V30 6 C 4.587265 2.557895 0.978733 0
M  V30 7 C 5.246987 3.890812 0.808118 0
M  V30 8 C 3.228023 2.335918 1.018027 0
M  V30 9 C 2.132347 3.136023 0.928664 0
M  V30 10 O 2.287942 4.382043 0.773355 0
M  V30 11 N 0.882716 2.642708 1.000445 0
M  V30 12 C 0.640682 1.330377 1.164668 0
M  V30 13 C -0.731849 0.846840 1.236121 0
M  V30 14 C -1.030836 -0.488491 1.403841 0
M  V30 15 C -2.319088 -0.983987 1.475770 0
M  V30 16 S -2.633417 -2.692593 1.690428 0
M  V30 17 O -1.502399 -3.298520 2.476405 0
M  V30 18 O -3.884577 -2.910899 2.509172 0
M  V30 19 N -2.744863 -3.444490 0.163992 0
M  V30 20 C -3.804084 -2.940569 -0.632771 0
M  V30 21 C -3.749837 -3.168126 -2.090662 0
M  V30 22 N -2.780307 -4.161391 -2.503653 0
M  V30 23 C -3.148786 -5.511974 -2.156651 0
M  V30 24 C -2.039654 -6.447947 -2.651985 0
M  V30 25 C -1.513956 -3.765793 -1.950407 0
M  V30 26 C -1.502331 -3.702787 -0.458715 0
M  V30 27 C -3.386922 -0.088951 1.373752 0
M  V30 28 C -3.064994 1.247664 1.205682 0
M  V30 29 C -1.770516 1.719990 1.136609 0
M  V30 30 O -1.498703 3.048988 0.969989 0
M  V30 31 C -2.416486 4.094695 0.848028 0
M  V30 32 C -3.350296 3.974757 -0.319464 0
M  V30 33 N 1.731489 0.562818 1.250065 0
M  V30 34 N 2.969504 1.025782 1.182124 0
M  V30 35 H 5.209193 -0.272825 4.529760 0
M  V30 36 H 6.044020 0.125061 2.982090 0
M  V30 37 H 6.415656 -1.438293 3.880233 0
M  V30 38 H 4.661421 -2.534926 2.909994 0
M  V30 39 H 3.506540 -1.265038 3.372411 0
M  V30 40 H 3.584359 -1.663453 0.962379 0
M  V30 41 H 5.327597 -1.373152 0.896602 0
M  V30 42 H 6.302181 3.737113 1.135118 0
M  V30 43 H 4.716511 4.698248 1.309307 0
M  V30 44 H 5.306335 4.036297 -0.306411 0
M  V30 45 H -0.258088 -1.236267 1.490012 0
M  V30 46 H -4.755770 -3.326438 -0.213057 0
M  V30 47 H -3.848053 -1.827462 -0.446213 0
M  V30 48 H -3.435324 -2.224725 -2.626240 0
M  V30 49 H -4.748658 -3.468281 -2.460048 0
M  V30 50 H -3.335007 -5.658020 -1.079611 0
M  V30 51 H -4.060956 -5.789775 -2.701268 0
M  V30 52 H -1.792295 -6.098323 -3.680448 0
M  V30 53 H -2.510026 -7.444693 -2.734297 0
M  V30 54 H -1.161352 -6.446467 -1.971928 0
M  V30 55 H -0.741246 -4.471936 -2.329273 0
M  V30 56 H -1.281012 -2.753021 -2.351720 0
M  V30 57 H -1.134523 -4.684332 -0.093318 0
M  V30 58 H -0.760997 -2.943448 -0.135309 0
M  V30 59 H -4.416297 -0.433212 1.424812 0
M  V30 60 H -3.923889 1.899648 1.132046 0
M  V30 61 H -3.038966 4.239483 1.754542 0
M  V30 62 H -1.806129 5.030433 0.701655 0
M  V30 63 H -4.421499 3.943828 -0.020210 0
M  V30 64 H -3.129289 3.019206 -0.840554 0
M  V30 65 H -3.202228 4.790763 -1.056873 0
M  V30 66 H 1.615063 -0.462282 1.377766 0
M  V30 END ATOM
M  V30 BEGIN BOND
M  V30 1 1 1 2
M  V30 2 1 2 3
M  V30 3 1 3 4
M  V30 4 2 4 5
M  V30 5 1 5 6
M  V30 6 1 6 7
M  V30 7 2 6 8
M  V30 8 1 8 9
M  V30 9 2 9 10
M  V30 10 1 9 11
M  V30 11 2 11 12
M  V30 12 1 12 13
M  V30 13 2 13 14
M  V30 14 1 14 15
M  V30 15 1 15 16
M  V30 16 2 16 17
M  V30 17 2 16 18
M  V30 18 1 16 19
M  V30 19 1 19 20
M  V30 20 1 20 21
M  V30 21 1 21 22
M  V30 22 1 22 23
M  V30 23 1 23 24
M  V30 24 1 22 25
M  V30 25 1 25 26
M  V30 26 2 15 27
M  V30 27 1 27 28
M  V30 28 2 28 29
M  V30 29 1 29 30
M  V30 30 1 30 31
M  V30 31 1 31 32
M  V30 32 1 12 33
M  V30 33 1 33 34
M  V30 34 1 34 4
M  V30 35 1 34 8
M  V30 36 1 29 13
M  V30 37 1 26 19
M  V30 38 1 1 35
M  V30 39 1 1 36
M  V30 40 1 1 37
M  V30 41 1 2 38
M  V30 42 1 2 39
M  V30 43 1 3 40
M  V30 44 1 3 41
M  V30 45 1 7 42
M  V30 46 1 7 43
M  V30 47 1 7 44
M  V30 48 1 14 45
M  V30 49 1 20 46
M  V30 50 1 20 47
M  V30 51 1 21 48
M  V30 52 1 21 49
M  V30 53 1 23 50
M  V30 54 1 23 51
M  V30 55 1 24 52
M  V30 56 1 24 53
M  V30 57 1 24 54
M  V30 58 1 25 55
M  V30 59 1 25 56
M  V30 60 1 26 57
M  V30 61 1 26 58
M  V30 62 1 27 59
M  V30 63 1 28 60
M  V30 64 1 31 61
M  V30 65 1 31 62
M  V30 66 1 32 63
M  V30 67 1 32 64
M  V30 68 1 32 65
M  V30 69 1 33 66
M  V30 END BOND
M  V30 END CTAB
M  END
>  <Dataset>  (31) 
OralDrugs

>  <Ligand_Instance>  (31) 
nan

>  <PDB_ID>  (31) 
nan

>  <Standardized_SMILES>  (31) 
CCCc1nc(C)c2c(=O)nc(-c3cc(S(=O)(=O)N4CCN(CC)CC4)ccc3OCC)[nH]n12

>  <Name>  (31) 
Vardenafil

>  <Pocket>  (31) 
nan

>  <ATP_Site>  (31) 
nan

>  <Peripheral>  (31) 
nan

>  <Num_H_Atoms_ProtBoundConf>  (31) 
nan

>  <Num_Resolved_Atoms>  (31) 
nan

>  <Num_Not_Resolved_Atoms>  (31) 
nan

$$$$
CHEMBL1339
     RDKit          3D

  0  0  0  0  0  0  0  0  0  0999 V3000
M  V30 BEGIN CTAB
M  V30 COUNTS 66 69 0 0 0
M  V30 BEGIN ATOM
M  V30 1 C 3.082335 -2.995435 1.048431 0
M  V30 2 C 2.934829 -1.494123 0.816983 0
M  V30 3 C 4.303909 -0.951483 0.427613 0
M  V30 4 C 4.174832 0.521149 0.197168 0
M  V30 5 N 5.174623 1.344736 -0.163704 0
M  V30 6 C 4.726786 2.602484 -0.286807 0
M  V30 7 C 5.401135 3.879500 -0.656884 0
M  V30 8 C 3.385695 2.546777 0.013798 0
M  V30 9 C 2.362230 3.491031 0.071250 0
M  V30 10 O 2.643331 4.824586 -0.223016 0
M  V30 11 N 1.091602 3.139639 0.408970 0
M  V30 12 C 0.793499 1.850588 0.699162 0
M  V30 13 C -0.551210 1.419694 1.069793 0
M  V30 14 C -0.799929 0.081513 1.349422 0
M  V30 15 C -2.085313 -0.313429 1.705848 0
M  V30 16 S -2.455105 -1.968189 2.060647 0
M  V30 17 O -1.158225 -2.614864 2.521232 0
M  V30 18 O -3.399401 -2.085834 3.209237 0
M  V30 19 N -3.001107 -2.836696 0.695007 0
M  V30 20 C -2.017255 -2.889183 -0.335995 0
M  V30 21 C -1.492785 -4.272234 -0.616586 0
M  V30 22 N -2.514141 -5.201653 -0.982205 0
M  V30 23 C -2.098030 -6.572419 -0.888464 0
M  V30 24 C -1.066790 -6.843567 -1.950324 0
M  V30 25 C -3.729798 -4.931754 -0.264358 0
M  V30 26 C -3.504219 -4.138917 1.011361 0
M  V30 27 C -3.134638 0.603520 1.789881 0
M  V30 28 C -2.845497 1.920735 1.504270 0
M  V30 29 C -1.580435 2.345733 1.147408 0
M  V30 30 O -1.361712 3.670689 0.876320 0
M  V30 31 C -2.260648 4.713666 0.905275 0
M  V30 32 C -2.936995 4.999473 2.196830 0
M  V30 33 N 1.797140 0.985216 0.632072 0
M  V30 34 N 3.046201 1.262080 0.312123 0
M  V30 35 H 3.988909 -3.113990 1.699911 0
M  V30 36 H 3.261343 -3.522977 0.107803 0
M  V30 37 H 2.172927 -3.400938 1.507165 0
M  V30 38 H 2.198238 -1.276249 0.023780 0
M  V30 39 H 2.645155 -0.996569 1.759845 0
M  V30 40 H 5.064702 -1.175733 1.176390 0
M  V30 41 H 4.598294 -1.473514 -0.504586 0
M  V30 42 H 5.744299 4.449367 0.220632 0
M  V30 43 H 6.235370 3.605536 -1.342053 0
M  V30 44 H 4.724675 4.533375 -1.242178 0
M  V30 45 H 2.412259 5.164601 -1.142147 0
M  V30 46 H 0.019004 -0.637819 1.284206 0
M  V30 47 H -1.123898 -2.263999 -0.083956 0
M  V30 48 H -2.432423 -2.416024 -1.269920 0
M  V30 49 H -1.024429 -4.634125 0.330772 0
M  V30 50 H -0.748070 -4.145973 -1.433545 0
M  V30 51 H -1.714118 -6.851424 0.119093 0
M  V30 52 H -2.960223 -7.242831 -1.076152 0
M  V30 53 H -0.496987 -7.756817 -1.642780 0
M  V30 54 H -1.528338 -7.076162 -2.933082 0
M  V30 55 H -0.330940 -6.043182 -2.014165 0
M  V30 56 H -4.352388 -4.270795 -0.927355 0
M  V30 57 H -4.340846 -5.831373 -0.083131 0
M  V30 58 H -2.863702 -4.711239 1.715857 0
M  V30 59 H -4.511689 -4.054395 1.490705 0
M  V30 60 H -4.141407 0.281551 2.071617 0
M  V30 61 H -3.681953 2.616944 1.576477 0
M  V30 62 H -3.054212 4.499241 0.130245 0
M  V30 63 H -1.728070 5.617254 0.491519 0
M  V30 64 H -2.596962 6.021714 2.533730 0
M  V30 65 H -4.046148 5.141189 2.054695 0
M  V30 66 H -2.756506 4.298028 3.016090 0
M  V30 END ATOM
M  V30 BEGIN BOND
M  V30 1 1 1 2
M  V30 2 1 2 3
M  V30 3 1 3 4
M  V30 4 2 4 5
M  V30 5 1 5 6
M  V30 6 1 6 7
M  V30 7 2 6 8
M  V30 8 1 8 9
M  V30 9 1 9 10
M  V30 10 2 9 11
M  V30 11 1 11 12
M  V30 12 1 12 13
M  V30 13 2 13 14
M  V30 14 1 14 15
M  V30 15 1 15 16
M  V30 16 2 16 17
M  V30 17 2 16 18
M  V30 18 1 16 19
M  V30 19 1 19 20
M  V30 20 1 20 21
M  V30 21 1 21 22
M  V30 22 1 22 23
M  V30 23 1 23 24
M  V30 24 1 22 25
M  V30 25 1 25 26
M  V30 26 2 15 27
M  V30 27 1 27 28
M  V30 28 2 28 29
M  V30 29 1 29 30
M  V30 30 1 30 31
M  V30 31 1 31 32
M  V30 32 2 12 33
M  V30 33 1 33 34
M  V30 34 1 34 4
M  V30 35 1 34 8
M  V30 36 1 29 13
M  V30 37 1 26 19
M  V30 38 1 1 35
M  V30 39 1 1 36
M  V30 40 1 1 37
M  V30 41 1 2 38
M  V30 42 1 2 39
M  V30 43 1 3 40
M  V30 44 1 3 41
M  V30 45 1 7 42
M  V30 46 1 7 43
M  V30 47 1 7 44
M  V30 48 1 10 45
M  V30 49 1 14 46
M  V30 50 1 20 47
M  V30 51 1 20 48
M  V30 52 1 21 49
M  V30 53 1 21 50
M  V30 54 1 23 51
M  V30 55 1 23 52
M  V30 56 1 24 53
M  V30 57 1 24 54
M  V30 58 1 24 55
M  V30 59 1 25 56
M  V30 60 1 25 57
M  V30 61 1 26 58
M  V30 62 1 26 59
M  V30 63 1 27 60
M  V30 64 1 28 61
M  V30 65 1 31 62
M  V30 66 1 31 63
M  V30 67 1 32 64
M  V30 68 1 32 65
M  V30 69 1 32 66
M  V30 END BOND
M  V30 END CTAB
M  END
>  <Dataset>  (32) 
OralDrugs

>  <Ligand_Instance>  (32) 
nan

>  <PDB_ID>  (32) 
nan

>  <Standardized_SMILES>  (32) 
CCCc1nc(C)c2c(O)nc(-c3cc(S(=O)(=O)N4CCN(CC)CC4)ccc3OCC)nn12

>  <Name>  (32) 
Vardenafil Hydrochloride

>  <Pocket>  (32) 
nan

>  <ATP_Site>  (32) 
nan

>  <Peripheral>  (32) 
nan

>  <Num_H_Atoms_ProtBoundConf>  (32) 
nan

>  <Num_Resolved_Atoms>  (32) 
nan

>  <Num_Not_Resolved_Atoms>  (32) 
nan

$$$$
CHEMBL1076903
     RDKit          3D

  0  0  0  0  0  0  0  0  0  0999 V3000
M  V30 BEGIN CTAB
M  V30 COUNTS 29 32 0 0 0
M  V30 BEGIN ATOM
M  V30 1 C -0.647158 -4.087461 3.489394 0
M  V30 2 C 0.287094 -4.723244 2.693210 0
M  V30 3 N 0.923417 -3.990822 1.757987 0
M  V30 4 C 0.635270 -2.674557 1.625884 0
M  V30 5 C 1.286645 -1.942156 0.674453 0
M  V30 6 C 0.985141 -0.602988 0.549124 0
M  V30 7 C 0.048888 0.023247 1.350690 0
M  V30 8 C -0.621200 -0.705931 2.321281 0
M  V30 9 C -0.298139 -2.043152 2.422634 0
M  V30 10 N -0.929504 -2.773799 3.351894 0
M  V30 11 C 0.039807 1.438365 0.883568 0 CFG=2
M  V30 12 C -0.871536 1.666092 -0.302834 0
M  V30 13 N -0.173479 1.552182 -1.560181 0
M  V30 14 C 0.672413 0.353340 -1.612418 0
M  V30 15 C 1.601485 0.332093 -0.432815 0 CFG=1
M  V30 16 C 1.448433 1.624773 0.345664 0
M  V30 17 H -1.206630 -4.595328 4.265788 0
M  V30 18 H 0.444203 -5.760519 2.872998 0
M  V30 19 H 2.024246 -2.459422 0.051038 0
M  V30 20 H -1.349888 -0.207513 2.941444 0
M  V30 21 H -0.177540 2.142067 1.711996 0
M  V30 22 H -1.150118 2.758907 -0.229462 0
M  V30 23 H -1.816083 1.092858 -0.255468 0
M  V30 24 H -0.912896 1.461724 -2.299087 0
M  V30 25 H -0.056865 -0.506551 -1.623466 0
M  V30 26 H 1.174481 0.345687 -2.577727 0
M  V30 27 H 2.635747 0.089524 -0.669023 0
M  V30 28 H 2.188123 1.626783 1.190211 0
M  V30 29 H 1.538539 2.513400 -0.288083 0
M  V30 END ATOM
M  V30 BEGIN BOND
M  V30 1 2 1 2
M  V30 2 1 2 3
M  V30 3 2 3 4
M  V30 4 1 4 5
M  V30 5 2 5 6
M  V30 6 1 6 7
M  V30 7 2 7 8
M  V30 8 1 8 9
M  V30 9 2 9 10
M  V30 10 1 7 11
M  V30 11 1 11 12
M  V30 12 1 12 13
M  V30 13 1 13 14
M  V30 14 1 14 15
M  V30 15 1 15 16
M  V30 16 1 10 1
M  V30 17 1 16 11
M  V30 18 1 9 4
M  V30 19 1 15 6
M  V30 20 1 1 17
M  V30 21 1 2 18
M  V30 22 1 5 19
M  V30 23 1 8 20
M  V30 24 1 11 21 CFG=1
M  V30 25 1 12 22
M  V30 26 1 12 23
M  V30 27 1 13 24
M  V30 28 1 14 25
M  V30 29 1 14 26
M  V30 30 1 15 27 CFG=3
M  V30 31 1 16 28
M  V30 32 1 16 29
M  V30 END BOND
M  V30 END CTAB
M  END
>  <Dataset>  (33) 
OralDrugs

>  <Ligand_Instance>  (33) 
nan

>  <PDB_ID>  (33) 
nan

>  <Standardized_SMILES>  (33) 
c1cnc2cc3c(cc2n1)[C@@H]1CNC[C@H]3C1

>  <Name>  (33) 
Varenicline

>  <Pocket>  (33) 
nan

>  <ATP_Site>  (33) 
nan

>  <Peripheral>  (33) 
nan

>  <Num_H_Atoms_ProtBoundConf>  (33) 
nan

>  <Num_Resolved_Atoms>  (33) 
nan

>  <Num_Not_Resolved_Atoms>  (33) 
nan

$$$$
CHEMBL3545062
     RDKit          3D

  0  0  0  0  0  0  0  0  0  0999 V3000
M  V30 BEGIN CTAB
M  V30 COUNTS 119 127 0 0 0
M  V30 BEGIN ATOM
M  V30 1 C -2.933272 -6.585869 -7.058185 0
M  V30 2 O -2.041117 -5.695614 -7.628597 0
M  V30 3 C -1.745931 -4.674640 -6.715279 0
M  V30 4 C -0.774446 -3.736336 -7.375156 0 CFG=1
M  V30 5 C -0.426780 -2.633874 -6.432566 0
M  V30 6 C 1.076495 -2.454498 -6.559651 0 CFG=1
M  V30 7 C 1.729819 -2.627729 -5.224637 0
M  V30 8 N 1.012450 -2.426844 -4.101743 0
M  V30 9 C 1.756539 -2.584416 -2.993817 0
M  V30 10 C 1.170240 -2.393793 -1.670311 0
M  V30 11 C -0.186913 -2.088486 -1.549135 0
M  V30 12 C -0.622813 -1.793307 -0.244121 0
M  V30 13 C 0.243980 -1.809544 0.830983 0
M  V30 14 C 1.563051 -2.120945 0.650922 0
M  V30 15 C 2.066537 -2.425437 -0.621692 0
M  V30 16 C 2.496296 -2.147233 1.820111 0
M  V30 17 O 1.951464 -1.537755 2.956806 0
M  V30 18 C 0.625042 -1.222204 3.161266 0
M  V30 19 C 0.190384 -0.771320 4.410393 0
M  V30 20 C -1.146098 -0.467366 4.542377 0
M  V30 21 C -2.075036 -0.583556 3.527055 0
M  V30 22 C -3.411645 -0.239064 3.659388 0
M  V30 23 C -3.869466 0.257714 4.865592 0
M  V30 24 C -2.902276 0.367156 5.862171 0
M  V30 25 N -3.024507 0.877941 7.109154 0
M  V30 26 C -1.844397 0.865523 7.757308 0
M  V30 27 C -1.869189 1.492794 9.111095 0 CFG=2
M  V30 28 C -2.933457 0.931890 10.009889 0
M  V30 29 C -3.130911 2.079911 10.994996 0
M  V30 30 C -3.137223 3.296029 10.088582 0 CFG=2
M  V30 31 C -4.566692 3.667691 9.792945 0
M  V30 32 N -2.370292 2.887074 8.935254 0
M  V30 33 C -2.444823 4.054090 8.070466 0
M  V30 34 O -1.654228 3.384700 7.320918 0
M  V30 35 C -1.962664 4.627816 6.801684 0 CFG=1
M  V30 36 N -1.177116 3.745056 6.008701 0
M  V30 37 C 0.196909 4.035563 5.705801 0
M  V30 38 O 1.182323 4.761071 5.791460 0
M  V30 39 O 0.766413 3.060075 4.938827 0
M  V30 40 C 2.084805 3.052811 4.471297 0
M  V30 41 C -3.103732 5.187697 5.965463 0
M  V30 42 C -2.491525 5.711601 4.700269 0
M  V30 43 C -4.149723 4.169409 5.667034 0
M  V30 44 N -0.963431 0.335167 6.906897 0
M  V30 45 C -1.571675 0.027531 5.753119 0
M  V30 46 C -1.629171 -1.036917 2.274295 0
M  V30 47 C -0.295877 -1.340083 2.127505 0
M  V30 48 C 3.010577 -2.906049 -3.437327 0
M  V30 49 N 2.961899 -2.925432 -4.795653 0
M  V30 50 N 1.491082 -3.328970 -7.581193 0
M  V30 51 C 2.518620 -3.273626 -8.567781 0
M  V30 52 O 2.907290 -4.048221 -9.476342 0
M  V30 53 C 3.547036 -2.299659 -8.945613 0 CFG=2
M  V30 54 N 4.235240 -2.865591 -10.110254 0
M  V30 55 C 4.306828 -2.171355 -11.376845 0
M  V30 56 O 3.708411 -1.042938 -11.342939 0
M  V30 57 O 4.982408 -2.776655 -12.433965 0
M  V30 58 C 5.071547 -2.127437 -13.711250 0
M  V30 59 C 4.546912 -2.024163 -7.875295 0
M  V30 60 C 4.609874 -0.906296 -7.095199 0
M  V30 61 C 5.644415 -0.883129 -6.150524 0
M  V30 62 C 6.563619 -1.877624 -5.970369 0
M  V30 63 C 6.454882 -3.006093 -6.801212 0
M  V30 64 C 5.453359 -3.044096 -7.723418 0
M  V30 65 C 0.572388 -4.476241 -7.553868 0
M  V30 66 H -3.138638 -7.352707 -7.853712 0
M  V30 67 H -3.847462 -6.052742 -6.731771 0
M  V30 68 H -2.432771 -7.055648 -6.178031 0
M  V30 69 H -1.242434 -5.128847 -5.831028 0
M  V30 70 H -2.673481 -4.137114 -6.400197 0
M  V30 71 H -1.137814 -3.351592 -8.351041 0
M  V30 72 H -0.639118 -2.990326 -5.364275 0
M  V30 73 H -0.990853 -1.703282 -6.596177 0
M  V30 74 H 1.188273 -1.360519 -6.870485 0
M  V30 75 H -0.834103 -2.085683 -2.424667 0
M  V30 76 H -1.664732 -1.576483 -0.250157 0
M  V30 77 H 3.112181 -2.665021 -0.726902 0
M  V30 78 H 2.654197 -3.221563 2.078445 0
M  V30 79 H 3.508398 -1.753181 1.558838 0
M  V30 80 H 0.900551 -0.672465 5.234905 0
M  V30 81 H -4.121955 -0.353732 2.825912 0
M  V30 82 H -4.890897 0.548549 5.058039 0
M  V30 83 H -0.915975 1.488363 9.603788 0
M  V30 84 H -3.898230 0.749999 9.487906 0
M  V30 85 H -2.603159 0.065371 10.579612 0
M  V30 86 H -4.094910 2.028346 11.530173 0
M  V30 87 H -2.342005 2.159944 11.737964 0
M  V30 88 H -2.641920 4.166629 10.606819 0
M  V30 89 H -5.109737 3.881653 10.756406 0
M  V30 90 H -4.622952 4.583127 9.146219 0
M  V30 91 H -5.130529 2.875216 9.302233 0
M  V30 92 H -1.323754 5.560774 7.006848 0
M  V30 93 H -1.647387 2.897138 5.634177 0
M  V30 94 H 2.796128 3.691622 4.991632 0
M  V30 95 H 2.408744 1.967083 4.492828 0
M  V30 96 H 2.046498 3.391156 3.393481 0
M  V30 97 H -3.560164 6.047581 6.506288 0
M  V30 98 H -1.854842 6.596921 4.814824 0
M  V30 99 H -1.835016 4.920108 4.230758 0
M  V30 100 H -3.317993 5.893457 3.962979 0
M  V30 101 H -5.149277 4.627372 5.663771 0
M  V30 102 H -3.945447 3.694923 4.687143 0
M  V30 103 H -4.052382 3.378051 6.462321 0
M  V30 104 H 0.024254 0.225920 7.207715 0
M  V30 105 H -2.351626 -1.110970 1.521901 0
M  V30 106 H 3.812396 -3.086673 -2.751745 0
M  V30 107 H 3.752197 -3.144753 -5.411756 0
M  V30 108 H 3.130714 -1.332393 -9.250300 0
M  V30 109 H 4.709518 -3.806370 -10.090388 0
M  V30 110 H 4.655673 -1.125736 -13.733835 0
M  V30 111 H 4.508909 -2.824573 -14.403084 0
M  V30 112 H 6.133527 -2.184927 -14.031090 0
M  V30 113 H 3.876053 -0.153146 -7.264135 0
M  V30 114 H 5.674005 0.018243 -5.531754 0
M  V30 115 H 7.347662 -1.775604 -5.201756 0
M  V30 116 H 7.232218 -3.751133 -6.584026 0
M  V30 117 H 5.540151 -3.986386 -8.259433 0
M  V30 118 H 0.747517 -5.176389 -6.749416 0
M  V30 119 H 0.543966 -4.939339 -8.555190 0
M  V30 END ATOM
M  V30 BEGIN BOND
M  V30 1 1 1 2
M  V30 2 1 2 3
M  V30 3 1 3 4
M  V30 4 1 4 5
M  V30 5 1 5 6
M  V30 6 1 6 7
M  V30 7 2 7 8
M  V30 8 1 8 9
M  V30 9 1 9 10
M  V30 10 2 10 11
M  V30 11 1 11 12
M  V30 12 2 12 13
M  V30 13 1 13 14
M  V30 14 2 14 15
M  V30 15 1 14 16
M  V30 16 1 16 17
M  V30 17 1 17 18
M  V30 18 2 18 19
M  V30 19 1 19 20
M  V30 20 2 20 21
M  V30 21 1 21 22
M  V30 22 2 22 23
M  V30 23 1 23 24
M  V30 24 1 24 25
M  V30 25 2 25 26
M  V30 26 1 26 27
M  V30 27 1 27 28
M  V30 28 1 28 29
M  V30 29 1 29 30
M  V30 30 1 30 31
M  V30 31 1 30 32
M  V30 32 1 32 33
M  V30 33 2 33 34
M  V30 34 1 33 35
M  V30 35 1 35 36
M  V30 36 1 36 37
M  V30 37 2 37 38
M  V30 38 1 37 39
M  V30 39 1 39 40
M  V30 40 1 35 41
M  V30 41 1 41 42
M  V30 42 1 41 43
M  V30 43 1 26 44
M  V30 44 1 44 45
M  V30 45 1 21 46
M  V30 46 2 46 47
M  V30 47 2 9 48
M  V30 48 1 48 49
M  V30 49 1 6 50
M  V30 50 1 50 51
M  V30 51 2 51 52
M  V30 52 1 51 53
M  V30 53 1 53 54
M  V30 54 1 54 55
M  V30 55 2 55 56
M  V30 56 1 55 57
M  V30 57 1 57 58
M  V30 58 1 53 59
M  V30 59 2 59 60
M  V30 60 1 60 61
M  V30 61 2 61 62
M  V30 62 1 62 63
M  V30 63 2 63 64
M  V30 64 1 50 65
M  V30 65 1 65 4
M  V30 66 1 49 7
M  V30 67 1 64 59
M  V30 68 1 15 10
M  V30 69 1 47 18
M  V30 70 1 47 13
M  V30 71 1 45 20
M  V30 72 2 45 24
M  V30 73 1 32 27
M  V30 74 1 1 66
M  V30 75 1 1 67
M  V30 76 1 1 68
M  V30 77 1 3 69
M  V30 78 1 3 70
M  V30 79 1 4 71 CFG=3
M  V30 80 1 5 72
M  V30 81 1 5 73
M  V30 82 1 6 74 CFG=3
M  V30 83 1 11 75
M  V30 84 1 12 76
M  V30 85 1 15 77
M  V30 86 1 16 78
M  V30 87 1 16 79
M  V30 88 1 19 80
M  V30 89 1 22 81
M  V30 90 1 23 82
M  V30 91 1 27 83 CFG=1
M  V30 92 1 28 84
M  V30 93 1 28 85
M  V30 94 1 29 86
M  V30 95 1 29 87
M  V30 96 1 30 88 CFG=1
M  V30 97 1 31 89
M  V30 98 1 31 90
M  V30 99 1 31 91
M  V30 100 1 35 92 CFG=1
M  V30 101 1 36 93
M  V30 102 1 40 94
M  V30 103 1 40 95
M  V30 104 1 40 96
M  V30 105 1 41 97
M  V30 106 1 42 98
M  V30 107 1 42 99
M  V30 108 1 42 100
M  V30 109 1 43 101
M  V30 110 1 43 102
M  V30 111 1 43 103
M  V30 112 1 44 104
M  V30 113 1 46 105
M  V30 114 1 48 106
M  V30 115 1 49 107
M  V30 116 1 53 108 CFG=3
M  V30 117 1 54 109
M  V30 118 1 58 110
M  V30 119 1 58 111
M  V30 120 1 58 112
M  V30 121 1 60 113
M  V30 122 1 61 114
M  V30 123 1 62 115
M  V30 124 1 63 116
M  V30 125 1 64 117
M  V30 126 1 65 118
M  V30 127 1 65 119
M  V30 END BOND
M  V30 END CTAB
M  END
>  <Dataset>  (34) 
OralDrugs

>  <Ligand_Instance>  (34) 
nan

>  <PDB_ID>  (34) 
nan

>  <Standardized_SMILES>  (34) 
COC[C@H]1C[C@@H](c2nc(-c3ccc4c(c3)COc3cc5c(ccc6nc([C@@H]7CC[C@H](C)N7C(=O)[C@@H](NC(=O)OC)C(C)C)[nH]c65)cc3-4)c[nH]2)N(C(=O)[C@H](NC(=O)OC)c2ccccc2)C1

>  <Name>  (34) 
Velpatasvir

>  <Pocket>  (34) 
nan

>  <ATP_Site>  (34) 
nan

>  <Peripheral>  (34) 
nan

>  <Num_H_Atoms_ProtBoundConf>  (34) 
nan

>  <Num_Resolved_Atoms>  (34) 
nan

>  <Num_Not_Resolved_Atoms>  (34) 
nan

$$$$
CHEMBL1229517
     RDKit          3D

  0  0  0  0  0  0  0  0  0  0999 V3000
M  V30 BEGIN CTAB
M  V30 COUNTS 51 54 0 0 0
M  V30 BEGIN ATOM
M  V30 1 C 2.918687 -2.399836 3.539877 0
M  V30 2 C 3.136319 -2.189833 2.065724 0
M  V30 3 C 4.207355 -1.125120 1.870114 0
M  V30 4 S 4.474671 -0.861046 0.111814 0
M  V30 5 O 5.563045 0.167439 -0.032441 0
M  V30 6 O 4.951342 -2.143308 -0.498111 0
M  V30 7 N 3.002879 -0.338075 -0.620573 0
M  V30 8 C 2.346867 0.855013 -0.265119 0
M  V30 9 C 2.970295 1.820108 0.507476 0
M  V30 10 C 2.288303 2.974986 0.824766 0
M  V30 11 C 0.996371 3.191333 0.389636 0
M  V30 12 F 0.435647 4.383867 0.777995 0
M  V30 13 C 0.343752 2.254137 -0.380217 0
M  V30 14 C -0.990280 2.568008 -0.800944 0
M  V30 15 O -1.395418 3.766373 -0.603135 0
M  V30 16 C -2.060310 1.843611 -1.426866 0
M  V30 17 C -2.825157 2.187500 -2.540869 0
M  V30 18 N -3.703010 1.201652 -2.792128 0
M  V30 19 C -3.570828 0.204765 -1.901100 0
M  V30 20 N -4.249192 -0.951731 -1.789798 0
M  V30 21 C -3.966122 -1.841589 -0.795853 0
M  V30 22 C -2.958757 -1.512681 0.091579 0
M  V30 23 C -2.632765 -2.444056 1.169047 0
M  V30 24 C -3.699443 -3.195029 1.660190 0
M  V30 25 C -3.435172 -4.087991 2.679789 0
M  V30 26 C -2.178278 -4.266728 3.226071 0
M  V30 27 Cl -1.847670 -5.399276 4.518406 0
M  V30 28 C -1.113376 -3.509908 2.728178 0
M  V30 29 C -1.368761 -2.608002 1.701615 0
M  V30 30 C -2.280839 -0.319673 -0.048375 0
M  V30 31 C -2.556042 0.591088 -1.049978 0
M  V30 32 C 1.059229 1.124289 -0.670996 0
M  V30 33 F 0.481557 0.183190 -1.434803 0
M  V30 34 H 2.436790 -3.350908 3.790738 0
M  V30 35 H 3.893106 -2.248367 4.048299 0
M  V30 36 H 2.242739 -1.594604 3.905448 0
M  V30 37 H 2.231260 -1.872187 1.520658 0
M  V30 38 H 3.511841 -3.128532 1.580842 0
M  V30 39 H 5.151870 -1.407681 2.360503 0
M  V30 40 H 3.856456 -0.186180 2.317790 0
M  V30 41 H 2.584518 -0.929135 -1.354409 0
M  V30 42 H 3.980316 1.704971 0.873099 0
M  V30 43 H 2.803155 3.719314 1.434355 0
M  V30 44 H -2.730322 3.101189 -3.114858 0
M  V30 45 H -4.397363 1.210831 -3.578752 0
M  V30 46 H -4.525451 -2.768555 -0.722995 0
M  V30 47 H -4.734950 -3.135133 1.303119 0
M  V30 48 H -4.249946 -4.697996 3.092919 0
M  V30 49 H -0.103905 -3.602421 3.113076 0
M  V30 50 H -0.560357 -2.008881 1.296883 0
M  V30 51 H -1.486955 -0.055910 0.646975 0
M  V30 END ATOM
M  V30 BEGIN BOND
M  V30 1 1 1 2
M  V30 2 1 2 3
M  V30 3 1 3 4
M  V30 4 2 4 5
M  V30 5 2 4 6
M  V30 6 1 4 7
M  V30 7 1 7 8
M  V30 8 2 8 9
M  V30 9 1 9 10
M  V30 10 2 10 11
M  V30 11 1 11 12
M  V30 12 1 11 13
M  V30 13 1 13 14
M  V30 14 2 14 15
M  V30 15 1 14 16
M  V30 16 2 16 17
M  V30 17 1 17 18
M  V30 18 1 18 19
M  V30 19 2 19 20
M  V30 20 1 20 21
M  V30 21 2 21 22
M  V30 22 1 22 23
M  V30 23 2 23 24
M  V30 24 1 24 25
M  V30 25 2 25 26
M  V30 26 1 26 27
M  V30 27 1 26 28
M  V30 28 2 28 29
M  V30 29 1 22 30
M  V30 30 2 30 31
M  V30 31 2 13 32
M  V30 32 1 32 33
M  V30 33 1 32 8
M  V30 34 1 31 16
M  V30 35 1 31 19
M  V30 36 1 29 23
M  V30 37 1 1 34
M  V30 38 1 1 35
M  V30 39 1 1 36
M  V30 40 1 2 37
M  V30 41 1 2 38
M  V30 42 1 3 39
M  V30 43 1 3 40
M  V30 44 1 7 41
M  V30 45 1 9 42
M  V30 46 1 10 43
M  V30 47 1 17 44
M  V30 48 1 18 45
M  V30 49 1 21 46
M  V30 50 1 24 47
M  V30 51 1 25 48
M  V30 52 1 28 49
M  V30 53 1 29 50
M  V30 54 1 30 51
M  V30 END BOND
M  V30 END CTAB
M  END
>  <Dataset>  (35) 
OralDrugs

>  <Ligand_Instance>  (35) 
nan

>  <PDB_ID>  (35) 
nan

>  <Standardized_SMILES>  (35) 
CCCS(=O)(=O)Nc1ccc(F)c(C(=O)c2c[nH]c3ncc(-c4ccc(Cl)cc4)cc23)c1F

>  <Name>  (35) 
Vemurafenib

>  <Pocket>  (35) 
nan

>  <ATP_Site>  (35) 
nan

>  <Peripheral>  (35) 
nan

>  <Num_H_Atoms_ProtBoundConf>  (35) 
nan

>  <Num_Resolved_Atoms>  (35) 
nan

>  <Num_Not_Resolved_Atoms>  (35) 
nan

$$$$
CHEMBL3137309
     RDKit          3D

  0  0  0  0  0  0  0  0  0  0999 V3000
M  V30 BEGIN CTAB
M  V30 COUNTS 111 118 0 0 0
M  V30 BEGIN ATOM
M  V30 1 C -1.398980 4.591582 4.000895 0
M  V30 2 C -0.280580 4.953863 3.036790 0
M  V30 3 C -0.049073 6.431874 3.156323 0
M  V30 4 C 0.920756 4.141583 3.392300 0
M  V30 5 C 1.829542 3.816530 2.233198 0
M  V30 6 C 1.569658 4.624530 1.009479 0
M  V30 7 C 2.689160 4.960667 0.108624 0
M  V30 8 N 3.439988 3.922039 -0.452588 0
M  V30 9 C 4.287776 3.070518 0.204752 0
M  V30 10 C 4.576142 1.887049 -0.755229 0
M  V30 11 N 3.236199 1.385087 -1.099394 0
M  V30 12 C 2.584987 0.240904 -0.565170 0
M  V30 13 C 1.397369 -0.206364 -1.094268 0
M  V30 14 C 0.755005 -1.298326 -0.569806 0
M  V30 15 C 1.251962 -2.003527 0.502977 0
M  V30 16 C 0.394769 -3.034140 1.016289 0
M  V30 17 O -0.633544 -3.391652 0.389976 0
M  V30 18 N 0.403270 -3.845727 2.162051 0
M  V30 19 S -0.668022 -5.064115 2.658464 0
M  V30 20 O -1.238385 -4.689858 4.004808 0
M  V30 21 O 0.081234 -6.350504 2.867708 0
M  V30 22 C -1.934801 -5.266906 1.472859 0
M  V30 23 C -3.055223 -4.472295 1.517982 0
M  V30 24 C -4.042543 -4.668236 0.578503 0
M  V30 25 C -4.010995 -5.607303 -0.425011 0
M  V30 26 N -5.038613 -5.805275 -1.358229 0
M  V30 27 C -6.290366 -5.102988 -1.533963 0
M  V30 28 C -6.064425 -3.717123 -2.063368 0
M  V30 29 C -7.399250 -2.992050 -2.236580 0
M  V30 30 C -7.227235 -1.962066 -3.326368 0
M  V30 31 O -5.894181 -1.558831 -3.431923 0
M  V30 32 C -5.245924 -2.565005 -4.147068 0
M  V30 33 C -5.480561 -3.870225 -3.457693 0
M  V30 34 C -2.875263 -6.378023 -0.433245 0
M  V30 35 N -2.638985 -7.405718 -1.377658 0 CHG=1 VAL=4
M  V30 36 O -3.275609 -8.237885 -2.045233 0
M  V30 37 O -1.366665 -7.736715 -1.816458 0 CHG=-1 VAL=1
M  V30 38 C -1.863806 -6.219546 0.483232 0
M  V30 39 C 2.432164 -1.540629 1.003709 0
M  V30 40 O 3.093810 -2.118220 2.068268 0
M  V30 41 C 3.648940 -3.404997 2.001069 0
M  V30 42 C 4.315252 -4.074770 3.015800 0
M  V30 43 N 4.791699 -5.311565 2.793192 0
M  V30 44 C 4.665063 -5.959266 1.630713 0
M  V30 45 N 5.044459 -7.177594 1.163985 0
M  V30 46 C 4.649551 -7.329188 -0.122272 0
M  V30 47 C 3.997826 -6.194269 -0.516515 0
M  V30 48 C 4.016726 -5.366787 0.568892 0
M  V30 49 C 3.524968 -4.096682 0.790215 0
M  V30 50 C 3.107165 -0.445330 0.505012 0
M  V30 51 C 2.638412 2.263701 -2.087704 0
M  V30 52 C 3.155237 3.673155 -1.831512 0
M  V30 53 C 0.339619 5.037366 0.649987 0
M  V30 54 C -0.094353 5.827463 -0.490781 0
M  V30 55 C 0.324071 7.013859 -1.051301 0
M  V30 56 C -0.278643 7.510337 -2.184554 0
M  V30 57 C -1.313194 6.853670 -2.800525 0
M  V30 58 Cl -1.962560 7.631288 -4.234873 0
M  V30 59 C -1.765704 5.659641 -2.270821 0
M  V30 60 C -1.152488 5.165604 -1.128301 0
M  V30 61 C -0.675572 4.541074 1.646188 0
M  V30 62 H -0.954489 4.285839 4.969689 0
M  V30 63 H -1.929960 3.672521 3.633073 0
M  V30 64 H -2.146242 5.381457 4.056413 0
M  V30 65 H 0.277142 6.611444 4.207031 0
M  V30 66 H 0.758060 6.780860 2.491706 0
M  V30 67 H -1.008236 6.964667 3.000869 0
M  V30 68 H 1.513824 4.592310 4.220977 0
M  V30 69 H 0.525870 3.178926 3.840425 0
M  V30 70 H 1.692029 2.729886 2.040148 0
M  V30 71 H 2.866480 4.067504 2.590559 0
M  V30 72 H 3.366351 5.656330 0.649038 0
M  V30 73 H 2.306827 5.544988 -0.771507 0
M  V30 74 H 5.294587 3.511929 0.348805 0
M  V30 75 H 3.865525 2.587547 1.080575 0
M  V30 76 H 5.172003 1.116986 -0.248977 0
M  V30 77 H 5.121599 2.284433 -1.613032 0
M  V30 78 H 0.965305 0.310998 -1.937718 0
M  V30 79 H -0.184658 -1.575673 -1.062796 0
M  V30 80 H 1.162648 -3.663367 2.840995 0
M  V30 81 H -3.115601 -3.721131 2.295278 0
M  V30 82 H -4.887101 -4.006758 0.698101 0
M  V30 83 H -4.903711 -6.586294 -2.061243 0
M  V30 84 H -6.785597 -4.995157 -0.529477 0
M  V30 85 H -7.010148 -5.676344 -2.138158 0
M  V30 86 H -5.420941 -3.142726 -1.402290 0
M  V30 87 H -8.209082 -3.708219 -2.464034 0
M  V30 88 H -7.680918 -2.476045 -1.296992 0
M  V30 89 H -7.479241 -2.433841 -4.315405 0
M  V30 90 H -7.917503 -1.100516 -3.213607 0
M  V30 91 H -5.679577 -2.647883 -5.181381 0
M  V30 92 H -4.155063 -2.346434 -4.287856 0
M  V30 93 H -6.163230 -4.553272 -4.019832 0
M  V30 94 H -4.521396 -4.405296 -3.365126 0
M  V30 95 H -0.965234 -6.818644 0.489125 0
M  V30 96 H 4.403444 -3.529220 3.944774 0
M  V30 97 H 5.566839 -7.901363 1.712914 0
M  V30 98 H 4.818065 -8.200486 -0.741291 0
M  V30 99 H 3.555303 -5.974894 -1.473489 0
M  V30 100 H 3.015418 -3.631528 -0.051207 0
M  V30 101 H 4.032633 -0.077515 0.901095 0
M  V30 102 H 3.006902 1.938073 -3.079652 0
M  V30 103 H 1.528779 2.242633 -2.085124 0
M  V30 104 H 4.086661 3.843116 -2.409682 0
M  V30 105 H 2.378763 4.373463 -2.159355 0
M  V30 106 H 1.125798 7.472301 -0.493348 0
M  V30 107 H 0.138085 8.449932 -2.530787 0
M  V30 108 H -2.571241 5.208284 -2.802570 0
M  V30 109 H -1.625829 4.217118 -0.838211 0
M  V30 110 H -1.615441 5.081070 1.419803 0
M  V30 111 H -0.862994 3.477352 1.535426 0
M  V30 END ATOM
M  V30 BEGIN BOND
M  V30 1 1 1 2
M  V30 2 1 2 3
M  V30 3 1 2 4
M  V30 4 1 4 5
M  V30 5 1 5 6
M  V30 6 1 6 7
M  V30 7 1 7 8
M  V30 8 1 8 9
M  V30 9 1 9 10
M  V30 10 1 10 11
M  V30 11 1 11 12
M  V30 12 2 12 13
M  V30 13 1 13 14
M  V30 14 2 14 15
M  V30 15 1 15 16
M  V30 16 2 16 17
M  V30 17 1 16 18
M  V30 18 1 18 19
M  V30 19 2 19 20
M  V30 20 2 19 21
M  V30 21 1 19 22
M  V30 22 2 22 23
M  V30 23 1 23 24
M  V30 24 2 24 25
M  V30 25 1 25 26
M  V30 26 1 26 27
M  V30 27 1 27 28
M  V30 28 1 28 29
M  V30 29 1 29 30
M  V30 30 1 30 31
M  V30 31 1 31 32
M  V30 32 1 32 33
M  V30 33 1 25 34
M  V30 34 1 34 35
M  V30 35 2 35 36
M  V30 36 1 35 37
M  V30 37 2 34 38
M  V30 38 1 15 39
M  V30 39 1 39 40
M  V30 40 1 40 41
M  V30 41 2 41 42
M  V30 42 1 42 43
M  V30 43 2 43 44
M  V30 44 1 44 45
M  V30 45 1 45 46
M  V30 46 2 46 47
M  V30 47 1 47 48
M  V30 48 2 48 49
M  V30 49 2 39 50
M  V30 50 1 11 51
M  V30 51 1 51 52
M  V30 52 2 6 53
M  V30 53 1 53 54
M  V30 54 2 54 55
M  V30 55 1 55 56
M  V30 56 2 56 57
M  V30 57 1 57 58
M  V30 58 1 57 59
M  V30 59 2 59 60
M  V30 60 1 53 61
M  V30 61 1 61 2
M  V30 62 1 52 8
M  V30 63 1 60 54
M  V30 64 1 50 12
M  V30 65 1 38 22
M  V30 66 1 49 41
M  V30 67 1 33 28
M  V30 68 1 48 44
M  V30 69 1 1 62
M  V30 70 1 1 63
M  V30 71 1 1 64
M  V30 72 1 3 65
M  V30 73 1 3 66
M  V30 74 1 3 67
M  V30 75 1 4 68
M  V30 76 1 4 69
M  V30 77 1 5 70
M  V30 78 1 5 71
M  V30 79 1 7 72
M  V30 80 1 7 73
M  V30 81 1 9 74
M  V30 82 1 9 75
M  V30 83 1 10 76
M  V30 84 1 10 77
M  V30 85 1 13 78
M  V30 86 1 14 79
M  V30 87 1 18 80
M  V30 88 1 23 81
M  V30 89 1 24 82
M  V30 90 1 26 83
M  V30 91 1 27 84
M  V30 92 1 27 85
M  V30 93 1 28 86
M  V30 94 1 29 87
M  V30 95 1 29 88
M  V30 96 1 30 89
M  V30 97 1 30 90
M  V30 98 1 32 91
M  V30 99 1 32 92
M  V30 100 1 33 93
M  V30 101 1 33 94
M  V30 102 1 38 95
M  V30 103 1 42 96
M  V30 104 1 45 97
M  V30 105 1 46 98
M  V30 106 1 47 99
M  V30 107 1 49 100
M  V30 108 1 50 101
M  V30 109 1 51 102
M  V30 110 1 51 103
M  V30 111 1 52 104
M  V30 112 1 52 105
M  V30 113 1 55 106
M  V30 114 1 56 107
M  V30 115 1 59 108
M  V30 116 1 60 109
M  V30 117 1 61 110
M  V30 118 1 61 111
M  V30 END BOND
M  V30 END CTAB
M  END
>  <Dataset>  (36) 
OralDrugs

>  <Ligand_Instance>  (36) 
nan

>  <PDB_ID>  (36) 
nan

>  <Standardized_SMILES>  (36) 
CC1(C)CCC(CN2CCN(c3ccc(C(=O)NS(=O)(=O)c4ccc(NCC5CCOCC5)c([N+](=O)[O-])c4)c(Oc4cnc5[nH]ccc5c4)c3)CC2)=C(c2ccc(Cl)cc2)C1

>  <Name>  (36) 
Venetoclax

>  <Pocket>  (36) 
nan

>  <ATP_Site>  (36) 
nan

>  <Peripheral>  (36) 
nan

>  <Num_H_Atoms_ProtBoundConf>  (36) 
nan

>  <Num_Resolved_Atoms>  (36) 
nan

>  <Num_Not_Resolved_Atoms>  (36) 
nan

$$$$
CHEMBL637
     RDKit          3D

  0  0  0  0  0  0  0  0  0  0999 V3000
M  V30 BEGIN CTAB
M  V30 COUNTS 47 48 0 0 0
M  V30 BEGIN ATOM
M  V30 1 C -3.555371 -2.756445 4.734555 0
M  V30 2 O -2.243437 -3.020156 4.288827 0
M  V30 3 C -1.627771 -2.427773 3.202658 0
M  V30 4 C -0.331249 -2.946750 3.069229 0
M  V30 5 C 0.496167 -2.504745 2.042345 0
M  V30 6 C 0.041861 -1.548948 1.144553 0
M  V30 7 C 0.876974 -1.015383 0.005338 0
M  V30 8 C 0.460979 -1.440722 -1.325716 0
M  V30 9 N -0.831057 -1.165089 -1.848825 0
M  V30 10 C -0.879735 -1.981078 -3.107257 0
M  V30 11 C -0.940374 0.202031 -2.384503 0
M  V30 12 C 1.389796 0.346301 0.281443 0
M  V30 13 O 2.140129 0.829647 -0.771808 0
M  V30 14 C 2.446673 0.156208 1.409631 0
M  V30 15 C 2.985554 1.428088 1.934714 0
M  V30 16 C 1.903974 2.420727 2.320421 0
M  V30 17 C 1.145669 2.681799 1.026291 0
M  V30 18 C 0.403135 1.370504 0.718133 0
M  V30 19 C -1.253139 -1.031114 1.276867 0
M  V30 20 C -2.075476 -1.482881 2.313424 0
M  V30 21 H -3.655011 -1.801346 5.254778 0
M  V30 22 H -3.934879 -3.570158 5.390115 0
M  V30 23 H -4.204148 -2.687855 3.835226 0
M  V30 24 H 0.145741 -3.703537 3.710614 0
M  V30 25 H 1.512189 -2.898655 1.923273 0
M  V30 26 H 1.835007 -1.677039 0.159134 0
M  V30 27 H 0.717019 -2.548608 -1.446076 0
M  V30 28 H 1.206718 -0.981435 -2.055101 0
M  V30 29 H -0.943149 -3.035758 -2.823735 0
M  V30 30 H -0.028456 -1.698969 -3.726528 0
M  V30 31 H -1.795870 -1.674180 -3.608143 0
M  V30 32 H -1.361856 0.216228 -3.424307 0
M  V30 33 H 0.041192 0.699010 -2.490570 0
M  V30 34 H -1.687962 0.807304 -1.806080 0
M  V30 35 H 2.901810 1.403507 -0.507883 0
M  V30 36 H 3.257131 -0.417406 0.921384 0
M  V30 37 H 2.059956 -0.490043 2.209302 0
M  V30 38 H 3.726150 1.920103 1.278951 0
M  V30 39 H 3.536414 1.189412 2.874724 0
M  V30 40 H 2.404594 3.316414 2.723492 0
M  V30 41 H 1.235794 1.951508 3.064881 0
M  V30 42 H 1.816640 2.969234 0.219250 0
M  V30 43 H 0.378758 3.445767 1.294107 0
M  V30 44 H -0.013129 1.080818 1.711133 0
M  V30 45 H -0.343066 1.573949 -0.028582 0
M  V30 46 H -1.697889 -0.279198 0.620853 0
M  V30 47 H -3.072915 -1.167560 2.517059 0
M  V30 END ATOM
M  V30 BEGIN BOND
M  V30 1 1 1 2
M  V30 2 1 2 3
M  V30 3 2 3 4
M  V30 4 1 4 5
M  V30 5 2 5 6
M  V30 6 1 6 7
M  V30 7 1 7 8
M  V30 8 1 8 9
M  V30 9 1 9 10
M  V30 10 1 9 11
M  V30 11 1 7 12
M  V30 12 1 12 13
M  V30 13 1 12 14
M  V30 14 1 14 15
M  V30 15 1 15 16
M  V30 16 1 16 17
M  V30 17 1 17 18
M  V30 18 1 6 19
M  V30 19 2 19 20
M  V30 20 1 20 3
M  V30 21 1 18 12
M  V30 22 1 1 21
M  V30 23 1 1 22
M  V30 24 1 1 23
M  V30 25 1 4 24
M  V30 26 1 5 25
M  V30 27 1 7 26
M  V30 28 1 8 27
M  V30 29 1 8 28
M  V30 30 1 10 29
M  V30 31 1 10 30
M  V30 32 1 10 31
M  V30 33 1 11 32
M  V30 34 1 11 33
M  V30 35 1 11 34
M  V30 36 1 13 35
M  V30 37 1 14 36
M  V30 38 1 14 37
M  V30 39 1 15 38
M  V30 40 1 15 39
M  V30 41 1 16 40
M  V30 42 1 16 41
M  V30 43 1 17 42
M  V30 44 1 17 43
M  V30 45 1 18 44
M  V30 46 1 18 45
M  V30 47 1 19 46
M  V30 48 1 20 47
M  V30 END BOND
M  V30 END CTAB
M  END
>  <Dataset>  (37) 
OralDrugs

>  <Ligand_Instance>  (37) 
nan

>  <PDB_ID>  (37) 
nan

>  <Standardized_SMILES>  (37) 
COc1ccc(C(CN(C)C)C2(O)CCCCC2)cc1

>  <Name>  (37) 
Venlafaxine

>  <Pocket>  (37) 
nan

>  <ATP_Site>  (37) 
nan

>  <Peripheral>  (37) 
nan

>  <Num_H_Atoms_ProtBoundConf>  (37) 
nan

>  <Num_Resolved_Atoms>  (37) 
nan

>  <Num_Not_Resolved_Atoms>  (37) 
nan

$$$$
CHEMBL6966
     RDKit          3D

  0  0  0  0  0  0  0  0  0  0999 V3000
M  V30 BEGIN CTAB
M  V30 COUNTS 71 72 0 0 0
M  V30 BEGIN ATOM
M  V30 1 C 4.641841 -5.080546 4.669727 0
M  V30 2 O 4.098038 -4.530898 3.507485 0
M  V30 3 C 3.985093 -3.215707 3.164422 0
M  V30 4 C 4.348434 -2.094295 3.872860 0
M  V30 5 C 4.155346 -0.833095 3.355877 0
M  V30 6 C 3.592983 -0.655567 2.111870 0
M  V30 7 C 3.295054 0.630396 1.433475 0
M  V30 8 C 1.806115 0.909386 1.729014 0
M  V30 9 N 1.369842 2.104329 1.132174 0
M  V30 10 C 1.900527 3.309767 1.643715 0
M  V30 11 C 0.646309 2.114646 -0.056628 0
M  V30 12 C -0.779663 1.688254 -0.041787 0
M  V30 13 C -1.075789 0.334964 0.464172 0
M  V30 14 C -2.553963 -0.038592 0.316830 0
M  V30 15 C -2.692633 -1.381735 0.871659 0
M  V30 16 N -2.817638 -2.466590 1.310940 0
M  V30 17 C -2.866611 -0.167986 -1.134683 0
M  V30 18 C -3.336966 0.813329 -1.981858 0
M  V30 19 C -3.563978 0.571277 -3.319195 0
M  V30 20 C -3.333656 -0.666255 -3.886660 0
M  V30 21 O -3.527975 -1.005137 -5.207269 0
M  V30 22 C -3.994126 -0.103364 -6.191256 0
M  V30 23 C -2.863860 -1.687101 -3.091964 0
M  V30 24 O -2.603592 -2.956217 -3.568311 0
M  V30 25 C -2.129106 -3.965710 -2.672709 0
M  V30 26 C -2.649871 -1.404451 -1.759291 0
M  V30 27 C -3.496242 0.870833 1.001614 0
M  V30 28 C -3.321413 0.982693 2.476285 0
M  V30 29 C -4.900301 0.306982 0.743199 0
M  V30 30 C 3.215251 -1.782470 1.370373 0
M  V30 31 C 3.411550 -3.057494 1.897702 0
M  V30 32 O 3.009671 -4.146234 1.102075 0
M  V30 33 C 2.441290 -3.935507 -0.155001 0
M  V30 34 H 5.667607 -5.449145 4.397700 0
M  V30 35 H 4.825488 -4.331438 5.475160 0
M  V30 36 H 4.062087 -5.964750 5.040177 0
M  V30 37 H 4.786296 -2.266950 4.842870 0
M  V30 38 H 4.430944 0.061717 3.892127 0
M  V30 39 H 3.918840 1.465966 1.784386 0
M  V30 40 H 3.384449 0.524890 0.346100 0
M  V30 41 H 1.721007 0.947090 2.832028 0
M  V30 42 H 1.321274 -0.012144 1.348597 0
M  V30 43 H 2.766474 3.735548 1.097409 0
M  V30 44 H 2.250477 3.116282 2.694050 0
M  V30 45 H 1.071232 4.047194 1.777688 0
M  V30 46 H 0.626662 3.204363 -0.429511 0
M  V30 47 H 1.204390 1.619749 -0.918600 0
M  V30 48 H -1.324028 2.492823 0.548949 0
M  V30 49 H -1.158978 1.849805 -1.086581 0
M  V30 50 H -0.504785 -0.418699 -0.085122 0
M  V30 51 H -0.863681 0.289656 1.560696 0
M  V30 52 H -3.512596 1.775601 -1.521258 0
M  V30 53 H -3.930238 1.347293 -3.963724 0
M  V30 54 H -4.317244 -0.659503 -7.117393 0
M  V30 55 H -4.896485 0.413891 -5.751957 0
M  V30 56 H -3.192784 0.630918 -6.436452 0
M  V30 57 H -1.988461 -4.921213 -3.216793 0
M  V30 58 H -2.960724 -4.106561 -1.947793 0
M  V30 59 H -1.223519 -3.663527 -2.134879 0
M  V30 60 H -2.274439 -2.217787 -1.119211 0
M  V30 61 H -3.518442 1.902902 0.593115 0
M  V30 62 H -4.149193 0.456955 3.039604 0
M  V30 63 H -2.402133 0.504594 2.870400 0
M  V30 64 H -3.400758 2.037045 2.854979 0
M  V30 65 H -5.164627 -0.335990 1.604126 0
M  V30 66 H -5.658704 1.094053 0.664401 0
M  V30 67 H -4.904991 -0.358681 -0.148646 0
M  V30 68 H 2.762702 -1.689617 0.372181 0
M  V30 69 H 1.539974 -3.275455 -0.140668 0
M  V30 70 H 3.125370 -3.515240 -0.911940 0
M  V30 71 H 2.108852 -4.922970 -0.545472 0
M  V30 END ATOM
M  V30 BEGIN BOND
M  V30 1 1 1 2
M  V30 2 1 2 3
M  V30 3 2 3 4
M  V30 4 1 4 5
M  V30 5 2 5 6
M  V30 6 1 6 7
M  V30 7 1 7 8
M  V30 8 1 8 9
M  V30 9 1 9 10
M  V30 10 1 9 11
M  V30 11 1 11 12
M  V30 12 1 12 13
M  V30 13 1 13 14
M  V30 14 1 14 15
M  V30 15 3 15 16
M  V30 16 1 14 17
M  V30 17 2 17 18
M  V30 18 1 18 19
M  V30 19 2 19 20
M  V30 20 1 20 21
M  V30 21 1 21 22
M  V30 22 1 20 23
M  V30 23 1 23 24
M  V30 24 1 24 25
M  V30 25 2 23 26
M  V30 26 1 14 27
M  V30 27 1 27 28
M  V30 28 1 27 29
M  V30 29 1 6 30
M  V30 30 2 30 31
M  V30 31 1 31 32
M  V30 32 1 32 33
M  V30 33 1 31 3
M  V30 34 1 26 17
M  V30 35 1 1 34
M  V30 36 1 1 35
M  V30 37 1 1 36
M  V30 38 1 4 37
M  V30 39 1 5 38
M  V30 40 1 7 39
M  V30 41 1 7 40
M  V30 42 1 8 41
M  V30 43 1 8 42
M  V30 44 1 10 43
M  V30 45 1 10 44
M  V30 46 1 10 45
M  V30 47 1 11 46
M  V30 48 1 11 47
M  V30 49 1 12 48
M  V30 50 1 12 49
M  V30 51 1 13 50
M  V30 52 1 13 51
M  V30 53 1 18 52
M  V30 54 1 19 53
M  V30 55 1 22 54
M  V30 56 1 22 55
M  V30 57 1 22 56
M  V30 58 1 25 57
M  V30 59 1 25 58
M  V30 60 1 25 59
M  V30 61 1 26 60
M  V30 62 1 27 61
M  V30 63 1 28 62
M  V30 64 1 28 63
M  V30 65 1 28 64
M  V30 66 1 29 65
M  V30 67 1 29 66
M  V30 68 1 29 67
M  V30 69 1 30 68
M  V30 70 1 33 69
M  V30 71 1 33 70
M  V30 72 1 33 71
M  V30 END BOND
M  V30 END CTAB
M  END
>  <Dataset>  (38) 
OralDrugs

>  <Ligand_Instance>  (38) 
nan

>  <PDB_ID>  (38) 
nan

>  <Standardized_SMILES>  (38) 
COc1ccc(CCN(C)CCCC(C#N)(c2ccc(OC)c(OC)c2)C(C)C)cc1OC

>  <Name>  (38) 
Verapamil

>  <Pocket>  (38) 
nan

>  <ATP_Site>  (38) 
nan

>  <Peripheral>  (38) 
nan

>  <Num_H_Atoms_ProtBoundConf>  (38) 
nan

>  <Num_Resolved_Atoms>  (38) 
nan

>  <Num_Not_Resolved_Atoms>  (38) 
nan

$$$$
CHEMBL4066936
     RDKit          3D

  0  0  0  0  0  0  0  0  0  0999 V3000
M  V30 BEGIN CTAB
M  V30 COUNTS 47 50 0 0 0
M  V30 BEGIN ATOM
M  V30 1 C 1.119435 -6.002953 5.625800 0
M  V30 2 O 2.157184 -5.638753 4.707242 0
M  V30 3 C 1.903863 -4.642631 3.750829 0
M  V30 4 O 0.733548 -4.180057 3.836392 0
M  V30 5 N 2.800317 -4.149533 2.763259 0
M  V30 6 C 2.215460 -3.120065 1.937239 0
M  V30 7 C 1.544702 -3.474984 0.763797 0
M  V30 8 N 1.419950 -4.832969 0.353570 0
M  V30 9 N 1.020108 -2.458111 0.038116 0
M  V30 10 C 1.134238 -1.187674 0.417255 0
M  V30 11 C 0.569353 -0.090760 -0.362984 0
M  V30 12 N 0.608497 1.222341 -0.103754 0
M  V30 13 N -0.021832 1.929855 -1.050257 0
M  V30 14 C -0.073093 3.371822 -0.914534 0
M  V30 15 C -1.260437 3.805264 -0.131989 0
M  V30 16 C -1.053141 4.181798 1.201547 0
M  V30 17 C -2.029527 4.608846 2.089692 0
M  V30 18 C -3.305584 4.660467 1.600235 0
M  V30 19 C -3.567992 4.303383 0.301229 0
M  V30 20 C -2.569067 3.885586 -0.545410 0
M  V30 21 F -2.812507 3.538963 -1.816904 0
M  V30 22 C -0.460423 1.015047 -1.917049 0
M  V30 23 N -1.153654 1.260988 -3.040419 0
M  V30 24 C -1.567144 0.294679 -3.876107 0
M  V30 25 C -1.227094 -1.007411 -3.500921 0
M  V30 26 F -1.620220 -2.023550 -4.309781 0
M  V30 27 C -0.513127 -1.307722 -2.351176 0
M  V30 28 C -0.123281 -0.256308 -1.542632 0
M  V30 29 N 1.792860 -0.897150 1.560784 0
M  V30 30 C 2.346676 -1.807724 2.351101 0
M  V30 31 N 3.042573 -1.511260 3.557911 0
M  V30 32 H 0.264079 -6.490898 5.133144 0
M  V30 33 H 1.560271 -6.547757 6.457820 0
M  V30 34 H 0.723672 -5.032881 6.030097 0
M  V30 35 H 3.744292 -4.605567 2.784546 0
M  V30 36 H 0.536736 -5.111312 0.861274 0
M  V30 37 H 2.267953 -4.953991 -0.275843 0
M  V30 38 H 0.842970 3.777514 -0.443447 0
M  V30 39 H -0.134654 3.792806 -1.944003 0
M  V30 40 H -0.031134 4.139790 1.592480 0
M  V30 41 H -1.746857 4.873246 3.097157 0
M  V30 42 H -4.115085 4.986278 2.244401 0
M  V30 43 H -4.574428 4.335776 -0.111952 0
M  V30 44 H -2.126637 0.494909 -4.782538 0
M  V30 45 H -0.247372 -2.291475 -2.052965 0
M  V30 46 H 4.042105 -1.212029 3.664104 0
M  V30 47 H 2.533533 -1.588107 4.475237 0
M  V30 END ATOM
M  V30 BEGIN BOND
M  V30 1 1 1 2
M  V30 2 1 2 3
M  V30 3 2 3 4
M  V30 4 1 3 5
M  V30 5 1 5 6
M  V30 6 2 6 7
M  V30 7 1 7 8
M  V30 8 1 7 9
M  V30 9 2 9 10
M  V30 10 1 10 11
M  V30 11 2 11 12
M  V30 12 1 12 13
M  V30 13 1 13 14
M  V30 14 1 14 15
M  V30 15 2 15 16
M  V30 16 1 16 17
M  V30 17 2 17 18
M  V30 18 1 18 19
M  V30 19 2 19 20
M  V30 20 1 20 21
M  V30 21 1 13 22
M  V30 22 2 22 23
M  V30 23 1 23 24
M  V30 24 2 24 25
M  V30 25 1 25 26
M  V30 26 1 25 27
M  V30 27 2 27 28
M  V30 28 1 10 29
M  V30 29 2 29 30
M  V30 30 1 30 31
M  V30 31 1 30 6
M  V30 32 1 28 11
M  V30 33 1 20 15
M  V30 34 1 28 22
M  V30 35 1 1 32
M  V30 36 1 1 33
M  V30 37 1 1 34
M  V30 38 1 5 35
M  V30 39 1 8 36
M  V30 40 1 8 37
M  V30 41 1 14 38
M  V30 42 1 14 39
M  V30 43 1 16 40
M  V30 44 1 17 41
M  V30 45 1 18 42
M  V30 46 1 19 43
M  V30 47 1 24 44
M  V30 48 1 27 45
M  V30 49 1 31 46
M  V30 50 1 31 47
M  V30 END BOND
M  V30 END CTAB
M  END
>  <Dataset>  (39) 
OralDrugs

>  <Ligand_Instance>  (39) 
nan

>  <PDB_ID>  (39) 
nan

>  <Standardized_SMILES>  (39) 
COC(=O)Nc1c(N)nc(-c2nn(Cc3ccccc3F)c3ncc(F)cc23)nc1N

>  <Name>  (39) 
Vericiguat

>  <Pocket>  (39) 
nan

>  <ATP_Site>  (39) 
nan

>  <Peripheral>  (39) 
nan

>  <Num_H_Atoms_ProtBoundConf>  (39) 
nan

>  <Num_Resolved_Atoms>  (39) 
nan

>  <Num_Not_Resolved_Atoms>  (39) 
nan

$$$$
CHEMBL2107826
     RDKit          3D

  0  0  0  0  0  0  0  0  0  0999 V3000
M  V30 BEGIN CTAB
M  V30 COUNTS 61 65 0 0 0
M  V30 BEGIN ATOM
M  V30 1 O 3.669750 -1.795383 0.759058 0
M  V30 2 C 3.900170 -2.597194 1.731320 0
M  V30 3 N 2.866228 -2.926241 2.645615 0
M  V30 4 C 1.620283 -2.292728 2.354402 0
M  V30 5 C 1.267290 -1.058225 2.867883 0
M  V30 6 C 0.030022 -0.559949 2.504678 0
M  V30 7 C -0.843694 -1.230124 1.670809 0
M  V30 8 C -2.163894 -0.675985 1.295905 0
M  V30 9 C -2.115953 0.163630 0.049827 0 CFG=2
M  V30 10 C -1.214336 1.352129 0.129207 0
M  V30 11 C -1.768308 2.281039 -0.906824 0
M  V30 12 C -3.226508 1.957439 -0.914808 0 CFG=2
M  V30 13 C -4.109612 3.068126 -0.388786 0 CFG=2
M  V30 14 O -3.857002 3.379122 0.920775 0
M  V30 15 C -5.516464 2.755965 -0.691772 0
M  V30 16 C -6.259329 1.926295 0.123080 0
M  V30 17 C -7.586324 1.616587 -0.140229 0
M  V30 18 C -8.203683 2.150631 -1.257003 0
M  V30 19 C -7.501403 2.984469 -2.099911 0
M  V30 20 C -6.174588 3.272867 -1.805452 0
M  V30 21 N -3.429278 0.749750 -0.136753 0
M  V30 22 C -0.455972 -2.476293 1.168837 0
M  V30 23 C 0.775426 -2.994896 1.517495 0
M  V30 24 C 5.311981 -2.940052 1.549316 0 CFG=2
M  V30 25 C 5.830966 -2.086323 0.375518 0
M  V30 26 C 7.095585 -2.839886 0.000703 0
M  V30 27 C 6.618819 -4.261825 0.149460 0
M  V30 28 N 7.110852 -5.332920 -0.486372 0
M  V30 29 C 6.604982 -6.573889 -0.287653 0
M  V30 30 C 5.559389 -6.630522 0.610330 0
M  V30 31 C 5.106245 -5.497482 1.224532 0
M  V30 32 O 4.164348 -5.716945 2.000589 0
M  V30 33 N 5.585967 -4.253155 1.049413 0
M  V30 34 H 3.242767 -3.566760 3.350604 0
M  V30 35 H 1.972292 -0.577031 3.507077 0
M  V30 36 H -0.254490 0.402019 2.899916 0
M  V30 37 H -2.653032 -0.127392 2.121533 0
M  V30 38 H -2.828247 -1.535576 1.069518 0
M  V30 39 H -1.834240 -0.448748 -0.813960 0
M  V30 40 H -0.207581 1.038250 -0.181988 0
M  V30 41 H -1.149044 1.798653 1.137302 0
M  V30 42 H -1.273739 2.070533 -1.883833 0
M  V30 43 H -1.552054 3.344837 -0.692833 0
M  V30 44 H -3.509635 1.691376 -1.953639 0
M  V30 45 H -3.856614 3.987239 -0.994495 0
M  V30 46 H -3.340026 2.731389 1.436322 0
M  V30 47 H -5.793777 1.498715 1.001652 0
M  V30 48 H -8.132955 0.958400 0.529325 0
M  V30 49 H -9.245774 1.921098 -1.483870 0
M  V30 50 H -7.972287 3.414746 -2.985349 0
M  V30 51 H -5.594954 3.928026 -2.452681 0
M  V30 52 H -4.099223 0.078129 -0.592845 0
M  V30 53 H -1.167745 -2.979749 0.513505 0
M  V30 54 H 1.034541 -3.965890 1.103964 0
M  V30 55 H 5.937288 -2.712226 2.440271 0
M  V30 56 H 5.992023 -1.044992 0.649755 0
M  V30 57 H 5.101453 -2.218198 -0.441671 0
M  V30 58 H 7.330596 -2.639698 -1.058357 0
M  V30 59 H 7.917393 -2.638520 0.696790 0
M  V30 60 H 7.061741 -7.358609 -0.837150 0
M  V30 61 H 5.155554 -7.628669 0.767376 0
M  V30 END ATOM
M  V30 BEGIN BOND
M  V30 1 2 1 2
M  V30 2 1 2 3
M  V30 3 1 3 4
M  V30 4 2 4 5
M  V30 5 1 5 6
M  V30 6 2 6 7
M  V30 7 1 7 8
M  V30 8 1 8 9
M  V30 9 1 9 10
M  V30 10 1 10 11
M  V30 11 1 11 12
M  V30 12 1 12 13
M  V30 13 1 13 14
M  V30 14 1 13 15
M  V30 15 2 15 16
M  V30 16 1 16 17
M  V30 17 2 17 18
M  V30 18 1 18 19
M  V30 19 2 19 20
M  V30 20 1 12 21
M  V30 21 1 7 22
M  V30 22 2 22 23
M  V30 23 1 2 24
M  V30 24 1 24 25
M  V30 25 1 25 26
M  V30 26 1 26 27
M  V30 27 2 27 28
M  V30 28 1 28 29
M  V30 29 2 29 30
M  V30 30 1 30 31
M  V30 31 2 31 32
M  V30 32 1 31 33
M  V30 33 1 23 4
M  V30 34 1 33 24
M  V30 35 1 21 9
M  V30 36 1 33 27
M  V30 37 1 20 15
M  V30 38 1 3 34
M  V30 39 1 5 35
M  V30 40 1 6 36
M  V30 41 1 8 37
M  V30 42 1 8 38
M  V30 43 1 9 39 CFG=3
M  V30 44 1 10 40
M  V30 45 1 10 41
M  V30 46 1 11 42
M  V30 47 1 11 43
M  V30 48 1 12 44 CFG=3
M  V30 49 1 13 45 CFG=3
M  V30 50 1 14 46
M  V30 51 1 16 47
M  V30 52 1 17 48
M  V30 53 1 18 49
M  V30 54 1 19 50
M  V30 55 1 20 51
M  V30 56 1 21 52
M  V30 57 1 22 53
M  V30 58 1 23 54
M  V30 59 1 24 55 CFG=1
M  V30 60 1 25 56
M  V30 61 1 25 57
M  V30 62 1 26 58
M  V30 63 1 26 59
M  V30 64 1 29 60
M  V30 65 1 30 61
M  V30 END BOND
M  V30 END CTAB
M  END
>  <Dataset>  (40) 
OralDrugs

>  <Ligand_Instance>  (40) 
nan

>  <PDB_ID>  (40) 
nan

>  <Standardized_SMILES>  (40) 
O=C(Nc1ccc(C[C@@H]2CC[C@H]([C@H](O)c3ccccc3)N2)cc1)[C@@H]1CCc2nccc(=O)n21

>  <Name>  (40) 
Vibegron

>  <Pocket>  (40) 
nan

>  <ATP_Site>  (40) 
nan

>  <Peripheral>  (40) 
nan

>  <Num_H_Atoms_ProtBoundConf>  (40) 
nan

>  <Num_Resolved_Atoms>  (40) 
nan

>  <Num_Not_Resolved_Atoms>  (40) 
nan

$$$$
CHEMBL89598
     RDKit          3D

  0  0  0  0  0  0  0  0  0  0999 V3000
M  V30 BEGIN CTAB
M  V30 COUNTS 20 19 0 0 0
M  V30 BEGIN ATOM
M  V30 1 C 1.998457 -0.481602 2.338295 0
M  V30 2 C 0.673044 -0.411956 2.136524 0
M  V30 3 C 0.457411 0.620727 1.071478 0
M  V30 4 N 1.033045 1.896259 1.449797 0
M  V30 5 C 1.084075 0.076518 -0.191330 0
M  V30 6 C 0.382962 -1.232551 -0.525236 0
M  V30 7 C -1.060696 -1.083652 -0.749573 0
M  V30 8 O -1.713188 -2.118474 -1.030584 0
M  V30 9 O -2.020129 -0.056598 -0.747413 0
M  V30 10 H 3.039253 -0.670431 2.632303 0
M  V30 11 H 2.952977 -0.062995 2.009869 0
M  V30 12 H 0.662500 -1.169085 2.900665 0
M  V30 13 H -0.621281 0.809110 0.915884 0
M  V30 14 H 2.032409 1.740588 1.701117 0
M  V30 15 H 0.525795 2.230667 2.298787 0
M  V30 16 H 1.081588 0.769692 -1.038070 0
M  V30 17 H 2.138614 -0.191086 0.027298 0
M  V30 18 H 0.802371 -1.644298 -1.488057 0
M  V30 19 H 0.549613 -1.951302 0.302776 0
M  V30 20 H -2.438724 0.259352 -1.621095 0
M  V30 END ATOM
M  V30 BEGIN BOND
M  V30 1 2 1 2
M  V30 2 1 2 3
M  V30 3 1 3 4
M  V30 4 1 3 5
M  V30 5 1 5 6
M  V30 6 1 6 7
M  V30 7 2 7 8
M  V30 8 1 7 9
M  V30 9 1 1 10
M  V30 10 1 1 11
M  V30 11 1 2 12
M  V30 12 1 3 13
M  V30 13 1 4 14
M  V30 14 1 4 15
M  V30 15 1 5 16
M  V30 16 1 5 17
M  V30 17 1 6 18
M  V30 18 1 6 19
M  V30 19 1 9 20
M  V30 END BOND
M  V30 END CTAB
M  END
>  <Dataset>  (41) 
OralDrugs

>  <Ligand_Instance>  (41) 
nan

>  <PDB_ID>  (41) 
nan

>  <Standardized_SMILES>  (41) 
C=CC(N)CCC(=O)O

>  <Name>  (41) 
Vigabatrin

>  <Pocket>  (41) 
nan

>  <ATP_Site>  (41) 
nan

>  <Peripheral>  (41) 
nan

>  <Num_H_Atoms_ProtBoundConf>  (41) 
nan

>  <Num_Resolved_Atoms>  (41) 
nan

>  <Num_Not_Resolved_Atoms>  (41) 
nan

$$$$
CHEMBL439849
     RDKit          3D

  0  0  0  0  0  0  0  0  0  0999 V3000
M  V30 BEGIN CTAB
M  V30 COUNTS 60 64 0 0 0
M  V30 BEGIN ATOM
M  V30 1 N 0.556648 -3.624557 2.931130 0
M  V30 2 C 1.514295 -3.078725 2.546088 0
M  V30 3 C 2.700089 -2.413738 2.095287 0
M  V30 4 C 3.807204 -3.102381 1.663739 0
M  V30 5 C 4.937056 -2.401536 1.234572 0
M  V30 6 C 4.893544 -1.022992 1.262478 0
M  V30 7 N 5.866175 -0.168651 0.894683 0
M  V30 8 C 5.430159 1.097490 1.072717 0
M  V30 9 C 4.139445 1.048264 1.569313 0
M  V30 10 C 3.141797 2.101046 1.962967 0
M  V30 11 C 2.065722 2.241079 0.909261 0
M  V30 12 C 1.100290 3.323290 1.382463 0
M  V30 13 C -0.017583 3.522294 0.377458 0
M  V30 14 N -0.781166 2.355371 0.145439 0
M  V30 15 C -1.865673 2.460680 -0.784716 0
M  V30 16 C -2.920531 1.401569 -0.604645 0
M  V30 17 N -2.354514 0.135303 -0.164788 0
M  V30 18 C -2.918323 -1.109073 -0.551224 0
M  V30 19 C -4.081515 -1.236706 -1.277876 0
M  V30 20 C -4.605908 -2.461992 -1.648607 0
M  V30 21 C -3.962323 -3.644348 -1.292539 0
M  V30 22 O -4.252096 -4.894946 -1.518830 0
M  V30 23 C -3.328414 -5.685639 -0.974882 0
M  V30 24 C -3.175845 -7.136202 -0.934352 0
M  V30 25 N -4.150047 -7.956523 -1.570991 0
M  V30 26 O -2.218990 -7.737059 -0.361681 0
M  V30 27 C -2.405459 -4.848824 -0.370830 0
M  V30 28 C -2.799918 -3.544573 -0.567165 0
M  V30 29 C -2.319206 -2.306031 -0.223255 0
M  V30 30 C -1.179684 0.101653 0.697582 0
M  V30 31 C -1.067180 1.509798 1.245426 0
M  V30 32 C 3.807153 -0.295213 1.686454 0
M  V30 33 C 2.712779 -1.027471 2.101547 0
M  V30 34 H 3.706734 -4.193389 1.693395 0
M  V30 35 H 5.772091 -2.979762 0.908909 0
M  V30 36 H 6.812490 -0.348300 0.529443 0
M  V30 37 H 5.877769 2.070281 0.907954 0
M  V30 38 H 2.741073 1.886705 2.964245 0
M  V30 39 H 3.734601 3.034732 2.040095 0
M  V30 40 H 1.562879 1.299023 0.687403 0
M  V30 41 H 2.567884 2.569047 -0.024011 0
M  V30 42 H 0.770952 3.193763 2.414118 0
M  V30 43 H 1.695779 4.289554 1.395579 0
M  V30 44 H 0.490747 3.905791 -0.546684 0
M  V30 45 H -0.675190 4.356385 0.717416 0
M  V30 46 H -2.348093 3.448424 -0.638981 0
M  V30 47 H -1.488194 2.411767 -1.809304 0
M  V30 48 H -3.706458 1.782023 0.055053 0
M  V30 49 H -3.374192 1.218310 -1.599690 0
M  V30 50 H -4.624836 -0.374891 -1.581946 0
M  V30 51 H -5.522918 -2.536118 -2.220957 0
M  V30 52 H -4.762960 -7.712466 -2.393851 0
M  V30 53 H -4.411969 -8.934755 -1.321971 0
M  V30 54 H -1.509209 -5.127379 0.175117 0
M  V30 55 H -1.402195 -2.350897 0.344285 0
M  V30 56 H -0.332026 -0.131490 0.015528 0
M  V30 57 H -1.218705 -0.662301 1.467990 0
M  V30 58 H -0.406989 1.596250 2.093626 0
M  V30 59 H -2.090203 1.816799 1.614415 0
M  V30 60 H 1.829828 -0.472726 2.445469 0
M  V30 END ATOM
M  V30 BEGIN BOND
M  V30 1 3 1 2
M  V30 2 1 2 3
M  V30 3 2 3 4
M  V30 4 1 4 5
M  V30 5 2 5 6
M  V30 6 1 6 7
M  V30 7 1 7 8
M  V30 8 2 8 9
M  V30 9 1 9 10
M  V30 10 1 10 11
M  V30 11 1 11 12
M  V30 12 1 12 13
M  V30 13 1 13 14
M  V30 14 1 14 15
M  V30 15 1 15 16
M  V30 16 1 16 17
M  V30 17 1 17 18
M  V30 18 2 18 19
M  V30 19 1 19 20
M  V30 20 2 20 21
M  V30 21 1 21 22
M  V30 22 1 22 23
M  V30 23 1 23 24
M  V30 24 1 24 25
M  V30 25 2 24 26
M  V30 26 2 23 27
M  V30 27 1 27 28
M  V30 28 2 28 29
M  V30 29 1 17 30
M  V30 30 1 30 31
M  V30 31 1 9 32
M  V30 32 2 32 33
M  V30 33 1 33 3
M  V30 34 1 32 6
M  V30 35 1 31 14
M  V30 36 1 29 18
M  V30 37 1 28 21
M  V30 38 1 4 34
M  V30 39 1 5 35
M  V30 40 1 7 36
M  V30 41 1 8 37
M  V30 42 1 10 38
M  V30 43 1 10 39
M  V30 44 1 11 40
M  V30 45 1 11 41
M  V30 46 1 12 42
M  V30 47 1 12 43
M  V30 48 1 13 44
M  V30 49 1 13 45
M  V30 50 1 15 46
M  V30 51 1 15 47
M  V30 52 1 16 48
M  V30 53 1 16 49
M  V30 54 1 19 50
M  V30 55 1 20 51
M  V30 56 1 25 52
M  V30 57 1 25 53
M  V30 58 1 27 54
M  V30 59 1 29 55
M  V30 60 1 30 56
M  V30 61 1 30 57
M  V30 62 1 31 58
M  V30 63 1 31 59
M  V30 64 1 33 60
M  V30 END BOND
M  V30 END CTAB
M  END
>  <Dataset>  (42) 
OralDrugs

>  <Ligand_Instance>  (42) 
nan

>  <PDB_ID>  (42) 
nan

>  <Standardized_SMILES>  (42) 
N#Cc1ccc2[nH]cc(CCCCN3CCN(c4ccc5oc(C(N)=O)cc5c4)CC3)c2c1

>  <Name>  (42) 
Vilazodone

>  <Pocket>  (42) 
nan

>  <ATP_Site>  (42) 
nan

>  <Peripheral>  (42) 
nan

>  <Num_H_Atoms_ProtBoundConf>  (42) 
nan

>  <Num_Resolved_Atoms>  (42) 
nan

>  <Num_Not_Resolved_Atoms>  (42) 
nan

$$$$
CHEMBL142703
     RDKit          3D

  0  0  0  0  0  0  0  0  0  0999 V3000
M  V30 BEGIN CTAB
M  V30 COUNTS 47 50 0 0 0
M  V30 BEGIN ATOM
M  V30 1 N -2.556532 -3.856197 -3.733161 0
M  V30 2 C -1.411456 -3.874144 -3.554789 0
M  V30 3 C 0.042384 -3.885627 -3.306213 0 CFG=2
M  V30 4 C 0.405071 -5.136089 -2.595614 0
M  V30 5 C 0.676050 -4.685787 -1.177433 0
M  V30 6 C 0.136978 -3.272060 -1.168270 0
M  V30 7 N 0.438268 -2.745908 -2.508330 0
M  V30 8 C 0.940782 -1.533118 -3.048585 0
M  V30 9 O 1.094288 -1.623141 -4.330550 0
M  V30 10 C 1.381294 -0.178365 -2.796883 0
M  V30 11 N 1.290874 0.395017 -1.512393 0
M  V30 12 C 0.030450 0.816011 -1.018254 0
M  V30 13 C -1.034590 -0.192038 -0.816395 0
M  V30 14 C -2.290332 0.488263 -0.276677 0
M  V30 15 C -2.809769 1.582716 -1.144134 0
M  V30 16 C -1.690441 2.614038 -1.293829 0
M  V30 17 C -1.381300 3.220139 0.045886 0
M  V30 18 C -0.923972 2.087590 0.941148 0
M  V30 19 O -0.580123 2.548144 2.214369 0
M  V30 20 C -2.005765 1.062038 1.101021 0
M  V30 21 C 0.296847 1.468010 0.351079 0
M  V30 22 C -0.505745 1.949925 -1.901624 0
M  V30 23 H 0.550560 -3.888934 -4.302666 0
M  V30 24 H -0.470912 -5.849131 -2.580864 0
M  V30 25 H 1.311928 -5.660186 -2.995585 0
M  V30 26 H 0.182240 -5.352428 -0.449406 0
M  V30 27 H 1.778797 -4.647678 -0.980445 0
M  V30 28 H 0.713412 -2.664866 -0.414761 0
M  V30 29 H -0.937649 -3.249491 -0.984923 0
M  V30 30 H 2.496959 -0.130367 -3.059039 0
M  V30 31 H 0.958040 0.566295 -3.539388 0
M  V30 32 H 2.126127 0.868803 -1.160753 0
M  V30 33 H -1.339031 -0.732431 -1.730692 0
M  V30 34 H -0.765518 -0.890074 0.035897 0
M  V30 35 H -3.068864 -0.299349 -0.149072 0
M  V30 36 H -3.659229 2.044426 -0.620859 0
M  V30 37 H -3.121679 1.223476 -2.146978 0
M  V30 38 H -2.061519 3.378161 -1.989199 0
M  V30 39 H -0.524242 3.904790 -0.068983 0
M  V30 40 H -2.263226 3.730551 0.443364 0
M  V30 41 H -0.213162 1.751084 2.692424 0
M  V30 42 H -1.696861 0.294106 1.834555 0
M  V30 43 H -2.941227 1.542886 1.423171 0
M  V30 44 H 0.766897 0.713603 1.014542 0
M  V30 45 H 1.045845 2.259172 0.154014 0
M  V30 46 H 0.307346 2.721026 -1.955839 0
M  V30 47 H -0.790128 1.552473 -2.899475 0
M  V30 END ATOM
M  V30 BEGIN BOND
M  V30 1 3 1 2
M  V30 2 1 2 3
M  V30 3 1 3 4
M  V30 4 1 4 5
M  V30 5 1 5 6
M  V30 6 1 6 7
M  V30 7 1 7 8
M  V30 8 2 8 9
M  V30 9 1 8 10
M  V30 10 1 10 11
M  V30 11 1 11 12
M  V30 12 1 12 13
M  V30 13 1 13 14
M  V30 14 1 14 15
M  V30 15 1 15 16
M  V30 16 1 16 17
M  V30 17 1 17 18
M  V30 18 1 18 19
M  V30 19 1 18 20
M  V30 20 1 18 21
M  V30 21 1 16 22
M  V30 22 1 7 3
M  V30 23 1 21 12
M  V30 24 1 22 12
M  V30 25 1 20 14
M  V30 26 1 3 23 CFG=3
M  V30 27 1 4 24
M  V30 28 1 4 25
M  V30 29 1 5 26
M  V30 30 1 5 27
M  V30 31 1 6 28
M  V30 32 1 6 29
M  V30 33 1 10 30
M  V30 34 1 10 31
M  V30 35 1 11 32
M  V30 36 1 13 33
M  V30 37 1 13 34
M  V30 38 1 14 35
M  V30 39 1 15 36
M  V30 40 1 15 37
M  V30 41 1 16 38
M  V30 42 1 17 39
M  V30 43 1 17 40
M  V30 44 1 19 41
M  V30 45 1 20 42
M  V30 46 1 20 43
M  V30 47 1 21 44
M  V30 48 1 21 45
M  V30 49 1 22 46
M  V30 50 1 22 47
M  V30 END BOND
M  V30 END CTAB
M  END
>  <Dataset>  (43) 
OralDrugs

>  <Ligand_Instance>  (43) 
nan

>  <PDB_ID>  (43) 
nan

>  <Standardized_SMILES>  (43) 
N#C[C@@H]1CCCN1C(=O)CNC12CC3CC(CC(O)(C3)C1)C2

>  <Name>  (43) 
Vildagliptin

>  <Pocket>  (43) 
nan

>  <ATP_Site>  (43) 
nan

>  <Peripheral>  (43) 
nan

>  <Num_H_Atoms_ProtBoundConf>  (43) 
nan

>  <Num_Resolved_Atoms>  (43) 
nan

>  <Num_Not_Resolved_Atoms>  (43) 
nan

$$$$
CHEMBL306700
     RDKit          3D

  0  0  0  0  0  0  0  0  0  0999 V3000
M  V30 BEGIN CTAB
M  V30 COUNTS 36 37 0 0 0
M  V30 BEGIN ATOM
M  V30 1 C -1.834647 -3.295559 3.799991 0
M  V30 2 C -0.765739 -2.258006 3.870039 0
M  V30 3 O -0.314709 -1.832348 2.607395 0
M  V30 4 C 0.254875 -2.631519 1.653338 0
M  V30 5 C 0.488126 -3.986597 1.755498 0
M  V30 6 C 1.067381 -4.743301 0.758342 0
M  V30 7 C 1.444371 -4.117011 -0.427085 0
M  V30 8 C 1.229796 -2.762083 -0.573004 0
M  V30 9 C 0.644575 -2.055563 0.462220 0
M  V30 10 O 0.442568 -0.683398 0.278566 0
M  V30 11 C 0.799586 -0.003613 -0.885770 0
M  V30 12 C 0.453834 1.465021 -0.778595 0
M  V30 13 C 0.669596 2.203682 -2.064112 0
M  V30 14 N -0.168816 3.389872 -2.039835 0
M  V30 15 C -0.304756 3.868644 -0.689707 0
M  V30 16 C 0.915076 3.473298 0.119133 0
M  V30 17 O 1.080388 2.117110 0.256098 0
M  V30 18 H -2.057495 -3.647435 2.771652 0
M  V30 19 H -1.506552 -4.198260 4.354367 0
M  V30 20 H -2.765043 -2.967002 4.330602 0
M  V30 21 H -1.194620 -1.352429 4.369753 0
M  V30 22 H 0.089802 -2.616136 4.444796 0
M  V30 23 H 0.194091 -4.470895 2.678381 0
M  V30 24 H 1.240287 -5.806684 0.862213 0
M  V30 25 H 1.907491 -4.632578 -1.267067 0
M  V30 26 H 1.504831 -2.230227 -1.473779 0
M  V30 27 H 0.253732 -0.381204 -1.775519 0
M  V30 28 H 1.899622 -0.036022 -1.118797 0
M  V30 29 H -0.637072 1.507246 -0.572087 0
M  V30 30 H 1.721002 2.517602 -2.215651 0
M  V30 31 H 0.302684 1.563164 -2.913891 0
M  V30 32 H 0.163823 4.118407 -2.702185 0
M  V30 33 H -0.349380 4.980895 -0.664497 0
M  V30 34 H -1.232135 3.538867 -0.177266 0
M  V30 35 H 0.774929 3.929928 1.138336 0
M  V30 36 H 1.802163 3.907259 -0.376887 0
M  V30 END ATOM
M  V30 BEGIN BOND
M  V30 1 1 1 2
M  V30 2 1 2 3
M  V30 3 1 3 4
M  V30 4 2 4 5
M  V30 5 1 5 6
M  V30 6 2 6 7
M  V30 7 1 7 8
M  V30 8 2 8 9
M  V30 9 1 9 10
M  V30 10 1 10 11
M  V30 11 1 11 12
M  V30 12 1 12 13
M  V30 13 1 13 14
M  V30 14 1 14 15
M  V30 15 1 15 16
M  V30 16 1 16 17
M  V30 17 1 9 4
M  V30 18 1 17 12
M  V30 19 1 1 18
M  V30 20 1 1 19
M  V30 21 1 1 20
M  V30 22 1 2 21
M  V30 23 1 2 22
M  V30 24 1 5 23
M  V30 25 1 6 24
M  V30 26 1 7 25
M  V30 27 1 8 26
M  V30 28 1 11 27
M  V30 29 1 11 28
M  V30 30 1 12 29
M  V30 31 1 13 30
M  V30 32 1 13 31
M  V30 33 1 14 32
M  V30 34 1 15 33
M  V30 35 1 15 34
M  V30 36 1 16 35
M  V30 37 1 16 36
M  V30 END BOND
M  V30 END CTAB
M  END
>  <Dataset>  (44) 
OralDrugs

>  <Ligand_Instance>  (44) 
nan

>  <PDB_ID>  (44) 
nan

>  <Standardized_SMILES>  (44) 
CCOc1ccccc1OCC1CNCCO1

>  <Name>  (44) 
Viloxazine

>  <Pocket>  (44) 
nan

>  <ATP_Site>  (44) 
nan

>  <Peripheral>  (44) 
nan

>  <Num_H_Atoms_ProtBoundConf>  (44) 
nan

>  <Num_Resolved_Atoms>  (44) 
nan

>  <Num_Not_Resolved_Atoms>  (44) 
nan

$$$$
CHEMBL473417
     RDKit          3D

  0  0  0  0  0  0  0  0  0  0999 V3000
M  V30 BEGIN CTAB
M  V30 COUNTS 41 43 0 0 0
M  V30 BEGIN ATOM
M  V30 1 C -0.835340 -7.513744 0.924151 0
M  V30 2 S -0.139540 -7.003858 -0.623537 0
M  V30 3 O -1.026167 -7.514813 -1.724721 0
M  V30 4 O 1.212083 -7.642367 -0.750856 0
M  V30 5 C -0.057548 -5.269859 -0.757751 0
M  V30 6 C 1.076037 -4.621244 -0.317086 0
M  V30 7 C 1.226589 -3.253583 -0.385507 0
M  V30 8 C 0.165045 -2.524746 -0.930613 0
M  V30 9 C 0.273446 -1.073684 -1.026337 0
M  V30 10 O 0.246066 -0.642127 -2.201152 0
M  V30 11 N 0.399555 -0.167490 0.041054 0
M  V30 12 C 0.507778 1.246657 -0.011098 0
M  V30 13 C 0.508914 1.969691 -1.167348 0
M  V30 14 C 0.620089 3.341402 -1.094805 0
M  V30 15 C 0.725897 3.932888 0.141439 0
M  V30 16 Cl 0.853777 5.659359 0.108193 0
M  V30 17 C 0.729774 3.252772 1.329901 0
M  V30 18 C 0.832883 3.795649 2.668277 0
M  V30 19 C 0.992047 5.057695 3.107373 0
M  V30 20 C 1.085351 5.496707 4.392335 0
M  V30 21 C 1.012556 4.562691 5.404240 0
M  V30 22 C 0.849879 3.260407 4.992948 0
M  V30 23 N 0.769511 2.938376 3.697082 0
M  V30 24 C 0.616393 1.887173 1.199949 0
M  V30 25 C -0.995851 -3.140194 -1.386796 0
M  V30 26 Cl -2.313369 -2.213109 -2.065386 0
M  V30 27 C -1.093490 -4.518082 -1.293722 0
M  V30 28 H -0.543733 -8.565123 1.094282 0
M  V30 29 H -0.413293 -6.920052 1.762780 0
M  V30 30 H -1.946348 -7.488300 0.934557 0
M  V30 31 H 1.881412 -5.209426 0.100212 0
M  V30 32 H 2.132058 -2.763705 -0.030770 0
M  V30 33 H 0.403441 -0.707804 0.933189 0
M  V30 34 H 0.428691 1.537489 -2.128778 0
M  V30 35 H 0.620286 3.908842 -2.018062 0
M  V30 36 H 1.058869 5.828888 2.376752 0
M  V30 37 H 1.211003 6.521404 4.645029 0
M  V30 38 H 1.075142 4.802166 6.453522 0
M  V30 39 H 0.777579 2.424640 5.691314 0
M  V30 40 H 0.611677 1.266498 2.111231 0
M  V30 41 H -1.986315 -5.034134 -1.640404 0
M  V30 END ATOM
M  V30 BEGIN BOND
M  V30 1 1 1 2
M  V30 2 2 2 3
M  V30 3 2 2 4
M  V30 4 1 2 5
M  V30 5 2 5 6
M  V30 6 1 6 7
M  V30 7 2 7 8
M  V30 8 1 8 9
M  V30 9 2 9 10
M  V30 10 1 9 11
M  V30 11 1 11 12
M  V30 12 2 12 13
M  V30 13 1 13 14
M  V30 14 2 14 15
M  V30 15 1 15 16
M  V30 16 1 15 17
M  V30 17 1 17 18
M  V30 18 2 18 19
M  V30 19 1 19 20
M  V30 20 2 20 21
M  V30 21 1 21 22
M  V30 22 2 22 23
M  V30 23 2 17 24
M  V30 24 1 8 25
M  V30 25 1 25 26
M  V30 26 2 25 27
M  V30 27 1 27 5
M  V30 28 1 24 12
M  V30 29 1 23 18
M  V30 30 1 1 28
M  V30 31 1 1 29
M  V30 32 1 1 30
M  V30 33 1 6 31
M  V30 34 1 7 32
M  V30 35 1 11 33
M  V30 36 1 13 34
M  V30 37 1 14 35
M  V30 38 1 19 36
M  V30 39 1 20 37
M  V30 40 1 21 38
M  V30 41 1 22 39
M  V30 42 1 24 40
M  V30 43 1 27 41
M  V30 END BOND
M  V30 END CTAB
M  END
>  <Dataset>  (45) 
OralDrugs

>  <Ligand_Instance>  (45) 
nan

>  <PDB_ID>  (45) 
nan

>  <Standardized_SMILES>  (45) 
CS(=O)(=O)c1ccc(C(=O)Nc2ccc(Cl)c(-c3ccccn3)c2)c(Cl)c1

>  <Name>  (45) 
Vismodegib

>  <Pocket>  (45) 
nan

>  <ATP_Site>  (45) 
nan

>  <Peripheral>  (45) 
nan

>  <Num_H_Atoms_ProtBoundConf>  (45) 
nan

>  <Num_Resolved_Atoms>  (45) 
nan

>  <Num_Not_Resolved_Atoms>  (45) 
nan

$$$$
CHEMBL1675
     RDKit          3D

  0  0  0  0  0  0  0  0  0  0999 V3000
M  V30 BEGIN CTAB
M  V30 COUNTS 98 98 0 0 0
M  V30 BEGIN ATOM
M  V30 1 C -4.678028 2.684868 1.394739 0
M  V30 2 C -3.829224 3.933814 1.641257 0
M  V30 3 C -3.196269 3.786161 2.992699 0
M  V30 4 C -2.323193 2.525516 2.967397 0
M  V30 5 C -1.667929 2.264434 4.272031 0
M  V30 6 C -0.723222 3.265453 4.808464 0
M  V30 7 C 0.513616 3.566290 4.047143 0
M  V30 8 C 1.450954 2.382763 3.832032 0
M  V30 9 C 1.824835 1.826274 5.160288 0
M  V30 10 C 2.768831 0.666283 5.209699 0
M  V30 11 C 4.158412 0.808802 4.774018 0
M  V30 12 C 4.877650 -0.541527 4.981170 0
M  V30 13 C 4.178540 -1.610669 4.181270 0
M  V30 14 C 4.772679 -3.003027 4.406806 0
M  V30 15 C 4.026121 -4.029016 3.600921 0
M  V30 16 C 2.542199 -4.049772 3.940345 0
M  V30 17 O 1.313011 -3.993969 4.267116 0
M  V30 18 O 1.122983 -4.002045 4.317383 0
M  V30 19 C 0.689095 -2.604070 4.441195 0
M  V30 20 C 0.728572 -1.988780 3.143050 0
M  V30 21 C -0.052191 -1.351909 2.346698 0
M  V30 22 C -1.366610 -1.245895 3.081911 0
M  V30 23 C -0.266146 -1.056575 0.902917 0
M  V30 24 C -0.973485 -0.341063 0.182552 0
M  V30 25 C -0.624018 -0.577022 -1.325852 0
M  V30 26 C -1.264462 0.032763 -2.452842 0
M  V30 27 C -1.975488 0.634852 -1.375382 0
M  V30 28 C -0.166324 -0.758871 -3.127301 0
M  V30 29 C -0.156722 -0.799308 -4.471947 0
M  V30 30 C 0.765611 -1.465458 -5.336902 0
M  V30 31 C 1.844621 -2.166588 -5.499075 0
M  V30 32 C 2.447797 -2.443189 -4.136787 0
M  V30 33 C 2.511593 -2.795030 -6.648434 0
M  V30 34 C 1.481476 -3.816480 -7.176315 0
M  V30 35 C 0.098271 -3.276795 -6.828044 0
M  V30 36 C 0.096463 -1.739233 -6.693435 0
M  V30 37 C 0.712574 -1.142283 -7.873116 0
M  V30 38 C -1.382472 -1.403877 -6.664967 0
M  V30 39 H -5.527036 2.937437 0.734234 0
M  V30 40 H -5.061458 2.326662 2.376690 0
M  V30 41 H -3.991942 1.911423 0.961946 0
M  V30 42 H -3.001972 3.956249 0.878318 0
M  V30 43 H -4.416544 4.867500 1.544147 0
M  V30 44 H -3.981335 3.631162 3.745751 0
M  V30 45 H -2.582928 4.663769 3.264613 0
M  V30 46 H -1.640094 2.636652 2.111612 0
M  V30 47 H -2.990004 1.666498 2.708279 0
M  V30 48 H -1.192536 1.260376 4.334660 0
M  V30 49 H -2.511455 2.214984 5.019551 0
M  V30 50 H -1.225164 4.240394 5.011047 0
M  V30 51 H -0.445881 2.915125 5.849120 0
M  V30 52 H 1.056629 4.354665 4.660213 0
M  V30 53 H 0.387621 4.047729 3.066967 0
M  V30 54 H 2.338166 2.743300 3.290092 0
M  V30 55 H 0.978266 1.608105 3.188961 0
M  V30 56 H 2.195714 2.644804 5.797631 0
M  V30 57 H 0.863691 1.490083 5.672088 0
M  V30 58 H 2.770736 0.305567 6.285450 0
M  V30 59 H 2.263318 -0.148957 4.627861 0
M  V30 60 H 4.663968 1.505502 5.561585 0
M  V30 61 H 4.379389 1.234692 3.820670 0
M  V30 62 H 5.945027 -0.466640 4.770032 0
M  V30 63 H 4.797263 -0.844551 6.051518 0
M  V30 64 H 4.115923 -1.349626 3.119853 0
M  V30 65 H 3.194697 -1.704566 4.643088 0
M  V30 66 H 4.617009 -3.252112 5.465522 0
M  V30 67 H 5.821917 -3.080831 4.113177 0
M  V30 68 H 4.080761 -3.864383 2.521594 0
M  V30 69 H 4.387098 -5.050106 3.873415 0
M  V30 70 H 1.186266 -2.117867 5.236273 0
M  V30 71 H -0.398170 -2.704784 4.818552 0
M  V30 72 H 1.720849 -2.010141 2.594752 0
M  V30 73 H -1.994494 -2.153484 3.003622 0
M  V30 74 H -1.226358 -1.036397 4.187266 0
M  V30 75 H -1.909404 -0.385589 2.666276 0
M  V30 76 H 0.529514 -1.787785 0.626521 0
M  V30 77 H -1.620317 0.248748 0.829662 0
M  V30 78 H 0.246126 -1.392039 -1.305386 0
M  V30 79 H -2.756406 0.084992 -0.830027 0
M  V30 80 H -1.430283 1.425298 -0.802169 0
M  V30 81 H -2.703851 1.431530 -1.992452 0
M  V30 82 H 0.692207 -1.345484 -3.119625 0
M  V30 83 H -0.941341 -0.218758 -4.928733 0
M  V30 84 H 3.288320 -3.141854 -4.362595 0
M  V30 85 H 1.753812 -2.997180 -3.496806 0
M  V30 86 H 2.851160 -1.587258 -3.653555 0
M  V30 87 H 2.967511 -2.186821 -7.421654 0
M  V30 88 H 3.333447 -3.441005 -6.212447 0
M  V30 89 H 1.643623 -4.760512 -6.631148 0
M  V30 90 H 1.583523 -3.990844 -8.251018 0
M  V30 91 H -0.635087 -3.630730 -7.546965 0
M  V30 92 H -0.191024 -3.651291 -5.835929 0
M  V30 93 H -0.025806 -0.520651 -8.491841 0
M  V30 94 H 1.529015 -0.414328 -7.742778 0
M  V30 95 H 0.987919 -1.962537 -8.626563 0
M  V30 96 H -1.868797 -1.634510 -5.698465 0
M  V30 97 H -1.624155 -0.388965 -6.962718 0
M  V30 98 H -1.949485 -2.082538 -7.380187 0
M  V30 END ATOM
M  V30 BEGIN BOND
M  V30 1 1 1 2
M  V30 2 1 2 3
M  V30 3 1 3 4
M  V30 4 1 4 5
M  V30 5 1 5 6
M  V30 6 1 6 7
M  V30 7 1 7 8
M  V30 8 1 8 9
M  V30 9 1 9 10
M  V30 10 1 10 11
M  V30 11 1 11 12
M  V30 12 1 12 13
M  V30 13 1 13 14
M  V30 14 1 14 15
M  V30 15 1 15 16
M  V30 16 2 16 17
M  V30 17 1 16 18
M  V30 18 1 18 19
M  V30 19 1 19 20
M  V30 20 2 20 21
M  V30 21 1 21 22
M  V30 22 1 21 23
M  V30 23 2 23 24
M  V30 24 1 24 25
M  V30 25 2 25 26
M  V30 26 1 26 27
M  V30 27 1 26 28
M  V30 28 2 28 29
M  V30 29 1 29 30
M  V30 30 2 30 31
M  V30 31 1 31 32
M  V30 32 1 31 33
M  V30 33 1 33 34
M  V30 34 1 34 35
M  V30 35 1 35 36
M  V30 36 1 36 37
M  V30 37 1 36 38
M  V30 38 1 36 30
M  V30 39 1 1 39
M  V30 40 1 1 40
M  V30 41 1 1 41
M  V30 42 1 2 42
M  V30 43 1 2 43
M  V30 44 1 3 44
M  V30 45 1 3 45
M  V30 46 1 4 46
M  V30 47 1 4 47
M  V30 48 1 5 48
M  V30 49 1 5 49
M  V30 50 1 6 50
M  V30 51 1 6 51
M  V30 52 1 7 52
M  V30 53 1 7 53
M  V30 54 1 8 54
M  V30 55 1 8 55
M  V30 56 1 9 56
M  V30 57 1 9 57
M  V30 58 1 10 58
M  V30 59 1 10 59
M  V30 60 1 11 60
M  V30 61 1 11 61
M  V30 62 1 12 62
M  V30 63 1 12 63
M  V30 64 1 13 64
M  V30 65 1 13 65
M  V30 66 1 14 66
M  V30 67 1 14 67
M  V30 68 1 15 68
M  V30 69 1 15 69
M  V30 70 1 19 70
M  V30 71 1 19 71
M  V30 72 1 20 72
M  V30 73 1 22 73
M  V30 74 1 22 74
M  V30 75 1 22 75
M  V30 76 1 23 76
M  V30 77 1 24 77
M  V30 78 1 25 78
M  V30 79 1 27 79
M  V30 80 1 27 80
M  V30 81 1 27 81
M  V30 82 1 28 82
M  V30 83 1 29 83
M  V30 84 1 32 84
M  V30 85 1 32 85
M  V30 86 1 32 86
M  V30 87 1 33 87
M  V30 88 1 33 88
M  V30 89 1 34 89
M  V30 90 1 34 90
M  V30 91 1 35 91
M  V30 92 1 35 92
M  V30 93 1 37 93
M  V30 94 1 37 94
M  V30 95 1 37 95
M  V30 96 1 38 96
M  V30 97 1 38 97
M  V30 98 1 38 98
M  V30 END BOND
M  V30 END CTAB
M  END
>  <Dataset>  (46) 
OralDrugs

>  <Ligand_Instance>  (46) 
nan

>  <PDB_ID>  (46) 
nan

>  <Standardized_SMILES>  (46) 
CCCCCCCCCCCCCCCC(=O)OC/C=C(C)/C=C/C=C(C)/C=C/C1=C(C)CCCC1(C)C

>  <Name>  (46) 
Vitamin A Palmitate

>  <Pocket>  (46) 
nan

>  <ATP_Site>  (46) 
nan

>  <Peripheral>  (46) 
nan

>  <Num_H_Atoms_ProtBoundConf>  (46) 
nan

>  <Num_Resolved_Atoms>  (46) 
nan

>  <Num_Not_Resolved_Atoms>  (46) 
nan

$$$$
CHEMBL476960
     RDKit          3D

  0  0  0  0  0  0  0  0  0  0999 V3000
M  V30 BEGIN CTAB
M  V30 COUNTS 39 39 0 0 0
M  V30 BEGIN ATOM
M  V30 1 O -2.641367 -4.276354 2.158066 0
M  V30 2 C -2.010971 -3.717181 1.071080 0
M  V30 3 C -1.073727 -2.602908 1.589641 0
M  V30 4 C -0.175176 -3.287128 2.588498 0
M  V30 5 O 0.759119 -2.492992 3.191415 0
M  V30 6 N -0.415375 -2.017127 0.468289 0
M  V30 7 C 0.443299 -0.895366 0.734787 0 CFG=1
M  V30 8 C 0.979073 -0.440052 -0.605636 0
M  V30 9 C 1.107535 1.061157 -0.666023 0 CFG=2
M  V30 10 O -0.142972 1.604619 -0.950763 0
M  V30 11 C 2.014117 1.482408 -1.796995 0
M  V30 12 O 2.071591 2.874264 -1.852582 0
M  V30 13 C 1.644148 1.496854 0.680851 0 CFG=1
M  V30 14 O 2.162217 2.782701 0.645843 0
M  V30 15 C 0.441676 1.454377 1.615881 0 CFG=2
M  V30 16 O 0.899240 1.667071 2.894264 0
M  V30 17 C -0.337123 0.174499 1.445014 0 CFG=1
M  V30 18 O -1.594175 0.377956 0.874707 0
M  V30 19 H -3.276797 -3.609917 2.560931 0
M  V30 20 H -1.346603 -4.459190 0.596751 0
M  V30 21 H -2.697310 -3.303411 0.319189 0
M  V30 22 H -1.732157 -1.878183 2.126876 0
M  V30 23 H 0.322494 -4.178222 2.111542 0
M  V30 24 H -0.790701 -3.738399 3.404073 0
M  V30 25 H 0.928338 -2.771793 4.122051 0
M  V30 26 H 0.159106 -2.757992 0.008418 0
M  V30 27 H 1.275419 -1.236631 1.379272 0
M  V30 28 H 1.997555 -0.865057 -0.724392 0
M  V30 29 H 0.394399 -0.841102 -1.452791 0
M  V30 30 H -0.033732 2.477269 -1.364326 0
M  V30 31 H 1.534201 1.139358 -2.737432 0
M  V30 32 H 3.056014 1.138910 -1.686051 0
M  V30 33 H 1.660126 3.236038 -2.696918 0
M  V30 34 H 2.379319 0.752759 1.047196 0
M  V30 35 H 2.910446 2.914384 1.277804 0
M  V30 36 H -0.197278 2.320749 1.310046 0
M  V30 37 H 0.301269 2.302773 3.366380 0
M  V30 38 H -0.553573 -0.203071 2.465133 0
M  V30 39 H -1.834697 -0.326874 0.226029 0
M  V30 END ATOM
M  V30 BEGIN BOND
M  V30 1 1 1 2
M  V30 2 1 2 3
M  V30 3 1 3 4
M  V30 4 1 4 5
M  V30 5 1 3 6
M  V30 6 1 6 7
M  V30 7 1 7 8
M  V30 8 1 8 9
M  V30 9 1 9 10 CFG=3
M  V30 10 1 9 11
M  V30 11 1 11 12
M  V30 12 1 9 13
M  V30 13 1 13 14
M  V30 14 1 13 15
M  V30 15 1 15 16
M  V30 16 1 15 17
M  V30 17 1 17 18
M  V30 18 1 17 7
M  V30 19 1 1 19
M  V30 20 1 2 20
M  V30 21 1 2 21
M  V30 22 1 3 22
M  V30 23 1 4 23
M  V30 24 1 4 24
M  V30 25 1 5 25
M  V30 26 1 6 26
M  V30 27 1 7 27 CFG=1
M  V30 28 1 8 28
M  V30 29 1 8 29
M  V30 30 1 10 30
M  V30 31 1 11 31
M  V30 32 1 11 32
M  V30 33 1 12 33
M  V30 34 1 13 34 CFG=1
M  V30 35 1 14 35
M  V30 36 1 15 36 CFG=3
M  V30 37 1 16 37
M  V30 38 1 17 38 CFG=1
M  V30 39 1 18 39
M  V30 END BOND
M  V30 END CTAB
M  END
>  <Dataset>  (47) 
OralDrugs

>  <Ligand_Instance>  (47) 
nan

>  <PDB_ID>  (47) 
nan

>  <Standardized_SMILES>  (47) 
OCC(CO)N[C@H]1C[C@](O)(CO)[C@@H](O)[C@H](O)[C@H]1O

>  <Name>  (47) 
Voglibose

>  <Pocket>  (47) 
nan

>  <ATP_Site>  (47) 
nan

>  <Peripheral>  (47) 
nan

>  <Num_H_Atoms_ProtBoundConf>  (47) 
nan

>  <Num_Resolved_Atoms>  (47) 
nan

>  <Num_Not_Resolved_Atoms>  (47) 
nan

$$$$
CHEMBL2079130
     RDKit          3D

  0  0  0  0  0  0  0  0  0  0999 V3000
M  V30 BEGIN CTAB
M  V30 COUNTS 40 42 0 0 0
M  V30 BEGIN ATOM
M  V30 1 C 1.213713 -6.024507 1.144241 0
M  V30 2 N 1.548359 -4.608978 1.066139 0
M  V30 3 C 0.345064 -3.888089 0.799736 0
M  V30 4 C 0.540617 -2.404349 0.692262 0
M  V30 5 C 0.828345 -1.849662 -0.536508 0
M  V30 6 C 0.949473 -0.498414 -0.319156 0
M  V30 7 C 1.220300 0.595535 -1.237618 0
M  V30 8 C 0.537108 0.914142 -2.392418 0
M  V30 9 C 0.921568 1.957095 -3.207971 0
M  V30 10 C 2.014858 2.715978 -2.881124 0
M  V30 11 C 2.729693 2.419114 -1.717696 0
M  V30 12 C 2.337228 1.373293 -0.908822 0
M  V30 13 F 3.189070 1.243590 0.146524 0
M  V30 14 N 0.747692 -0.209096 0.976079 0
M  V30 15 S 0.642838 1.141701 2.047253 0
M  V30 16 O 1.677422 1.120574 3.123976 0
M  V30 17 O 0.783040 2.461640 1.318068 0
M  V30 18 C -1.002891 1.225485 2.729151 0
M  V30 19 C -2.009037 1.941598 2.114021 0
M  V30 20 C -3.279860 2.002713 2.646134 0
M  V30 21 C -3.481889 1.298793 3.838407 0
M  V30 22 N -2.491907 0.609665 4.419630 0
M  V30 23 C -1.247123 0.540646 3.912628 0
M  V30 24 C 0.492805 -1.385528 1.621978 0
M  V30 25 H 2.090410 -6.640441 1.431152 0
M  V30 26 H 0.457814 -6.124115 1.956077 0
M  V30 27 H 0.724366 -6.361492 0.222198 0
M  V30 28 H 2.044335 -4.310447 1.910730 0
M  V30 29 H -0.423214 -4.071695 1.603240 0
M  V30 30 H -0.116317 -4.299922 -0.119153 0
M  V30 31 H 0.959545 -2.241302 -1.520444 0
M  V30 32 H -0.318891 0.240435 -2.552970 0
M  V30 33 H 0.254195 2.037280 -4.059027 0
M  V30 34 H 2.235800 3.509205 -3.581358 0
M  V30 35 H 3.564087 3.083967 -1.570831 0
M  V30 36 H -1.760761 2.464555 1.179812 0
M  V30 37 H -4.024525 2.580944 2.116007 0
M  V30 38 H -4.482905 1.353485 4.247393 0
M  V30 39 H -0.474949 -0.024441 4.408789 0
M  V30 40 H 0.268004 -1.737399 2.639300 0
M  V30 END ATOM
M  V30 BEGIN BOND
M  V30 1 1 1 2
M  V30 2 1 2 3
M  V30 3 1 3 4
M  V30 4 1 4 5
M  V30 5 2 5 6
M  V30 6 1 6 7
M  V30 7 2 7 8
M  V30 8 1 8 9
M  V30 9 2 9 10
M  V30 10 1 10 11
M  V30 11 2 11 12
M  V30 12 1 12 13
M  V30 13 1 6 14
M  V30 14 1 14 15
M  V30 15 2 15 16
M  V30 16 2 15 17
M  V30 17 1 15 18
M  V30 18 2 18 19
M  V30 19 1 19 20
M  V30 20 2 20 21
M  V30 21 1 21 22
M  V30 22 2 22 23
M  V30 23 1 14 24
M  V30 24 2 24 4
M  V30 25 1 12 7
M  V30 26 1 23 18
M  V30 27 1 1 25
M  V30 28 1 1 26
M  V30 29 1 1 27
M  V30 30 1 2 28
M  V30 31 1 3 29
M  V30 32 1 3 30
M  V30 33 1 5 31
M  V30 34 1 8 32
M  V30 35 1 9 33
M  V30 36 1 10 34
M  V30 37 1 11 35
M  V30 38 1 19 36
M  V30 39 1 20 37
M  V30 40 1 21 38
M  V30 41 1 23 39
M  V30 42 1 24 40
M  V30 END BOND
M  V30 END CTAB
M  END
>  <Dataset>  (48) 
OralDrugs

>  <Ligand_Instance>  (48) 
nan

>  <PDB_ID>  (48) 
nan

>  <Standardized_SMILES>  (48) 
CNCc1cc(-c2ccccc2F)n(S(=O)(=O)c2cccnc2)c1

>  <Name>  (48) 
Vonoprazan

>  <Pocket>  (48) 
nan

>  <ATP_Site>  (48) 
nan

>  <Peripheral>  (48) 
nan

>  <Num_H_Atoms_ProtBoundConf>  (48) 
nan

>  <Num_Resolved_Atoms>  (48) 
nan

>  <Num_Not_Resolved_Atoms>  (48) 
nan

$$$$
CHEMBL493982
     RDKit          3D

  0  0  0  0  0  0  0  0  0  0999 V3000
M  V30 BEGIN CTAB
M  V30 COUNTS 69 73 0 0 0
M  V30 BEGIN ATOM
M  V30 1 C 4.105121 2.850070 6.409063 0
M  V30 2 C 4.603594 2.210017 5.143178 0
M  V30 3 O 3.566895 1.546510 4.432440 0
M  V30 4 C 2.464717 2.251238 3.980030 0
M  V30 5 O 2.806239 3.370344 4.407706 0
M  V30 6 N 1.332624 1.794078 3.261627 0
M  V30 7 C 0.282458 2.701554 2.880978 0 CFG=2
M  V30 8 C -1.051993 2.429726 3.473278 0
M  V30 9 C -1.809666 1.274133 2.929315 0
M  V30 10 C -1.346905 1.033831 1.480419 0 CFG=2
M  V30 11 C -1.110376 2.394514 0.922105 0 CFG=1
M  V30 12 C 0.218448 2.878122 1.370955 0
M  V30 13 C -1.370337 2.477131 -0.562760 0
M  V30 14 C -2.845579 2.199991 -0.699395 0 CFG=1
M  V30 15 C -3.333575 2.180460 -2.095081 0
M  V30 16 O -2.772098 3.029200 -2.871557 0
M  V30 17 O -4.325304 1.176654 -2.150628 0
M  V30 18 C -3.735626 0.138890 -1.338919 0 CFG=2
M  V30 19 C -4.793263 -0.862330 -0.966268 0
M  V30 20 C -3.272873 0.899301 -0.118713 0 CFG=1
M  V30 21 C -2.275408 0.159219 0.712117 0 CFG=1
M  V30 22 C -1.660299 -0.979915 0.002754 0
M  V30 23 C -0.454614 -1.471853 -0.169152 0
M  V30 24 C -0.100226 -2.641632 -0.936623 0
M  V30 25 C -1.005695 -3.425744 -1.615201 0
M  V30 26 C -0.598918 -4.549948 -2.341022 0
M  V30 27 C 0.749426 -4.862781 -2.364158 0
M  V30 28 C 1.273477 -6.028775 -3.101129 0
M  V30 29 C 2.403642 -6.639268 -2.576083 0
M  V30 30 C 3.008855 -7.744098 -3.158330 0
M  V30 31 C 2.451321 -8.252408 -4.315879 0
M  V30 32 C 1.313707 -7.648476 -4.856012 0
M  V30 33 F 0.744033 -8.130865 -5.996530 0
M  V30 34 C 0.729974 -6.549934 -4.257859 0
M  V30 35 C 1.629559 -4.049533 -1.669117 0
M  V30 36 N 1.201158 -2.975455 -0.981297 0
M  V30 37 H 3.157290 2.357704 6.751643 0
M  V30 38 H 4.841180 2.653614 7.210298 0
M  V30 39 H 3.982245 3.950987 6.338204 0
M  V30 40 H 5.371896 1.455425 5.399085 0
M  V30 41 H 5.069848 2.980214 4.495358 0
M  V30 42 H 1.473065 0.770959 3.119677 0
M  V30 43 H 0.603561 3.703809 3.275791 0
M  V30 44 H -1.647181 3.384147 3.360220 0
M  V30 45 H -0.966161 2.312774 4.571643 0
M  V30 46 H -1.582374 0.364845 3.553921 0
M  V30 47 H -2.880528 1.488290 2.983915 0
M  V30 48 H -0.387158 0.466229 1.650219 0
M  V30 49 H -1.873098 3.104919 1.361210 0
M  V30 50 H 0.320824 3.943550 1.063135 0
M  V30 51 H 1.005162 2.249939 0.903926 0
M  V30 52 H -0.722595 1.872994 -1.190519 0
M  V30 53 H -1.198978 3.547739 -0.851565 0
M  V30 54 H -3.358644 3.067509 -0.218963 0
M  V30 55 H -2.940293 -0.264729 -1.965459 0
M  V30 56 H -4.643153 -1.851546 -1.482968 0
M  V30 57 H -4.814228 -1.059635 0.117667 0
M  V30 58 H -5.815497 -0.528655 -1.276736 0
M  V30 59 H -4.190450 1.096854 0.488269 0
M  V30 60 H -2.885881 -0.352070 1.528387 0
M  V30 61 H -2.476943 -1.537951 -0.493902 0
M  V30 62 H 0.254287 -0.877186 0.345177 0
M  V30 63 H -2.050493 -3.183929 -1.597837 0
M  V30 64 H -1.285526 -5.178098 -2.879130 0
M  V30 65 H 2.886738 -6.297489 -1.682497 0
M  V30 66 H 3.890781 -8.207158 -2.733925 0
M  V30 67 H 2.896536 -9.118347 -4.803645 0
M  V30 68 H -0.154148 -6.052421 -4.646795 0
M  V30 69 H 2.706262 -4.251029 -1.653731 0
M  V30 END ATOM
M  V30 BEGIN BOND
M  V30 1 1 1 2
M  V30 2 1 2 3
M  V30 3 1 3 4
M  V30 4 2 4 5
M  V30 5 1 4 6
M  V30 6 1 6 7
M  V30 7 1 7 8
M  V30 8 1 8 9
M  V30 9 1 9 10
M  V30 10 1 10 11
M  V30 11 1 11 12
M  V30 12 1 11 13
M  V30 13 1 13 14
M  V30 14 1 14 15
M  V30 15 2 15 16
M  V30 16 1 15 17
M  V30 17 1 17 18
M  V30 18 1 18 19
M  V30 19 1 18 20
M  V30 20 1 20 21
M  V30 21 1 21 22
M  V30 22 2 22 23
M  V30 23 1 23 24
M  V30 24 2 24 25
M  V30 25 1 25 26
M  V30 26 2 26 27
M  V30 27 1 27 28
M  V30 28 2 28 29
M  V30 29 1 29 30
M  V30 30 2 30 31
M  V30 31 1 31 32
M  V30 32 1 32 33
M  V30 33 2 32 34
M  V30 34 1 27 35
M  V30 35 2 35 36
M  V30 36 1 12 7
M  V30 37 1 20 14
M  V30 38 1 36 24
M  V30 39 1 21 10
M  V30 40 1 34 28
M  V30 41 1 1 37
M  V30 42 1 1 38
M  V30 43 1 1 39
M  V30 44 1 2 40
M  V30 45 1 2 41
M  V30 46 1 6 42
M  V30 47 1 7 43 CFG=1
M  V30 48 1 8 44
M  V30 49 1 8 45
M  V30 50 1 9 46
M  V30 51 1 9 47
M  V30 52 1 10 48 CFG=1
M  V30 53 1 11 49 CFG=1
M  V30 54 1 12 50
M  V30 55 1 12 51
M  V30 56 1 13 52
M  V30 57 1 13 53
M  V30 58 1 14 54 CFG=1
M  V30 59 1 18 55 CFG=3
M  V30 60 1 19 56
M  V30 61 1 19 57
M  V30 62 1 19 58
M  V30 63 1 20 59 CFG=1
M  V30 64 1 21 60 CFG=1
M  V30 65 1 22 61
M  V30 66 1 23 62
M  V30 67 1 25 63
M  V30 68 1 26 64
M  V30 69 1 29 65
M  V30 70 1 30 66
M  V30 71 1 31 67
M  V30 72 1 34 68
M  V30 73 1 35 69
M  V30 END BOND
M  V30 END CTAB
M  END
>  <Dataset>  (49) 
OralDrugs

>  <Ligand_Instance>  (49) 
nan

>  <PDB_ID>  (49) 
nan

>  <Standardized_SMILES>  (49) 
CCOC(=O)N[C@@H]1CC[C@@H]2[C@@H](C1)C[C@H]1C(=O)O[C@H](C)[C@H]1[C@H]2/C=C/c1ccc(-c2cccc(F)c2)cn1

>  <Name>  (49) 
Vorapaxar

>  <Pocket>  (49) 
nan

>  <ATP_Site>  (49) 
nan

>  <Peripheral>  (49) 
nan

>  <Num_H_Atoms_ProtBoundConf>  (49) 
nan

>  <Num_Resolved_Atoms>  (49) 
nan

>  <Num_Not_Resolved_Atoms>  (49) 
nan

$$$$
CHEMBL638
     RDKit          3D

  0  0  0  0  0  0  0  0  0  0999 V3000
M  V30 BEGIN CTAB
M  V30 COUNTS 39 41 0 0 0
M  V30 BEGIN ATOM
M  V30 1 C -0.010369 -2.929881 0.587233 0
M  V30 2 C 0.635939 -1.531274 0.580424 0 CFG=1
M  V30 3 C 1.886206 -1.608182 -0.182171 0
M  V30 4 N 3.083674 -1.756234 0.470463 0
M  V30 5 C 4.268867 -1.832779 -0.094130 0
M  V30 6 N 4.417931 -1.770624 -1.407071 0
M  V30 7 C 3.324271 -1.626503 -2.162719 0
M  V30 8 C 2.099808 -1.549919 -1.540398 0
M  V30 9 F 1.044454 -1.420933 -2.351257 0
M  V30 10 C -0.338730 -0.479991 0.266985 0 CFG=2
M  V30 11 O -0.907218 -0.745734 -1.026059 0
M  V30 12 C 0.270282 0.880597 0.043152 0
M  V30 13 N 1.006283 1.505946 1.088680 0
M  V30 14 C 0.744351 2.387612 2.103630 0
M  V30 15 N 1.879200 2.630085 2.803030 0
M  V30 16 C 2.820517 1.899344 2.214019 0
M  V30 17 N 2.296660 1.233047 1.195644 0
M  V30 18 C -1.476170 -0.387038 1.186345 0
M  V30 19 C -2.794705 -0.419634 0.703440 0
M  V30 20 C -3.953295 -0.294354 1.434584 0
M  V30 21 C -3.810357 -0.116862 2.792711 0
M  V30 22 F -4.913317 0.011304 3.547573 0
M  V30 23 C -2.565039 -0.069488 3.381149 0
M  V30 24 C -1.481601 -0.207381 2.549391 0
M  V30 25 F -0.280818 -0.222976 3.172627 0
M  V30 26 H -0.886240 -2.991496 1.231418 0
M  V30 27 H -0.237039 -3.266105 -0.439555 0
M  V30 28 H 0.731024 -3.655089 1.034270 0
M  V30 29 H 0.963248 -1.430559 1.669298 0
M  V30 30 H 5.164044 -1.950164 0.510119 0
M  V30 31 H 3.416756 -1.573233 -3.232138 0
M  V30 32 H -1.348972 -1.641457 -0.994916 0
M  V30 33 H 0.876365 0.848544 -0.925710 0
M  V30 34 H -0.529327 1.629171 -0.237886 0
M  V30 35 H -0.297696 2.728110 2.167968 0
M  V30 36 H 3.843333 1.907345 2.580226 0
M  V30 37 H -2.964295 -0.559464 -0.377140 0
M  V30 38 H -4.925015 -0.333014 0.968904 0
M  V30 39 H -2.466045 0.068461 4.433981 0
M  V30 END ATOM
M  V30 BEGIN BOND
M  V30 1 1 1 2
M  V30 2 1 2 3
M  V30 3 2 3 4
M  V30 4 1 4 5
M  V30 5 2 5 6
M  V30 6 1 6 7
M  V30 7 2 7 8
M  V30 8 1 8 9
M  V30 9 1 2 10
M  V30 10 1 10 11 CFG=3
M  V30 11 1 10 12
M  V30 12 1 12 13
M  V30 13 1 13 14
M  V30 14 2 14 15
M  V30 15 1 15 16
M  V30 16 2 16 17
M  V30 17 1 10 18
M  V30 18 2 18 19
M  V30 19 1 19 20
M  V30 20 2 20 21
M  V30 21 1 21 22
M  V30 22 1 21 23
M  V30 23 2 23 24
M  V30 24 1 24 25
M  V30 25 1 8 3
M  V30 26 1 17 13
M  V30 27 1 24 18
M  V30 28 1 1 26
M  V30 29 1 1 27
M  V30 30 1 1 28
M  V30 31 1 2 29 CFG=1
M  V30 32 1 5 30
M  V30 33 1 7 31
M  V30 34 1 11 32
M  V30 35 1 12 33
M  V30 36 1 12 34
M  V30 37 1 14 35
M  V30 38 1 16 36
M  V30 39 1 19 37
M  V30 40 1 20 38
M  V30 41 1 23 39
M  V30 END BOND
M  V30 END CTAB
M  END
>  <Dataset>  (50) 
OralDrugs

>  <Ligand_Instance>  (50) 
nan

>  <PDB_ID>  (50) 
nan

>  <Standardized_SMILES>  (50) 
C[C@@H](c1ncncc1F)[C@](O)(Cn1cncn1)c1ccc(F)cc1F

>  <Name>  (50) 
Voriconazole

>  <Pocket>  (50) 
nan

>  <ATP_Site>  (50) 
nan

>  <Peripheral>  (50) 
nan

>  <Num_H_Atoms_ProtBoundConf>  (50) 
nan

>  <Num_Resolved_Atoms>  (50) 
nan

>  <Num_Not_Resolved_Atoms>  (50) 
nan

$$$$
CHEMBL98
     RDKit          3D

  0  0  0  0  0  0  0  0  0  0999 V3000
M  V30 BEGIN CTAB
M  V30 COUNTS 39 39 0 0 0
M  V30 BEGIN ATOM
M  V30 1 O -2.582579 -4.954122 2.657457 0
M  V30 2 C -2.260399 -4.109898 3.534378 0
M  V30 3 C -1.549862 -2.831046 3.501677 0
M  V30 4 C -1.092889 -2.416843 2.103043 0
M  V30 5 C -0.175927 -3.383127 1.483938 0
M  V30 6 C 0.216744 -3.085396 0.094743 0
M  V30 7 C 0.898494 -1.848753 -0.294000 0
M  V30 8 C 0.255208 -0.531992 -0.195313 0
M  V30 9 C 1.274829 0.492390 -0.699446 0
M  V30 10 O 2.449632 0.309673 -1.127952 0
M  V30 11 N 0.732318 1.806592 -0.639032 0
M  V30 12 C 1.391864 2.989915 -1.023316 0
M  V30 13 C 1.377259 3.562393 -2.290450 0
M  V30 14 C 2.070987 4.727212 -2.524553 0
M  V30 15 C 2.796113 5.374444 -1.554074 0
M  V30 16 C 2.813457 4.812359 -0.300214 0
M  V30 17 C 2.129188 3.651919 -0.044789 0
M  V30 18 N -2.685318 -4.491061 4.848029 0
M  V30 19 O -3.364115 -5.669888 5.023982 0
M  V30 20 H -2.155020 -1.978163 3.880313 0
M  V30 21 H -0.665222 -2.891223 4.166097 0
M  V30 22 H -0.461001 -1.496346 2.342786 0
M  V30 23 H -1.887416 -2.093622 1.445859 0
M  V30 24 H -0.596625 -4.432122 1.493983 0
M  V30 25 H 0.792005 -3.477216 2.065222 0
M  V30 26 H -0.657084 -3.312399 -0.605745 0
M  V30 27 H 0.927663 -3.943139 -0.220876 0
M  V30 28 H 1.275602 -1.929122 -1.377716 0
M  V30 29 H 1.911364 -1.747642 0.245112 0
M  V30 30 H -0.217047 -0.182393 0.691127 0
M  V30 31 H -0.543150 -0.458961 -1.009523 0
M  V30 32 H -0.215462 2.094906 -0.309093 0
M  V30 33 H 0.800893 3.037429 -3.039438 0
M  V30 34 H 2.044225 5.158233 -3.529676 0
M  V30 35 H 3.309645 6.279996 -1.819624 0
M  V30 36 H 3.390672 5.338149 0.449771 0
M  V30 37 H 2.190965 3.266184 0.977277 0
M  V30 38 H -2.569256 -4.009016 5.764125 0
M  V30 39 H -2.783793 -6.269107 5.582024 0
M  V30 END ATOM
M  V30 BEGIN BOND
M  V30 1 2 1 2
M  V30 2 1 2 3
M  V30 3 1 3 4
M  V30 4 1 4 5
M  V30 5 1 5 6
M  V30 6 1 6 7
M  V30 7 1 7 8
M  V30 8 1 8 9
M  V30 9 2 9 10
M  V30 10 1 9 11
M  V30 11 1 11 12
M  V30 12 2 12 13
M  V30 13 1 13 14
M  V30 14 2 14 15
M  V30 15 1 15 16
M  V30 16 2 16 17
M  V30 17 1 2 18
M  V30 18 1 18 19
M  V30 19 1 17 12
M  V30 20 1 3 20
M  V30 21 1 3 21
M  V30 22 1 4 22
M  V30 23 1 4 23
M  V30 24 1 5 24
M  V30 25 1 5 25
M  V30 26 1 6 26
M  V30 27 1 6 27
M  V30 28 1 7 28
M  V30 29 1 7 29
M  V30 30 1 8 30
M  V30 31 1 8 31
M  V30 32 1 11 32
M  V30 33 1 13 33
M  V30 34 1 14 34
M  V30 35 1 15 35
M  V30 36 1 16 36
M  V30 37 1 17 37
M  V30 38 1 18 38
M  V30 39 1 19 39
M  V30 END BOND
M  V30 END CTAB
M  END
>  <Dataset>  (51) 
OralDrugs

>  <Ligand_Instance>  (51) 
nan

>  <PDB_ID>  (51) 
nan

>  <Standardized_SMILES>  (51) 
O=C(CCCCCCC(=O)Nc1ccccc1)NO

>  <Name>  (51) 
Vorinostat

>  <Pocket>  (51) 
nan

>  <ATP_Site>  (51) 
nan

>  <Peripheral>  (51) 
nan

>  <Num_H_Atoms_ProtBoundConf>  (51) 
nan

>  <Num_Resolved_Atoms>  (51) 
nan

>  <Num_Not_Resolved_Atoms>  (51) 
nan

$$$$
CHEMBL2104993
     RDKit          3D

  0  0  0  0  0  0  0  0  0  0999 V3000
M  V30 BEGIN CTAB
M  V30 COUNTS 43 45 0 0 0
M  V30 BEGIN ATOM
M  V30 1 C -1.623946 -4.584211 3.830734 0
M  V30 2 C -1.213773 -3.811847 2.627492 0
M  V30 3 C -1.544186 -2.456050 2.568204 0
M  V30 4 C -1.164574 -1.739861 1.453830 0
M  V30 5 C -0.466441 -2.305292 0.383422 0
M  V30 6 S -0.089122 -1.191080 -0.933471 0
M  V30 7 C 1.492270 -0.379344 -0.706724 0
M  V30 8 C 2.609713 -1.001359 -1.237596 0
M  V30 9 C 3.899059 -0.485657 -1.137187 0
M  V30 10 C 4.034539 0.718529 -0.461897 0
M  V30 11 C 2.945740 1.352000 0.071207 0
M  V30 12 C 1.655099 0.827968 -0.033820 0
M  V30 13 N 0.490192 1.445553 0.501799 0
M  V30 14 C -0.683857 1.883287 -0.267284 0
M  V30 15 C -1.007333 3.311207 0.100561 0
M  V30 16 N 0.013474 3.964939 0.878076 0
M  V30 17 C 0.420059 3.242273 2.055995 0
M  V30 18 C 0.282691 1.743293 1.927228 0
M  V30 19 C -0.154535 -3.642937 0.469440 0
M  V30 20 C 0.583034 -4.193240 -0.685855 0
M  V30 21 C -0.524449 -4.382704 1.577121 0
M  V30 22 H -1.436503 -4.019472 4.785461 0
M  V30 23 H -2.700552 -4.856432 3.792994 0
M  V30 24 H -0.992361 -5.492258 3.920338 0
M  V30 25 H -2.081991 -2.024655 3.394988 0
M  V30 26 H -1.461948 -0.697535 1.492983 0
M  V30 27 H 2.511824 -1.955563 -1.774136 0
M  V30 28 H 4.739380 -0.998323 -1.562364 0
M  V30 29 H 4.995909 1.175856 -0.344938 0
M  V30 30 H 3.053984 2.281668 0.592023 0
M  V30 31 H -0.589196 1.691448 -1.335801 0
M  V30 32 H -1.525738 1.265915 0.113860 0
M  V30 33 H -1.984663 3.415868 0.616986 0
M  V30 34 H -1.090191 3.874055 -0.852327 0
M  V30 35 H 0.808146 4.342648 0.322783 0
M  V30 36 H 1.500958 3.487876 2.259179 0
M  V30 37 H -0.148380 3.645950 2.924659 0
M  V30 38 H -0.736956 1.468037 2.254195 0
M  V30 39 H 1.076341 1.279274 2.553665 0
M  V30 40 H 0.117728 -3.914687 -1.633607 0
M  V30 41 H 1.655743 -3.921980 -0.696600 0
M  V30 42 H 0.573570 -5.310558 -0.530168 0
M  V30 43 H -0.263793 -5.431983 1.613344 0
M  V30 END ATOM
M  V30 BEGIN BOND
M  V30 1 1 1 2
M  V30 2 2 2 3
M  V30 3 1 3 4
M  V30 4 2 4 5
M  V30 5 1 5 6
M  V30 6 1 6 7
M  V30 7 2 7 8
M  V30 8 1 8 9
M  V30 9 2 9 10
M  V30 10 1 10 11
M  V30 11 2 11 12
M  V30 12 1 12 13
M  V30 13 1 13 14
M  V30 14 1 14 15
M  V30 15 1 15 16
M  V30 16 1 16 17
M  V30 17 1 17 18
M  V30 18 1 5 19
M  V30 19 1 19 20
M  V30 20 2 19 21
M  V30 21 1 21 2
M  V30 22 1 12 7
M  V30 23 1 18 13
M  V30 24 1 1 22
M  V30 25 1 1 23
M  V30 26 1 1 24
M  V30 27 1 3 25
M  V30 28 1 4 26
M  V30 29 1 8 27
M  V30 30 1 9 28
M  V30 31 1 10 29
M  V30 32 1 11 30
M  V30 33 1 14 31
M  V30 34 1 14 32
M  V30 35 1 15 33
M  V30 36 1 15 34
M  V30 37 1 16 35
M  V30 38 1 17 36
M  V30 39 1 17 37
M  V30 40 1 18 38
M  V30 41 1 18 39
M  V30 42 1 20 40
M  V30 43 1 20 41
M  V30 44 1 20 42
M  V30 45 1 21 43
M  V30 END BOND
M  V30 END CTAB
M  END
>  <Dataset>  (52) 
OralDrugs

>  <Ligand_Instance>  (52) 
nan

>  <PDB_ID>  (52) 
nan

>  <Standardized_SMILES>  (52) 
Cc1ccc(Sc2ccccc2N2CCNCC2)c(C)c1

>  <Name>  (52) 
Vortioxetine

>  <Pocket>  (52) 
nan

>  <ATP_Site>  (52) 
nan

>  <Peripheral>  (52) 
nan

>  <Num_H_Atoms_ProtBoundConf>  (52) 
nan

>  <Num_Resolved_Atoms>  (52) 
nan

>  <Num_Not_Resolved_Atoms>  (52) 
nan

$$$$
CHEMBL4101807
     RDKit          3D

  0  0  0  0  0  0  0  0  0  0999 V3000
M  V30 BEGIN CTAB
M  V30 COUNTS 44 46 0 0 0
M  V30 BEGIN ATOM
M  V30 1 C 4.139158 -2.844039 0.893224 0
M  V30 2 C 2.876651 -1.997904 1.158942 0
M  V30 3 C 2.149996 -2.733984 2.239616 0
M  V30 4 N 2.151000 -1.900732 -0.066114 0
M  V30 5 N 1.860655 -2.985973 -0.745532 0
M  V30 6 C 1.205003 -2.645453 -1.894388 0
M  V30 7 C 1.152293 -1.271765 -1.799684 0
M  V30 8 C 1.750966 -0.754410 -0.633904 0
M  V30 9 C 1.766069 0.671833 -0.480605 0
M  V30 10 N 2.290122 1.358304 -1.539365 0
M  V30 11 C 2.391886 2.689955 -1.596601 0
M  V30 12 C 1.939388 3.416403 -0.518905 0
M  V30 13 C 1.415724 2.718290 0.535066 0
M  V30 14 C 1.297236 1.320300 0.618127 0
M  V30 15 C 0.645947 0.879704 1.859815 0
M  V30 16 O -0.672406 0.621485 1.872738 0
M  V30 17 C -1.657027 -0.107141 1.411219 0
M  V30 18 C -1.842271 -1.152956 0.541159 0
M  V30 19 C -3.022997 -1.772400 0.210937 0
M  V30 20 C -4.131233 -1.262291 0.842883 0
M  V30 21 C -4.097295 -0.216089 1.740225 0
M  V30 22 O -5.312946 0.167252 2.281611 0
M  V30 23 C -2.845382 0.352456 2.014240 0
M  V30 24 C -3.003350 1.456295 2.994288 0
M  V30 25 O -1.946269 2.058411 3.314736 0
M  V30 26 H 3.724516 -3.868876 0.674022 0
M  V30 27 H 4.559230 -2.477193 -0.058420 0
M  V30 28 H 4.817882 -2.858319 1.741013 0
M  V30 29 H 3.276490 -1.010566 1.487101 0
M  V30 30 H 2.385944 -3.810014 2.223580 0
M  V30 31 H 1.049726 -2.625348 2.230118 0
M  V30 32 H 2.540893 -2.333807 3.220873 0
M  V30 33 H 0.846253 -3.328252 -2.644902 0
M  V30 34 H 0.654047 -0.751329 -2.636516 0
M  V30 35 H 2.825083 3.162191 -2.481744 0
M  V30 36 H 2.020546 4.489118 -0.559940 0
M  V30 37 H 1.086625 3.384752 1.335654 0
M  V30 38 H 0.881451 1.618293 2.703513 0
M  V30 39 H 1.255487 -0.004968 2.204859 0
M  V30 40 H -0.909119 -1.466276 0.123637 0
M  V30 41 H -2.990137 -2.586209 -0.497554 0
M  V30 42 H -5.067555 -1.740971 0.590872 0
M  V30 43 H -5.963357 -0.477877 2.718681 0
M  V30 44 H -2.097040 1.949279 3.249010 0
M  V30 END ATOM
M  V30 BEGIN BOND
M  V30 1 1 1 2
M  V30 2 1 2 3
M  V30 3 1 2 4
M  V30 4 1 4 5
M  V30 5 2 5 6
M  V30 6 1 6 7
M  V30 7 2 7 8
M  V30 8 1 8 9
M  V30 9 2 9 10
M  V30 10 1 10 11
M  V30 11 2 11 12
M  V30 12 1 12 13
M  V30 13 2 13 14
M  V30 14 1 14 15
M  V30 15 1 15 16
M  V30 16 1 16 17
M  V30 17 2 17 18
M  V30 18 1 18 19
M  V30 19 2 19 20
M  V30 20 1 20 21
M  V30 21 1 21 22
M  V30 22 2 21 23
M  V30 23 1 23 24
M  V30 24 2 24 25
M  V30 25 1 8 4
M  V30 26 1 14 9
M  V30 27 1 23 17
M  V30 28 1 1 26
M  V30 29 1 1 27
M  V30 30 1 1 28
M  V30 31 1 2 29
M  V30 32 1 3 30
M  V30 33 1 3 31
M  V30 34 1 3 32
M  V30 35 1 6 33
M  V30 36 1 7 34
M  V30 37 1 11 35
M  V30 38 1 12 36
M  V30 39 1 13 37
M  V30 40 1 15 38
M  V30 41 1 15 39
M  V30 42 1 18 40
M  V30 43 1 19 41
M  V30 44 1 20 42
M  V30 45 1 22 43
M  V30 46 1 24 44
M  V30 END BOND
M  V30 END CTAB
M  END
>  <Dataset>  (53) 
OralDrugs

>  <Ligand_Instance>  (53) 
nan

>  <PDB_ID>  (53) 
nan

>  <Standardized_SMILES>  (53) 
CC(C)n1nccc1-c1ncccc1COc1cccc(O)c1C=O

>  <Name>  (53) 
Voxelotor

>  <Pocket>  (53) 
nan

>  <ATP_Site>  (53) 
nan

>  <Peripheral>  (53) 
nan

>  <Num_H_Atoms_ProtBoundConf>  (53) 
nan

>  <Num_Resolved_Atoms>  (53) 
nan

>  <Num_Not_Resolved_Atoms>  (53) 
nan

$$$$
CHEMBL3707372
     RDKit          3D

  0  0  0  0  0  0  0  0  0  0999 V3000
M  V30 BEGIN CTAB
M  V30 COUNTS 118 124 0 0 0
M  V30 BEGIN ATOM
M  V30 1 C -4.347513 -2.003263 0.168156 0
M  V30 2 C -2.924950 -1.578631 0.462440 0
M  V30 3 C -2.011432 -1.345895 -0.659141 0 CFG=2
M  V30 4 C -2.039320 -2.739915 -1.284473 0 CFG=2
M  V30 5 C -1.016603 -3.375555 -0.289949 0
M  V30 6 N -0.554384 -2.273816 0.547899 0
M  V30 7 C -0.298111 -2.123557 1.890836 0
M  V30 8 O -0.209154 -3.328182 2.158914 0
M  V30 9 C -0.125131 -0.982837 2.890365 0 CFG=2
M  V30 10 C -0.269311 -1.408302 4.284057 0
M  V30 11 C -0.068038 -0.164926 5.152881 0
M  V30 12 C 0.884259 -2.340888 4.600135 0
M  V30 13 C -1.496078 -2.119722 4.704681 0
M  V30 14 N -0.658202 0.226854 2.404385 0
M  V30 15 C -1.188081 1.431399 1.920474 0
M  V30 16 O -0.217889 2.027754 1.693878 0
M  V30 17 O -2.394466 1.882176 1.721756 0
M  V30 18 C -3.047222 2.961507 1.264233 0 CFG=2
M  V30 19 C -4.488113 3.091933 1.068189 0
M  V30 20 C -3.719882 2.524863 -0.064710 0 CFG=1
M  V30 21 C -3.341614 3.305675 -1.240839 0
M  V30 22 C -3.305209 2.720340 -2.596544 0
M  V30 23 C -4.473672 2.089483 -3.198395 0
M  V30 24 C -4.939797 0.730220 -2.906197 0
M  V30 25 C -4.287135 -0.438060 -3.494410 0
M  V30 26 F -4.792605 -1.608823 -2.966828 0
M  V30 27 F -4.934810 -0.521092 -4.801006 0
M  V30 28 C -2.870767 -0.575289 -3.746996 0
M  V30 29 N -2.526301 0.398115 -4.608365 0
M  V30 30 C -1.313947 0.639579 -5.133688 0
M  V30 31 C -1.102457 1.705346 -6.028531 0
M  V30 32 C 0.189135 1.890225 -6.529694 0
M  V30 33 C 1.209832 1.051631 -6.151895 0
M  V30 34 O 2.411537 1.367120 -6.730592 0
M  V30 35 C 3.611289 0.690087 -6.528668 0
M  V30 36 C 0.919660 0.042405 -5.279016 0
M  V30 37 C -0.310085 -0.212802 -4.740723 0
M  V30 38 N -0.627770 -1.188445 -3.885599 0
M  V30 39 C -1.851323 -1.429756 -3.357396 0
M  V30 40 O -1.610054 -2.537653 -2.557355 0
M  V30 41 C -0.568423 -1.355048 -0.485420 0 CFG=2
M  V30 42 C 0.329647 -0.228423 -0.553353 0
M  V30 43 O 0.240597 0.865833 -1.137041 0
M  V30 44 N 1.541267 -0.404440 0.175066 0
M  V30 45 C 2.608322 0.565087 0.263380 0 CFG=2
M  V30 46 C 3.705681 0.125875 1.160892 0
M  V30 47 O 3.439398 -1.085214 1.230483 0
M  V30 48 N 4.742326 0.779248 1.777652 0
M  V30 49 S 6.064816 0.580462 2.798107 0
M  V30 50 O 7.368787 1.009930 2.111594 0
M  V30 51 O 5.900288 1.575437 3.956748 0
M  V30 52 C 6.368348 -1.009146 3.450898 0
M  V30 53 C 7.615165 -1.068521 4.356443 0
M  V30 54 C 6.222915 -2.216864 2.511507 0
M  V30 55 C 5.324849 -2.036283 3.668892 0
M  V30 56 C 2.516066 1.955562 -0.097853 0
M  V30 57 C 3.043054 1.037589 -1.138132 0 CFG=1
M  V30 58 C 4.491272 0.949943 -1.484345 0
M  V30 59 C 4.928447 -0.495576 -1.401601 0
M  V30 60 C 4.752166 1.391418 -2.922579 0
M  V30 61 H -4.922219 -2.040744 1.165211 0
M  V30 62 H -4.489989 -3.043407 -0.158825 0
M  V30 63 H -4.928233 -1.235790 -0.359407 0
M  V30 64 H -3.111376 -0.694233 1.109136 0
M  V30 65 H -2.584191 -2.373303 1.123952 0
M  V30 66 H -2.286108 -0.569901 -1.370614 0
M  V30 67 H -2.960028 -3.265347 -1.296602 0
M  V30 68 H -0.187967 -3.705984 -0.918325 0
M  V30 69 H -1.483006 -4.179104 0.273709 0
M  V30 70 H 0.979802 -0.811714 2.841308 0
M  V30 71 H 0.199570 -0.437996 6.192464 0
M  V30 72 H -0.987153 0.454937 5.222459 0
M  V30 73 H 0.820509 0.420063 4.788896 0
M  V30 74 H 1.158872 -2.177788 5.668925 0
M  V30 75 H 1.755529 -1.993777 4.001909 0
M  V30 76 H 0.616113 -3.402832 4.424418 0
M  V30 77 H -1.339167 -2.726989 5.626265 0
M  V30 78 H -1.971394 -2.780813 3.995685 0
M  V30 79 H -2.245687 -1.349466 4.991127 0
M  V30 80 H -1.533244 -0.260969 2.671298 0
M  V30 81 H -2.432041 3.863778 1.078207 0
M  V30 82 H -5.126493 2.427552 1.668018 0
M  V30 83 H -4.875670 4.098308 0.927742 0
M  V30 84 H -3.854524 1.460069 -0.229209 0
M  V30 85 H -4.083494 4.173098 -1.293655 0
M  V30 86 H -2.381763 3.861577 -0.992773 0
M  V30 87 H -3.056353 3.607964 -3.277953 0
M  V30 88 H -2.340889 2.155313 -2.636673 0
M  V30 89 H -4.294479 2.118639 -4.328769 0
M  V30 90 H -5.318111 2.860616 -3.122112 0
M  V30 91 H -6.009595 0.728043 -3.337591 0
M  V30 92 H -5.226772 0.619913 -1.832428 0
M  V30 93 H -1.958391 2.299381 -6.258980 0
M  V30 94 H 0.203859 2.739901 -7.198888 0
M  V30 95 H 3.525233 -0.295402 -6.036231 0
M  V30 96 H 4.146946 0.534980 -7.489072 0
M  V30 97 H 4.339466 1.280660 -5.905901 0
M  V30 98 H 1.739619 -0.604753 -4.997205 0
M  V30 99 H -0.037685 -1.943466 -1.367715 0
M  V30 100 H 1.669446 -1.339691 0.675833 0
M  V30 101 H 4.689262 1.801118 1.504797 0
M  V30 102 H 8.465612 -1.493692 3.791096 0
M  V30 103 H 7.901405 -0.070680 4.713839 0
M  V30 104 H 7.379232 -1.746761 5.207401 0
M  V30 105 H 5.959180 -2.004619 1.471685 0
M  V30 106 H 7.027943 -2.989628 2.573490 0
M  V30 107 H 4.269723 -1.801161 3.641002 0
M  V30 108 H 5.550955 -2.750853 4.523497 0
M  V30 109 H 3.307602 2.642270 0.293168 0
M  V30 110 H 1.598495 2.551614 -0.275061 0
M  V30 111 H 2.391526 0.815096 -2.006400 0
M  V30 112 H 5.166918 1.508457 -0.812634 0
M  V30 113 H 4.080733 -1.216260 -1.409987 0
M  V30 114 H 5.519925 -0.702298 -0.487393 0
M  V30 115 H 5.528668 -0.795584 -2.317359 0
M  V30 116 H 4.189788 0.721423 -3.597499 0
M  V30 117 H 4.569260 2.455720 -3.076242 0
M  V30 118 H 5.835614 1.187869 -3.098565 0
M  V30 END ATOM
M  V30 BEGIN BOND
M  V30 1 1 1 2
M  V30 2 1 2 3
M  V30 3 1 3 4
M  V30 4 1 4 5
M  V30 5 1 5 6
M  V30 6 1 6 7
M  V30 7 2 7 8
M  V30 8 1 7 9
M  V30 9 1 9 10
M  V30 10 1 10 11
M  V30 11 1 10 12
M  V30 12 1 10 13
M  V30 13 1 9 14
M  V30 14 1 14 15
M  V30 15 2 15 16
M  V30 16 1 15 17
M  V30 17 1 17 18
M  V30 18 1 18 19
M  V30 19 1 19 20
M  V30 20 1 20 21
M  V30 21 1 21 22
M  V30 22 1 22 23
M  V30 23 1 23 24
M  V30 24 1 24 25
M  V30 25 1 25 26
M  V30 26 1 25 27
M  V30 27 1 25 28
M  V30 28 2 28 29
M  V30 29 1 29 30
M  V30 30 2 30 31
M  V30 31 1 31 32
M  V30 32 2 32 33
M  V30 33 1 33 34
M  V30 34 1 34 35
M  V30 35 1 33 36
M  V30 36 2 36 37
M  V30 37 1 37 38
M  V30 38 2 38 39
M  V30 39 1 39 40
M  V30 40 1 6 41
M  V30 41 1 41 42
M  V30 42 2 42 43
M  V30 43 1 42 44
M  V30 44 1 45 44 CFG=3
M  V30 45 1 45 46
M  V30 46 2 46 47
M  V30 47 1 46 48
M  V30 48 1 48 49
M  V30 49 2 49 50
M  V30 50 2 49 51
M  V30 51 1 49 52
M  V30 52 1 52 53
M  V30 53 1 52 54
M  V30 54 1 54 55
M  V30 55 1 45 56
M  V30 56 1 56 57
M  V30 57 1 57 58
M  V30 58 1 58 59
M  V30 59 1 58 60
M  V30 60 1 41 3
M  V30 61 1 57 45
M  V30 62 1 40 4
M  V30 63 1 55 52
M  V30 64 1 20 18
M  V30 65 1 39 28
M  V30 66 1 37 30
M  V30 67 1 1 61
M  V30 68 1 1 62
M  V30 69 1 1 63
M  V30 70 1 2 64
M  V30 71 1 2 65
M  V30 72 1 3 66 CFG=3
M  V30 73 1 4 67 CFG=3
M  V30 74 1 5 68
M  V30 75 1 5 69
M  V30 76 1 9 70 CFG=1
M  V30 77 1 11 71
M  V30 78 1 11 72
M  V30 79 1 11 73
M  V30 80 1 12 74
M  V30 81 1 12 75
M  V30 82 1 12 76
M  V30 83 1 13 77
M  V30 84 1 13 78
M  V30 85 1 13 79
M  V30 86 1 14 80
M  V30 87 1 18 81 CFG=3
M  V30 88 1 19 82
M  V30 89 1 19 83
M  V30 90 1 20 84 CFG=3
M  V30 91 1 21 85
M  V30 92 1 21 86
M  V30 93 1 22 87
M  V30 94 1 22 88
M  V30 95 1 23 89
M  V30 96 1 23 90
M  V30 97 1 24 91
M  V30 98 1 24 92
M  V30 99 1 31 93
M  V30 100 1 32 94
M  V30 101 1 35 95
M  V30 102 1 35 96
M  V30 103 1 35 97
M  V30 104 1 36 98
M  V30 105 1 41 99 CFG=3
M  V30 106 1 44 100
M  V30 107 1 48 101
M  V30 108 1 53 102
M  V30 109 1 53 103
M  V30 110 1 53 104
M  V30 111 1 54 105
M  V30 112 1 54 106
M  V30 113 1 55 107
M  V30 114 1 55 108
M  V30 115 1 56 109
M  V30 116 1 56 110
M  V30 117 1 57 111 CFG=3
M  V30 118 1 58 112
M  V30 119 1 59 113
M  V30 120 1 59 114
M  V30 121 1 59 115
M  V30 122 1 60 116
M  V30 123 1 60 117
M  V30 124 1 60 118
M  V30 END BOND
M  V30 END CTAB
M  END
>  <Dataset>  (54) 
OralDrugs

>  <Ligand_Instance>  (54) 
nan

>  <PDB_ID>  (54) 
nan

>  <Standardized_SMILES>  (54) 
CC[C@@H]1[C@@H]2CN(C(=O)[C@H](C(C)(C)C)NC(=O)O[C@@H]3C[C@H]3CCCCC(F)(F)c3nc4ccc(OC)cc4nc3O2)[C@@H]1C(=O)N[C@]1(C(=O)NS(=O)(=O)C2(C)CC2)C[C@H]1C(C)C

>  <Name>  (54) 
Voxilaprevir

>  <Pocket>  (54) 
nan

>  <ATP_Site>  (54) 
nan

>  <Peripheral>  (54) 
nan

>  <Num_H_Atoms_ProtBoundConf>  (54) 
nan

>  <Num_Resolved_Atoms>  (54) 
nan

>  <Num_Not_Resolved_Atoms>  (54) 
nan

$$$$
CHEMBL1464
     RDKit          3D

  0  0  0  0  0  0  0  0  0  0999 V3000
M  V30 BEGIN CTAB
M  V30 COUNTS 39 41 0 0 0
M  V30 BEGIN ATOM
M  V30 1 C 1.770099 -3.015500 -1.703345 0
M  V30 2 C 1.923219 -2.335453 -0.362810 0
M  V30 3 O 1.719768 -3.209914 0.462600 0
M  V30 4 C 2.256051 -0.891475 -0.371833 0
M  V30 5 C 1.132143 0.051287 -0.137930 0
M  V30 6 C 0.045093 -0.112917 -1.158849 0
M  V30 7 C -0.757364 -1.233293 -1.202951 0
M  V30 8 C -1.757039 -1.420907 -2.136722 0
M  V30 9 C -1.961245 -0.428950 -3.076456 0
M  V30 10 C -1.192879 0.718208 -3.087254 0
M  V30 11 C -0.225315 0.827136 -2.131158 0
M  V30 12 C 0.598535 0.188807 1.198517 0
M  V30 13 C 1.008008 -0.237454 2.442615 0
M  V30 14 O 2.194652 -0.937151 2.405297 0
M  V30 15 C 0.306504 0.011291 3.601588 0
M  V30 16 C 0.849158 -0.483325 4.768168 0
M  V30 17 C 0.183663 -0.259926 5.954888 0
M  V30 18 C -1.008411 0.455177 5.930123 0
M  V30 19 C -1.520476 0.935315 4.740076 0
M  V30 20 C -0.877360 0.727508 3.539497 0
M  V30 21 O -1.258528 1.130132 2.348443 0
M  V30 22 C -0.607956 0.903554 1.241520 0
M  V30 23 O -1.280307 1.441256 0.313888 0
M  V30 24 H 0.833624 -3.588373 -1.730698 0
M  V30 25 H 2.644719 -3.656255 -1.918344 0
M  V30 26 H 1.748593 -2.256184 -2.504993 0
M  V30 27 H 2.683328 -0.626712 -1.386714 0
M  V30 28 H 3.133512 -0.687551 0.310397 0
M  V30 29 H 1.580547 1.085876 -0.375675 0
M  V30 30 H -0.636328 -2.036211 -0.480823 0
M  V30 31 H -2.356324 -2.325086 -2.120875 0
M  V30 32 H -2.747834 -0.580260 -3.808670 0
M  V30 33 H -1.353283 1.499561 -3.827796 0
M  V30 34 H 0.370932 1.744737 -2.158914 0
M  V30 35 H 2.982741 -0.623037 2.942347 0
M  V30 36 H 1.761909 -1.038051 4.845183 0
M  V30 37 H 0.500362 -0.592710 6.933588 0
M  V30 38 H -1.650817 0.715208 6.782704 0
M  V30 39 H -2.448730 1.500839 4.667484 0
M  V30 END ATOM
M  V30 BEGIN BOND
M  V30 1 1 1 2
M  V30 2 2 2 3
M  V30 3 1 2 4
M  V30 4 1 4 5
M  V30 5 1 5 6
M  V30 6 2 6 7
M  V30 7 1 7 8
M  V30 8 2 8 9
M  V30 9 1 9 10
M  V30 10 2 10 11
M  V30 11 1 5 12
M  V30 12 2 12 13
M  V30 13 1 13 14
M  V30 14 1 13 15
M  V30 15 2 15 16
M  V30 16 1 16 17
M  V30 17 2 17 18
M  V30 18 1 18 19
M  V30 19 2 19 20
M  V30 20 1 20 21
M  V30 21 1 21 22
M  V30 22 2 22 23
M  V30 23 1 11 6
M  V30 24 1 22 12
M  V30 25 1 20 15
M  V30 26 1 1 24
M  V30 27 1 1 25
M  V30 28 1 1 26
M  V30 29 1 4 27
M  V30 30 1 4 28
M  V30 31 1 5 29
M  V30 32 1 7 30
M  V30 33 1 8 31
M  V30 34 1 9 32
M  V30 35 1 10 33
M  V30 36 1 11 34
M  V30 37 1 14 35
M  V30 38 1 16 36
M  V30 39 1 17 37
M  V30 40 1 18 38
M  V30 41 1 19 39
M  V30 END BOND
M  V30 END CTAB
M  END
>  <Dataset>  (55) 
OralDrugs

>  <Ligand_Instance>  (55) 
nan

>  <PDB_ID>  (55) 
nan

>  <Standardized_SMILES>  (55) 
CC(=O)CC(c1ccccc1)c1c(O)c2ccccc2oc1=O

>  <Name>  (55) 
Warfarin

>  <Pocket>  (55) 
nan

>  <ATP_Site>  (55) 
nan

>  <Peripheral>  (55) 
nan

>  <Num_H_Atoms_ProtBoundConf>  (55) 
nan

>  <Num_Resolved_Atoms>  (55) 
nan

>  <Num_Not_Resolved_Atoms>  (55) 
nan

$$$$
CHEMBL502135
     RDKit          3D

  0  0  0  0  0  0  0  0  0  0999 V3000
M  V30 BEGIN CTAB
M  V30 COUNTS 20 20 0 0 0
M  V30 BEGIN ATOM
M  V30 1 O -2.144844 -0.617220 1.074832 0
M  V30 2 C -0.790384 -0.400024 1.125027 0
M  V30 3 O -0.104930 -1.559363 1.447284 0
M  V30 4 C 1.253181 -1.408508 1.366548 0
M  V30 5 C 1.713441 0.020135 1.315893 0 CFG=1
M  V30 6 O 3.080624 0.052717 1.145835 0
M  V30 7 C 1.109203 0.705340 0.112629 0 CFG=2
M  V30 8 O 0.976263 2.056889 0.395441 0
M  V30 9 C -0.234414 0.069319 -0.214962 0 CFG=1
M  V30 10 O -0.063474 -1.062951 -1.011152 0
M  V30 11 H -2.650530 0.217609 1.317253 0
M  V30 12 H -0.574415 0.335123 1.914716 0
M  V30 13 H 1.677424 -1.925561 0.480409 0
M  V30 14 H 1.713524 -1.914018 2.247799 0
M  V30 15 H 1.428341 0.524911 2.258376 0
M  V30 16 H 3.534434 -0.809596 1.257273 0
M  V30 17 H 1.765585 0.546685 -0.758432 0
M  V30 18 H 0.999432 2.579134 -0.451450 0
M  V30 19 H -0.935978 0.797349 -0.660513 0
M  V30 20 H -0.192388 -0.879089 -1.969369 0
M  V30 END ATOM
M  V30 BEGIN BOND
M  V30 1 1 1 2
M  V30 2 1 2 3
M  V30 3 1 3 4
M  V30 4 1 4 5
M  V30 5 1 5 6
M  V30 6 1 5 7
M  V30 7 1 7 8
M  V30 8 1 7 9
M  V30 9 1 9 10
M  V30 10 1 9 2
M  V30 11 1 1 11
M  V30 12 1 2 12
M  V30 13 1 4 13
M  V30 14 1 4 14
M  V30 15 1 5 15 CFG=1
M  V30 16 1 6 16
M  V30 17 1 7 17 CFG=3
M  V30 18 1 8 18
M  V30 19 1 9 19 CFG=3
M  V30 20 1 10 20
M  V30 END BOND
M  V30 END CTAB
M  END
>  <Dataset>  (56) 
OralDrugs

>  <Ligand_Instance>  (56) 
nan

>  <PDB_ID>  (56) 
nan

>  <Standardized_SMILES>  (56) 
OC1OC[C@@H](O)[C@H](O)[C@H]1O

>  <Name>  (56) 
Xylose

>  <Pocket>  (56) 
nan

>  <ATP_Site>  (56) 
nan

>  <Peripheral>  (56) 
nan

>  <Num_H_Atoms_ProtBoundConf>  (56) 
nan

>  <Num_Resolved_Atoms>  (56) 
nan

>  <Num_Not_Resolved_Atoms>  (56) 
nan

$$$$
CHEMBL603
     RDKit          3D

  0  0  0  0  0  0  0  0  0  0999 V3000
M  V30 BEGIN CTAB
M  V30 COUNTS 74 78 0 0 0
M  V30 BEGIN ATOM
M  V30 1 C 1.670690 0.499466 4.678566 0
M  V30 2 O 1.666497 -0.612229 3.819882 0
M  V30 3 C 1.645709 -0.542002 2.433607 0
M  V30 4 C 1.628274 0.717876 1.866892 0
M  V30 5 C 1.607741 0.836511 0.493385 0
M  V30 6 C 1.586812 2.115764 -0.221945 0
M  V30 7 O 1.575602 2.245615 -1.486775 0
M  V30 8 N 1.576209 3.380568 0.440647 0
M  V30 9 S 1.551488 4.740575 -0.639391 0
M  V30 10 O 2.895636 4.706697 -1.353757 0
M  V30 11 O 0.496570 4.645329 -1.673329 0
M  V30 12 C 1.533699 6.232889 0.259665 0
M  V30 13 C 2.492255 7.219515 0.187306 0
M  V30 14 C 2.347640 8.369705 0.970028 0
M  V30 15 C 1.266006 8.537752 1.812864 0
M  V30 16 C 0.315970 7.530742 1.867252 0
M  V30 17 C 0.439246 6.384645 1.101742 0
M  V30 18 C -0.635271 5.370589 1.236861 0
M  V30 19 C 1.603903 -0.290492 -0.335565 0
M  V30 20 C 1.621933 -1.539212 0.278288 0
M  V30 21 C 1.643244 -1.714029 1.666050 0
M  V30 22 C 1.661899 -3.048834 2.297845 0
M  V30 23 C 0.344471 -3.428563 2.858412 0
M  V30 24 C -0.005040 -3.417790 4.199153 0
M  V30 25 N -1.291138 -3.824184 4.343739 0
M  V30 26 C -1.997366 -3.937051 5.604858 0
M  V30 27 C -1.744929 -4.087925 3.105044 0
M  V30 28 C -2.968614 -4.530524 2.647776 0
M  V30 29 C -3.198360 -4.730680 1.309388 0
M  V30 30 C -2.245631 -4.508949 0.352540 0
M  V30 31 N -2.571614 -4.741366 -1.001667 0
M  V30 32 C -1.761672 -4.590882 -2.147466 0
M  V30 33 O -0.586647 -4.205429 -2.040697 0
M  V30 34 O -2.158191 -4.840524 -3.447157 0
M  V30 35 C -1.320161 -4.678763 -4.555305 0
M  V30 36 C -1.125809 -5.945222 -5.339972 0
M  V30 37 C -1.706898 -5.720120 -6.708687 0
M  V30 38 C -2.150857 -4.281992 -6.793306 0
M  V30 39 C -1.809910 -3.611138 -5.501630 0
M  V30 40 C -1.043154 -4.069329 0.852294 0
M  V30 41 C -0.757158 -3.851743 2.178225 0
M  V30 42 H 0.729358 1.073236 4.603986 0
M  V30 43 H 1.778518 0.111723 5.712877 0
M  V30 44 H 2.530715 1.180607 4.506589 0
M  V30 45 H 1.629896 1.620502 2.462155 0
M  V30 46 H 1.583825 3.409292 1.485861 0
M  V30 47 H 3.322918 7.046285 -0.486328 0
M  V30 48 H 3.099573 9.134274 0.907759 0
M  V30 49 H 1.163603 9.439027 2.418493 0
M  V30 50 H -0.544063 7.658042 2.533676 0
M  V30 51 H -0.837881 5.052670 2.264666 0
M  V30 52 H -0.502914 4.533121 0.511081 0
M  V30 53 H -1.578909 5.876825 0.876680 0
M  V30 54 H 1.588053 -0.214989 -1.396319 0
M  V30 55 H 1.619108 -2.408895 -0.366778 0
M  V30 56 H 1.974691 -3.803607 1.575242 0
M  V30 57 H 2.409526 -3.049648 3.124132 0
M  V30 58 H 0.700275 -3.114717 4.980562 0
M  V30 59 H -1.289341 -4.044589 6.446830 0
M  V30 60 H -2.626642 -3.038044 5.761910 0
M  V30 61 H -2.698097 -4.803283 5.577288 0
M  V30 62 H -3.781763 -4.732133 3.325787 0
M  V30 63 H -4.190334 -5.084568 0.989926 0
M  V30 64 H -3.523207 -5.069899 -1.257196 0
M  V30 65 H -0.329372 -4.331126 -4.184295 0
M  V30 66 H -0.052705 -6.239440 -5.457701 0
M  V30 67 H -1.613782 -6.813643 -4.821988 0
M  V30 68 H -0.965031 -5.888751 -7.519150 0
M  V30 69 H -2.554106 -6.432297 -6.928712 0
M  V30 70 H -3.251742 -4.189180 -6.958716 0
M  V30 71 H -1.667359 -3.732188 -7.616470 0
M  V30 72 H -2.684381 -3.102443 -5.030543 0
M  V30 73 H -1.063249 -2.774587 -5.637611 0
M  V30 74 H -0.232043 -3.868047 0.172115 0
M  V30 END ATOM
M  V30 BEGIN BOND
M  V30 1 1 1 2
M  V30 2 1 2 3
M  V30 3 2 3 4
M  V30 4 1 4 5
M  V30 5 1 5 6
M  V30 6 2 6 7
M  V30 7 1 6 8
M  V30 8 1 8 9
M  V30 9 2 9 10
M  V30 10 2 9 11
M  V30 11 1 9 12
M  V30 12 2 12 13
M  V30 13 1 13 14
M  V30 14 2 14 15
M  V30 15 1 15 16
M  V30 16 2 16 17
M  V30 17 1 17 18
M  V30 18 2 5 19
M  V30 19 1 19 20
M  V30 20 2 20 21
M  V30 21 1 21 22
M  V30 22 1 22 23
M  V30 23 2 23 24
M  V30 24 1 24 25
M  V30 25 1 25 26
M  V30 26 1 25 27
M  V30 27 2 27 28
M  V30 28 1 28 29
M  V30 29 2 29 30
M  V30 30 1 30 31
M  V30 31 1 31 32
M  V30 32 2 32 33
M  V30 33 1 32 34
M  V30 34 1 34 35
M  V30 35 1 35 36
M  V30 36 1 36 37
M  V30 37 1 37 38
M  V30 38 1 38 39
M  V30 39 1 30 40
M  V30 40 2 40 41
M  V30 41 1 21 3
M  V30 42 1 41 23
M  V30 43 1 17 12
M  V30 44 1 41 27
M  V30 45 1 39 35
M  V30 46 1 1 42
M  V30 47 1 1 43
M  V30 48 1 1 44
M  V30 49 1 4 45
M  V30 50 1 8 46
M  V30 51 1 13 47
M  V30 52 1 14 48
M  V30 53 1 15 49
M  V30 54 1 16 50
M  V30 55 1 18 51
M  V30 56 1 18 52
M  V30 57 1 18 53
M  V30 58 1 19 54
M  V30 59 1 20 55
M  V30 60 1 22 56
M  V30 61 1 22 57
M  V30 62 1 24 58
M  V30 63 1 26 59
M  V30 64 1 26 60
M  V30 65 1 26 61
M  V30 66 1 28 62
M  V30 67 1 29 63
M  V30 68 1 31 64
M  V30 69 1 35 65
M  V30 70 1 36 66
M  V30 71 1 36 67
M  V30 72 1 37 68
M  V30 73 1 37 69
M  V30 74 1 38 70
M  V30 75 1 38 71
M  V30 76 1 39 72
M  V30 77 1 39 73
M  V30 78 1 40 74
M  V30 END BOND
M  V30 END CTAB
M  END
>  <Dataset>  (57) 
OralDrugs

>  <Ligand_Instance>  (57) 
nan

>  <PDB_ID>  (57) 
nan

>  <Standardized_SMILES>  (57) 
COc1cc(C(=O)NS(=O)(=O)c2ccccc2C)ccc1Cc1cn(C)c2ccc(NC(=O)OC3CCCC3)cc12

>  <Name>  (57) 
Zafirlukast

>  <Pocket>  (57) 
nan

>  <ATP_Site>  (57) 
nan

>  <Peripheral>  (57) 
nan

>  <Num_H_Atoms_ProtBoundConf>  (57) 
nan

>  <Num_Resolved_Atoms>  (57) 
nan

>  <Num_Not_Resolved_Atoms>  (57) 
nan

$$$$
CHEMBL1521
     RDKit          3D

  0  0  0  0  0  0  0  0  0  0999 V3000
M  V30 BEGIN CTAB
M  V30 COUNTS 38 40 0 0 0
M  V30 BEGIN ATOM
M  V30 1 C -1.111825 -3.775817 0.608993 0
M  V30 2 C -0.246054 -3.709250 -0.625839 0
M  V30 3 N 0.904517 -2.849731 -0.384513 0
M  V30 4 C 2.153986 -3.289163 0.126555 0
M  V30 5 C 3.267318 -4.108921 0.659649 0
M  V30 6 O 2.432013 -2.049435 -0.002443 0
M  V30 7 C 0.893626 -1.446210 -0.642867 0
M  V30 8 C 1.274670 -0.970361 -1.886839 0
M  V30 9 C 1.288722 0.384857 -2.210096 0
M  V30 10 C 0.908731 1.307662 -1.259311 0
M  V30 11 C 0.530968 0.823609 -0.023501 0
M  V30 12 C 0.120611 1.801580 1.007089 0
M  V30 13 C 0.918807 2.919187 1.149172 0
M  V30 14 C 0.571071 3.856911 2.099967 0
M  V30 15 N -0.527742 3.628469 2.835651 0
M  V30 16 C -1.271757 2.521396 2.656775 0
M  V30 17 C -2.421173 2.111349 3.304719 0
M  V30 18 C -3.080059 2.844322 4.364264 0
M  V30 19 N -3.605465 3.437875 5.217575 0
M  V30 20 C -2.800727 0.888578 2.745717 0
M  V30 21 N -1.879191 0.598096 1.786045 0
M  V30 22 N -0.984387 1.555869 1.735552 0
M  V30 23 C 0.514137 -0.514828 0.304628 0
M  V30 24 H -0.592423 -3.463979 1.530825 0
M  V30 25 H -1.408964 -4.848870 0.739559 0
M  V30 26 H -2.033128 -3.164358 0.436371 0
M  V30 27 H -0.832261 -3.317986 -1.465695 0
M  V30 28 H 0.172639 -4.711378 -0.877579 0
M  V30 29 H 3.138053 -5.196231 0.524765 0
M  V30 30 H 4.176900 -3.819209 0.093526 0
M  V30 31 H 3.365094 -3.947893 1.758721 0
M  V30 32 H 1.574083 -1.696758 -2.636171 0
M  V30 33 H 1.600425 0.700187 -3.212356 0
M  V30 34 H 0.905066 2.373107 -1.469236 0
M  V30 35 H 1.799151 3.089085 0.550430 0
M  V30 36 H 1.207584 4.734557 2.203602 0
M  V30 37 H -3.660926 0.337570 3.057079 0
M  V30 38 H 0.212627 -0.855022 1.281398 0
M  V30 END ATOM
M  V30 BEGIN BOND
M  V30 1 1 1 2
M  V30 2 1 2 3
M  V30 3 1 3 4
M  V30 4 1 4 5
M  V30 5 2 4 6
M  V30 6 1 3 7
M  V30 7 2 7 8
M  V30 8 1 8 9
M  V30 9 2 9 10
M  V30 10 1 10 11
M  V30 11 1 11 12
M  V30 12 2 12 13
M  V30 13 1 13 14
M  V30 14 2 14 15
M  V30 15 1 15 16
M  V30 16 2 16 17
M  V30 17 1 17 18
M  V30 18 3 18 19
M  V30 19 1 17 20
M  V30 20 2 20 21
M  V30 21 1 21 22
M  V30 22 2 11 23
M  V30 23 1 23 7
M  V30 24 1 22 12
M  V30 25 1 22 16
M  V30 26 1 1 24
M  V30 27 1 1 25
M  V30 28 1 1 26
M  V30 29 1 2 27
M  V30 30 1 2 28
M  V30 31 1 5 29
M  V30 32 1 5 30
M  V30 33 1 5 31
M  V30 34 1 8 32
M  V30 35 1 9 33
M  V30 36 1 10 34
M  V30 37 1 13 35
M  V30 38 1 14 36
M  V30 39 1 20 37
M  V30 40 1 23 38
M  V30 END BOND
M  V30 END CTAB
M  END
>  <Dataset>  (58) 
OralDrugs

>  <Ligand_Instance>  (58) 
nan

>  <PDB_ID>  (58) 
nan

>  <Standardized_SMILES>  (58) 
CCN(C(C)=O)c1cccc(-c2ccnc3c(C#N)cnn23)c1

>  <Name>  (58) 
Zaleplon

>  <Pocket>  (58) 
nan

>  <ATP_Site>  (58) 
nan

>  <Peripheral>  (58) 
nan

>  <Num_H_Atoms_ProtBoundConf>  (58) 
nan

>  <Num_Resolved_Atoms>  (58) 
nan

>  <Num_Not_Resolved_Atoms>  (58) 
nan

$$$$
CHEMBL3936761
     RDKit          3D

  0  0  0  0  0  0  0  0  0  0999 V3000
M  V30 BEGIN CTAB
M  V30 COUNTS 64 68 0 0 0
M  V30 BEGIN ATOM
M  V30 1 C -2.618483 -5.139076 1.834622 0
M  V30 2 C -1.979609 -3.980921 1.836492 0
M  V30 3 C -0.592357 -4.005493 2.273827 0
M  V30 4 O -0.276721 -5.197640 2.575859 0
M  V30 5 N 0.248909 -2.860716 2.341121 0
M  V30 6 C -0.359309 -1.607070 1.936866 0
M  V30 7 C 0.708621 -0.539573 1.926624 0
M  V30 8 C 1.971595 -1.162355 1.365302 0
M  V30 9 C 2.923642 -0.117514 0.867249 0 CFG=2
M  V30 10 C 3.335688 0.817866 1.953872 0
M  V30 11 C 4.257299 1.888870 1.447628 0
M  V30 12 N 3.728401 2.563448 0.277374 0
M  V30 13 C 2.683421 1.922138 -0.436944 0
M  V30 14 C 1.847669 2.282653 -1.464907 0
M  V30 15 C 1.932885 3.605610 -2.057117 0
M  V30 16 N 1.311340 4.368352 -3.058625 0
M  V30 17 O 2.769170 4.457727 -1.668488 0
M  V30 18 C 0.972797 1.286277 -1.825753 0
M  V30 19 C -0.063698 1.249137 -2.843729 0
M  V30 20 C -0.016636 1.638913 -4.163989 0
M  V30 21 C -1.144438 1.515610 -4.949410 0
M  V30 22 C -2.342456 1.012124 -4.474308 0
M  V30 23 O -3.384093 0.954258 -5.396909 0
M  V30 24 C -4.593964 0.438720 -4.895609 0
M  V30 25 C -5.457177 1.368163 -4.356234 0
M  V30 26 C -6.680270 0.964162 -3.833113 0
M  V30 27 C -6.994002 -0.398057 -3.875239 0
M  V30 28 C -6.124110 -1.321563 -4.416908 0
M  V30 29 C -4.918979 -0.901490 -4.929290 0
M  V30 30 C -2.400856 0.618113 -3.152347 0
M  V30 31 C -1.273707 0.740820 -2.364990 0
M  V30 32 N 1.286168 0.283811 -0.987773 0
M  V30 33 N 2.271089 0.644159 -0.185246 0
M  V30 34 C 2.557934 -2.027156 2.430941 0
M  V30 35 C 1.596756 -3.118600 2.806417 0
M  V30 36 H -3.653989 -5.273114 1.534166 0
M  V30 37 H -2.175271 -6.079969 2.133595 0
M  V30 38 H -2.569986 -3.125360 1.506228 0
M  V30 39 H -0.783954 -1.702092 0.905075 0
M  V30 40 H -1.211206 -1.339897 2.588659 0
M  V30 41 H 0.924760 -0.318709 3.003957 0
M  V30 42 H 0.413861 0.371345 1.395429 0
M  V30 43 H 1.670275 -1.797062 0.493030 0
M  V30 44 H 3.787457 -0.637094 0.411213 0
M  V30 45 H 2.456038 1.228911 2.456809 0
M  V30 46 H 3.937254 0.237844 2.709691 0
M  V30 47 H 4.319897 2.674463 2.242539 0
M  V30 48 H 5.275472 1.529588 1.244715 0
M  V30 49 H 4.098327 3.469733 -0.019670 0
M  V30 50 H 1.666012 4.361592 -4.020305 0
M  V30 51 H 0.482789 4.994696 -2.996853 0
M  V30 52 H 0.938032 2.013966 -4.469236 0
M  V30 53 H -0.969257 1.859929 -5.970833 0
M  V30 54 H -5.255204 2.414480 -4.305368 0
M  V30 55 H -7.380697 1.666489 -3.402799 0
M  V30 56 H -7.934054 -0.791798 -3.484922 0
M  V30 57 H -6.331037 -2.385362 -4.467738 0
M  V30 58 H -4.195488 -1.567066 -5.365321 0
M  V30 59 H -3.338020 0.231843 -2.807672 0
M  V30 60 H -1.437335 0.399109 -1.340407 0
M  V30 61 H 3.583129 -2.401570 2.215178 0
M  V30 62 H 2.675340 -1.395747 3.349774 0
M  V30 63 H 1.958895 -4.044987 2.307400 0
M  V30 64 H 1.560399 -3.330751 3.881711 0
M  V30 END ATOM
M  V30 BEGIN BOND
M  V30 1 2 1 2
M  V30 2 1 2 3
M  V30 3 2 3 4
M  V30 4 1 3 5
M  V30 5 1 5 6
M  V30 6 1 6 7
M  V30 7 1 7 8
M  V30 8 1 8 9
M  V30 9 1 9 10
M  V30 10 1 10 11
M  V30 11 1 11 12
M  V30 12 1 12 13
M  V30 13 2 13 14
M  V30 14 1 14 15
M  V30 15 1 15 16
M  V30 16 2 15 17
M  V30 17 1 14 18
M  V30 18 1 18 19
M  V30 19 2 19 20
M  V30 20 1 20 21
M  V30 21 2 21 22
M  V30 22 1 22 23
M  V30 23 1 23 24
M  V30 24 2 24 25
M  V30 25 1 25 26
M  V30 26 2 26 27
M  V30 27 1 27 28
M  V30 28 2 28 29
M  V30 29 1 22 30
M  V30 30 2 30 31
M  V30 31 2 18 32
M  V30 32 1 32 33
M  V30 33 1 8 34
M  V30 34 1 34 35
M  V30 35 1 35 5
M  V30 36 1 33 9
M  V30 37 1 33 13
M  V30 38 1 31 19
M  V30 39 1 29 24
M  V30 40 1 1 36
M  V30 41 1 1 37
M  V30 42 1 2 38
M  V30 43 1 6 39
M  V30 44 1 6 40
M  V30 45 1 7 41
M  V30 46 1 7 42
M  V30 47 1 8 43
M  V30 48 1 9 44 CFG=3
M  V30 49 1 10 45
M  V30 50 1 10 46
M  V30 51 1 11 47
M  V30 52 1 11 48
M  V30 53 1 12 49
M  V30 54 1 16 50
M  V30 55 1 16 51
M  V30 56 1 20 52
M  V30 57 1 21 53
M  V30 58 1 25 54
M  V30 59 1 26 55
M  V30 60 1 27 56
M  V30 61 1 28 57
M  V30 62 1 29 58
M  V30 63 1 30 59
M  V30 64 1 31 60
M  V30 65 1 34 61
M  V30 66 1 34 62
M  V30 67 1 35 63
M  V30 68 1 35 64
M  V30 END BOND
M  V30 END CTAB
M  END
>  <Dataset>  (59) 
OralDrugs

>  <Ligand_Instance>  (59) 
nan

>  <PDB_ID>  (59) 
nan

>  <Standardized_SMILES>  (59) 
C=CC(=O)N1CCC([C@@H]2CCNc3c(C(N)=O)c(-c4ccc(Oc5ccccc5)cc4)nn32)CC1

>  <Name>  (59) 
Zanubrutinib

>  <Pocket>  (59) 
nan

>  <ATP_Site>  (59) 
nan

>  <Peripheral>  (59) 
nan

>  <Num_H_Atoms_ProtBoundConf>  (59) 
nan

>  <Num_Resolved_Atoms>  (59) 
nan

>  <Num_Not_Resolved_Atoms>  (59) 
nan

$$$$
CHEMBL93
     RDKit          3D

  0  0  0  0  0  0  0  0  0  0999 V3000
M  V30 BEGIN CTAB
M  V30 COUNTS 28 29 0 0 0
M  V30 BEGIN ATOM
M  V30 1 C -2.217016 0.883725 0.977924 0
M  V30 2 C -0.965931 0.951531 0.120969 0
M  V30 3 C -0.326749 -0.342605 0.127942 0
M  V30 4 C 0.472688 -1.028765 0.973393 0
M  V30 5 C 0.938751 -2.287785 0.694505 0
M  V30 6 C 1.753070 -3.095927 1.457336 0
M  V30 7 C 2.071459 -4.323013 0.937142 0
M  V30 8 C 1.677731 -4.861924 -0.266796 0
M  V30 9 C 0.864661 -4.061093 -1.033913 0
M  V30 10 C 0.519521 -2.812552 -0.543360 0
M  V30 11 S -0.514571 -1.516685 -1.269924 0
M  V30 12 N -0.079558 2.022348 0.529992 0
M  V30 13 O 0.163834 3.021707 -0.390264 0
M  V30 14 C 0.729887 2.510548 1.620089 0
M  V30 15 N 1.010006 2.044789 2.946941 0
M  V30 16 O 1.486564 3.484164 1.867659 0
M  V30 17 H -2.438098 1.844923 1.472643 0
M  V30 18 H -2.130905 0.042144 1.712494 0
M  V30 19 H -3.115472 0.613633 0.353399 0
M  V30 20 H -1.305503 1.168666 -0.912585 0
M  V30 21 H 0.698872 -0.485198 1.880252 0
M  V30 22 H 2.130747 -2.793760 2.419276 0
M  V30 23 H 2.724682 -4.952355 1.566068 0
M  V30 24 H 1.973536 -5.841753 -0.606173 0
M  V30 25 H 0.487967 -4.350693 -1.982751 0
M  V30 26 H -0.702851 3.292542 -0.780094 0
M  V30 27 H 1.758913 1.404632 3.344451 0
M  V30 28 H 0.539369 2.215769 3.885995 0
M  V30 END ATOM
M  V30 BEGIN BOND
M  V30 1 1 1 2
M  V30 2 1 2 3
M  V30 3 2 3 4
M  V30 4 1 4 5
M  V30 5 2 5 6
M  V30 6 1 6 7
M  V30 7 2 7 8
M  V30 8 1 8 9
M  V30 9 2 9 10
M  V30 10 1 10 11
M  V30 11 1 2 12
M  V30 12 1 12 13
M  V30 13 1 12 14
M  V30 14 1 14 15
M  V30 15 2 14 16
M  V30 16 1 11 3
M  V30 17 1 10 5
M  V30 18 1 1 17
M  V30 19 1 1 18
M  V30 20 1 1 19
M  V30 21 1 2 20
M  V30 22 1 4 21
M  V30 23 1 6 22
M  V30 24 1 7 23
M  V30 25 1 8 24
M  V30 26 1 9 25
M  V30 27 1 13 26
M  V30 28 1 15 27
M  V30 29 1 15 28
M  V30 END BOND
M  V30 END CTAB
M  END
>  <Dataset>  (60) 
OralDrugs

>  <Ligand_Instance>  (60) 
nan

>  <PDB_ID>  (60) 
nan

>  <Standardized_SMILES>  (60) 
CC(c1cc2ccccc2s1)N(O)C(N)=O

>  <Name>  (60) 
Zileuton

>  <Pocket>  (60) 
nan

>  <ATP_Site>  (60) 
nan

>  <Peripheral>  (60) 
nan

>  <Num_H_Atoms_ProtBoundConf>  (60) 
nan

>  <Num_Resolved_Atoms>  (60) 
nan

>  <Num_Not_Resolved_Atoms>  (60) 
nan

$$$$
CHEMBL708
     RDKit          3D

  0  0  0  0  0  0  0  0  0  0999 V3000
M  V30 BEGIN CTAB
M  V30 COUNTS 49 53 0 0 0
M  V30 BEGIN ATOM
M  V30 1 O 2.047076 -6.837882 1.592760 0
M  V30 2 C 1.259714 -6.070335 0.944008 0
M  V30 3 C 1.507355 -4.585140 0.938297 0
M  V30 4 C 0.361895 -4.072662 0.180666 0
M  V30 5 C -0.053457 -2.781494 -0.154754 0
M  V30 6 C -1.191088 -2.569431 -0.917848 0
M  V30 7 C -1.630425 -1.200435 -1.280657 0
M  V30 8 C -0.528272 -0.186190 -1.258947 0
M  V30 9 N -0.944478 1.159407 -1.584034 0
M  V30 10 C 0.256288 1.971587 -1.692317 0
M  V30 11 C 1.065492 2.025441 -0.431143 0
M  V30 12 N 0.186981 2.512188 0.628293 0
M  V30 13 C 0.514543 2.686467 2.012168 0
M  V30 14 N 0.462531 4.073419 2.229732 0
M  V30 15 S 0.921452 4.054299 4.048342 0
M  V30 16 C 1.078744 2.343433 4.152341 0
M  V30 17 C 1.416251 1.713304 5.363971 0
M  V30 18 C 1.483061 0.314015 5.248515 0
M  V30 19 C 1.223209 -0.267760 4.026784 0
M  V30 20 C 0.896719 0.420308 2.886061 0
M  V30 21 C 0.822304 1.778233 2.955165 0
M  V30 22 C -1.165549 2.841611 0.196603 0
M  V30 23 C -1.820830 1.710845 -0.556691 0
M  V30 24 C -1.949268 -3.639571 -1.369490 0
M  V30 25 Cl -3.387788 -3.396902 -2.338233 0
M  V30 26 C -1.568022 -4.950431 -1.055389 0
M  V30 27 C -0.416769 -5.086447 -0.287109 0
M  V30 28 N 0.110158 -6.322679 0.163056 0
M  V30 29 H 2.477510 -4.407382 0.380086 0
M  V30 30 H 1.619210 -4.188524 1.947511 0
M  V30 31 H 0.569177 -1.973839 0.224657 0
M  V30 32 H -2.432064 -0.899712 -0.588762 0
M  V30 33 H -2.106547 -1.256658 -2.306165 0
M  V30 34 H -0.030063 -0.119544 -0.281588 0
M  V30 35 H 0.219826 -0.469137 -2.045510 0
M  V30 36 H -0.007323 3.030311 -1.970755 0
M  V30 37 H 0.842622 1.500918 -2.525272 0
M  V30 38 H 1.901189 2.748036 -0.600007 0
M  V30 39 H 1.533228 1.078723 -0.137000 0
M  V30 40 H 1.616657 2.199009 6.303991 0
M  V30 41 H 1.736266 -0.313293 6.108605 0
M  V30 42 H 1.261531 -1.357907 3.870517 0
M  V30 43 H 0.701166 -0.085894 1.956991 0
M  V30 44 H -1.164377 3.738968 -0.451822 0
M  V30 45 H -1.817969 3.007786 1.103019 0
M  V30 46 H -2.687878 2.156988 -1.108816 0
M  V30 47 H -2.215090 0.946897 0.131466 0
M  V30 48 H -2.166724 -5.778705 -1.415826 0
M  V30 49 H -0.215276 -7.301692 0.010129 0
M  V30 END ATOM
M  V30 BEGIN BOND
M  V30 1 2 1 2
M  V30 2 1 2 3
M  V30 3 1 3 4
M  V30 4 2 4 5
M  V30 5 1 5 6
M  V30 6 1 6 7
M  V30 7 1 7 8
M  V30 8 1 8 9
M  V30 9 1 9 10
M  V30 10 1 10 11
M  V30 11 1 11 12
M  V30 12 1 12 13
M  V30 13 2 13 14
M  V30 14 1 14 15
M  V30 15 1 15 16
M  V30 16 2 16 17
M  V30 17 1 17 18
M  V30 18 2 18 19
M  V30 19 1 19 20
M  V30 20 2 20 21
M  V30 21 1 12 22
M  V30 22 1 22 23
M  V30 23 2 6 24
M  V30 24 1 24 25
M  V30 25 1 24 26
M  V30 26 2 26 27
M  V30 27 1 27 28
M  V30 28 1 28 2
M  V30 29 1 27 4
M  V30 30 1 23 9
M  V30 31 1 21 13
M  V30 32 1 21 16
M  V30 33 1 3 29
M  V30 34 1 3 30
M  V30 35 1 5 31
M  V30 36 1 7 32
M  V30 37 1 7 33
M  V30 38 1 8 34
M  V30 39 1 8 35
M  V30 40 1 10 36
M  V30 41 1 10 37
M  V30 42 1 11 38
M  V30 43 1 11 39
M  V30 44 1 17 40
M  V30 45 1 18 41
M  V30 46 1 19 42
M  V30 47 1 20 43
M  V30 48 1 22 44
M  V30 49 1 22 45
M  V30 50 1 23 46
M  V30 51 1 23 47
M  V30 52 1 26 48
M  V30 53 1 28 49
M  V30 END BOND
M  V30 END CTAB
M  END
>  <Dataset>  (61) 
OralDrugs

>  <Ligand_Instance>  (61) 
nan

>  <PDB_ID>  (61) 
nan

>  <Standardized_SMILES>  (61) 
O=C1Cc2cc(CCN3CCN(c4nsc5ccccc45)CC3)c(Cl)cc2N1

>  <Name>  (61) 
Ziprasidone

>  <Pocket>  (61) 
nan

>  <ATP_Site>  (61) 
nan

>  <Peripheral>  (61) 
nan

>  <Num_H_Atoms_ProtBoundConf>  (61) 
nan

>  <Num_Resolved_Atoms>  (61) 
nan

>  <Num_Not_Resolved_Atoms>  (61) 
nan

$$$$
CHEMBL1185
     RDKit          3D

  0  0  0  0  0  0  0  0  0  0999 V3000
M  V30 BEGIN CTAB
M  V30 COUNTS 42 44 0 0 0
M  V30 BEGIN ATOM
M  V30 1 C -0.004185 -4.076885 2.219101 0
M  V30 2 N -0.159478 -4.484170 0.832855 0
M  V30 3 C -1.506815 -4.997570 0.700894 0
M  V30 4 C 0.098812 -3.400774 -0.093198 0
M  V30 5 C -0.988661 -2.376197 0.049197 0
M  V30 6 C -0.799881 -1.221856 -0.873580 0
M  V30 7 C -1.411970 -0.857005 -2.057090 0
M  V30 8 N -0.839204 0.287728 -2.461353 0
M  V30 9 C 0.107636 0.660049 -1.583509 0
M  V30 10 C 0.928399 1.767927 -1.621921 0
M  V30 11 C 1.845934 1.939633 -0.580004 0
M  V30 12 C 1.927402 1.036932 0.446335 0
M  V30 13 C 2.907098 1.231007 1.545958 0
M  V30 14 C 2.345216 2.030189 2.685280 0 CFG=1
M  V30 15 C 1.895295 3.408382 2.325178 0
M  V30 16 O 0.509021 3.279170 2.056205 0
M  V30 17 C 0.050766 2.224486 2.831534 0
M  V30 18 O -1.085673 1.834166 3.265020 0
M  V30 19 N 1.159726 1.390233 3.220673 0
M  V30 20 C 1.094300 -0.086656 0.484426 0
M  V30 21 C 0.173981 -0.270389 -0.549019 0
M  V30 22 H -0.870427 -3.455329 2.580100 0
M  V30 23 H -0.046623 -5.023408 2.820957 0
M  V30 24 H 0.948662 -3.573057 2.431600 0
M  V30 25 H -2.234065 -4.422771 1.311979 0
M  V30 26 H -1.818634 -4.984141 -0.354091 0
M  V30 27 H -1.467789 -6.060289 1.032805 0
M  V30 28 H 1.104613 -3.008293 0.098325 0
M  V30 29 H 0.107266 -3.853592 -1.103262 0
M  V30 30 H -1.025846 -2.048415 1.110383 0
M  V30 31 H -1.945929 -2.913162 -0.133048 0
M  V30 32 H -2.199388 -1.460317 -2.488724 0
M  V30 33 H -1.171565 0.738266 -3.360328 0
M  V30 34 H 0.853393 2.475542 -2.439599 0
M  V30 35 H 2.470979 2.829542 -0.654890 0
M  V30 36 H 3.856224 1.658740 1.173187 0
M  V30 37 H 3.155178 0.228903 1.953252 0
M  V30 38 H 3.094801 2.099862 3.479673 0
M  V30 39 H 1.972410 4.098328 3.198880 0
M  V30 40 H 2.464513 3.881791 1.500286 0
M  V30 41 H 1.245852 0.502099 3.760728 0
M  V30 42 H 1.123546 -0.821245 1.270518 0
M  V30 END ATOM
M  V30 BEGIN BOND
M  V30 1 1 1 2
M  V30 2 1 2 3
M  V30 3 1 2 4
M  V30 4 1 4 5
M  V30 5 1 5 6
M  V30 6 2 6 7
M  V30 7 1 7 8
M  V30 8 1 8 9
M  V30 9 2 9 10
M  V30 10 1 10 11
M  V30 11 2 11 12
M  V30 12 1 12 13
M  V30 13 1 13 14
M  V30 14 1 14 15
M  V30 15 1 15 16
M  V30 16 1 16 17
M  V30 17 2 17 18
M  V30 18 1 17 19
M  V30 19 1 12 20
M  V30 20 2 20 21
M  V30 21 1 21 6
M  V30 22 1 21 9
M  V30 23 1 19 14
M  V30 24 1 1 22
M  V30 25 1 1 23
M  V30 26 1 1 24
M  V30 27 1 3 25
M  V30 28 1 3 26
M  V30 29 1 3 27
M  V30 30 1 4 28
M  V30 31 1 4 29
M  V30 32 1 5 30
M  V30 33 1 5 31
M  V30 34 1 7 32
M  V30 35 1 8 33
M  V30 36 1 10 34
M  V30 37 1 11 35
M  V30 38 1 13 36
M  V30 39 1 13 37
M  V30 40 1 14 38 CFG=1
M  V30 41 1 15 39
M  V30 42 1 15 40
M  V30 43 1 19 41
M  V30 44 1 20 42
M  V30 END BOND
M  V30 END CTAB
M  END
>  <Dataset>  (62) 
OralDrugs

>  <Ligand_Instance>  (62) 
nan

>  <PDB_ID>  (62) 
nan

>  <Standardized_SMILES>  (62) 
CN(C)CCc1c[nH]c2ccc(C[C@H]3COC(=O)N3)cc12

>  <Name>  (62) 
Zolmitriptan

>  <Pocket>  (62) 
nan

>  <ATP_Site>  (62) 
nan

>  <Peripheral>  (62) 
nan

>  <Num_H_Atoms_ProtBoundConf>  (62) 
nan

>  <Num_Resolved_Atoms>  (62) 
nan

>  <Num_Not_Resolved_Atoms>  (62) 
nan

$$$$
CHEMBL911
     RDKit          3D

  0  0  0  0  0  0  0  0  0  0999 V3000
M  V30 BEGIN CTAB
M  V30 COUNTS 44 46 0 0 0
M  V30 BEGIN ATOM
M  V30 1 C 0.251695 -3.980153 5.550267 0
M  V30 2 C 0.294737 -2.866547 4.558970 0
M  V30 3 C 1.404598 -2.723553 3.776110 0
M  V30 4 C 1.454403 -1.712283 2.870384 0
M  V30 5 C 0.452794 -0.799554 2.674017 0
M  V30 6 C 0.416693 0.310147 1.729134 0
M  V30 7 N -0.006076 1.522768 2.200092 0
M  V30 8 C 0.023326 2.417388 1.195254 0
M  V30 9 C -0.293534 3.777801 1.099402 0
M  V30 10 C -0.172298 4.479131 -0.077856 0
M  V30 11 C 0.282555 3.759467 -1.165502 0
M  V30 12 C 0.415717 4.515172 -2.444397 0
M  V30 13 C 0.608496 2.415905 -1.122685 0
M  V30 14 N 0.464380 1.796580 0.063908 0
M  V30 15 C 0.701760 0.514868 0.395380 0
M  V30 16 C 1.180755 -0.580473 -0.438077 0
M  V30 17 C 0.072995 -1.526405 -0.816120 0
M  V30 18 O -1.132231 -1.385641 -0.452605 0
M  V30 19 N 0.323183 -2.664941 -1.626598 0
M  V30 20 C -0.810593 -3.490811 -1.922830 0
M  V30 21 C 1.610764 -3.048017 -2.165672 0
M  V30 22 C -0.652375 -1.012185 3.514600 0
M  V30 23 C -0.766865 -2.010285 4.447482 0
M  V30 24 H 1.281402 -4.277148 5.834180 0
M  V30 25 H -0.325278 -3.668000 6.456489 0
M  V30 26 H -0.256475 -4.852909 5.107884 0
M  V30 27 H 2.250214 -3.391607 3.852853 0
M  V30 28 H 2.330958 -1.596082 2.253758 0
M  V30 29 H -0.638847 4.260471 1.988876 0
M  V30 30 H -0.419863 5.535968 -0.146938 0
M  V30 31 H 1.253992 4.059848 -3.010387 0
M  V30 32 H 0.489958 5.593625 -2.306001 0
M  V30 33 H -0.505800 4.252462 -3.037025 0
M  V30 34 H 0.963600 1.871091 -1.988068 0
M  V30 35 H 1.998874 -1.181210 -0.062479 0
M  V30 36 H 1.571077 -0.116758 -1.393322 0
M  V30 37 H -1.734841 -2.848071 -2.003804 0
M  V30 38 H -0.974303 -4.251470 -1.121439 0
M  V30 39 H -0.716544 -3.957931 -2.933999 0
M  V30 40 H 1.611397 -2.928946 -3.277035 0
M  V30 41 H 1.827328 -4.096294 -1.870703 0
M  V30 42 H 2.427578 -2.394590 -1.757798 0
M  V30 43 H -1.493725 -0.309786 3.405836 0
M  V30 44 H -1.667697 -2.081863 5.044053 0
M  V30 END ATOM
M  V30 BEGIN BOND
M  V30 1 1 1 2
M  V30 2 2 2 3
M  V30 3 1 3 4
M  V30 4 2 4 5
M  V30 5 1 5 6
M  V30 6 1 6 7
M  V30 7 2 7 8
M  V30 8 1 8 9
M  V30 9 2 9 10
M  V30 10 1 10 11
M  V30 11 1 11 12
M  V30 12 2 11 13
M  V30 13 1 13 14
M  V30 14 1 14 15
M  V30 15 1 15 16
M  V30 16 1 16 17
M  V30 17 2 17 18
M  V30 18 1 17 19
M  V30 19 1 19 20
M  V30 20 1 19 21
M  V30 21 1 5 22
M  V30 22 2 22 23
M  V30 23 1 23 2
M  V30 24 2 15 6
M  V30 25 1 14 8
M  V30 26 1 1 24
M  V30 27 1 1 25
M  V30 28 1 1 26
M  V30 29 1 3 27
M  V30 30 1 4 28
M  V30 31 1 9 29
M  V30 32 1 10 30
M  V30 33 1 12 31
M  V30 34 1 12 32
M  V30 35 1 12 33
M  V30 36 1 13 34
M  V30 37 1 16 35
M  V30 38 1 16 36
M  V30 39 1 20 37
M  V30 40 1 20 38
M  V30 41 1 20 39
M  V30 42 1 21 40
M  V30 43 1 21 41
M  V30 44 1 21 42
M  V30 45 1 22 43
M  V30 46 1 23 44
M  V30 END BOND
M  V30 END CTAB
M  END
>  <Dataset>  (63) 
OralDrugs

>  <Ligand_Instance>  (63) 
nan

>  <PDB_ID>  (63) 
nan

>  <Standardized_SMILES>  (63) 
Cc1ccc(-c2nc3ccc(C)cn3c2CC(=O)N(C)C)cc1

>  <Name>  (63) 
Zolpidem

>  <Pocket>  (63) 
nan

>  <ATP_Site>  (63) 
nan

>  <Peripheral>  (63) 
nan

>  <Num_H_Atoms_ProtBoundConf>  (63) 
nan

>  <Num_Resolved_Atoms>  (63) 
nan

>  <Num_Not_Resolved_Atoms>  (63) 
nan

$$$$
CHEMBL750
     RDKit          3D

  0  0  0  0  0  0  0  0  0  0999 V3000
M  V30 BEGIN CTAB
M  V30 COUNTS 22 23 0 0 0
M  V30 BEGIN ATOM
M  V30 1 N -0.825390 -0.983678 3.073739 0
M  V30 2 S 0.787523 -1.532864 3.221575 0
M  V30 3 O 1.152238 -1.718528 4.662403 0
M  V30 4 O 0.872934 -2.920830 2.607682 0
M  V30 5 C 1.946293 -0.467013 2.410846 0
M  V30 6 C 1.711320 -0.322490 0.964063 0
M  V30 7 N 2.408013 -0.936740 -0.037075 0
M  V30 8 O 1.939331 -0.593782 -1.190617 0
M  V30 9 C 0.944427 0.232383 -1.106105 0
M  V30 10 C 0.150624 0.853897 -2.046645 0
M  V30 11 C -0.847511 1.699106 -1.573905 0
M  V30 12 C -1.028097 1.900200 -0.210174 0
M  V30 13 C -0.212595 1.259982 0.709726 0
M  V30 14 C 0.782113 0.418459 0.252964 0
M  V30 15 H -1.510079 -1.728943 3.329757 0
M  V30 16 H -0.997924 -0.114705 3.636544 0
M  V30 17 H 1.927274 0.555211 2.867675 0
M  V30 18 H 2.961874 -0.913947 2.544273 0
M  V30 19 H 0.357887 0.642667 -3.073173 0
M  V30 20 H -1.445983 2.166004 -2.351601 0
M  V30 21 H -1.825989 2.569569 0.063806 0
M  V30 22 H -0.361758 1.428460 1.760499 0
M  V30 END ATOM
M  V30 BEGIN BOND
M  V30 1 1 1 2
M  V30 2 2 2 3
M  V30 3 2 2 4
M  V30 4 1 2 5
M  V30 5 1 5 6
M  V30 6 2 6 7
M  V30 7 1 7 8
M  V30 8 1 8 9
M  V30 9 2 9 10
M  V30 10 1 10 11
M  V30 11 2 11 12
M  V30 12 1 12 13
M  V30 13 2 13 14
M  V30 14 1 14 6
M  V30 15 1 14 9
M  V30 16 1 1 15
M  V30 17 1 1 16
M  V30 18 1 5 17
M  V30 19 1 5 18
M  V30 20 1 10 19
M  V30 21 1 11 20
M  V30 22 1 12 21
M  V30 23 1 13 22
M  V30 END BOND
M  V30 END CTAB
M  END
>  <Dataset>  (64) 
OralDrugs

>  <Ligand_Instance>  (64) 
nan

>  <PDB_ID>  (64) 
nan

>  <Standardized_SMILES>  (64) 
NS(=O)(=O)Cc1noc2ccccc12

>  <Name>  (64) 
Zonisamide

>  <Pocket>  (64) 
nan

>  <ATP_Site>  (64) 
nan

>  <Peripheral>  (64) 
nan

>  <Num_H_Atoms_ProtBoundConf>  (64) 
nan

>  <Num_Resolved_Atoms>  (64) 
nan

>  <Num_Not_Resolved_Atoms>  (64) 
nan

$$$$
CHEMBL4105630
     RDKit          3D

  0  0  0  0  0  0  0  0  0  0999 V3000
M  V30 BEGIN CTAB
M  V30 COUNTS 65 69 0 0 0
M  V30 BEGIN ATOM
M  V30 1 C 3.317869 2.647289 4.101710 0
M  V30 2 C 2.613601 2.372516 2.779789 0 CFG=1
M  V30 3 O 1.692848 3.424083 2.562745 0
M  V30 4 C 3.658397 2.323368 1.709323 0
M  V30 5 C 3.211625 1.648836 0.436838 0
M  V30 6 C 2.565950 0.304733 0.660999 0 CFG=1
M  V30 7 C 2.661495 0.014796 2.142336 0 CFG=2
M  V30 8 C 1.982516 -1.318058 2.383036 0
M  V30 9 C 0.519269 -1.195307 2.097151 0
M  V30 10 C 0.282264 -0.783649 0.681694 0 CFG=2
M  V30 11 C 1.152408 0.405434 0.250047 0 CFG=2
M  V30 12 C 1.034196 0.414478 -1.271390 0
M  V30 13 C -0.359999 0.523750 -1.772346 0
M  V30 14 C -1.249377 -0.556881 -1.172360 0 CFG=2
M  V30 15 C -0.844862 -1.919593 -1.587791 0
M  V30 16 C -2.697461 -0.249881 -1.334890 0 CFG=1
M  V30 17 C -3.341575 -1.098569 -2.321213 0
M  V30 18 O -3.524816 -0.441469 -3.381702 0
M  V30 19 C -3.897905 -2.386715 -2.677307 0
M  V30 20 N -3.891381 -3.435033 -1.689682 0
M  V30 21 C -3.048659 -4.446640 -1.344068 0
M  V30 22 C -3.536233 -5.176506 -0.284602 0
M  V30 23 C -2.906937 -6.305771 0.331456 0
M  V30 24 N -2.419094 -7.199700 0.835908 0
M  V30 25 C -4.723789 -4.530884 -0.024827 0
M  V30 26 N -4.942032 -3.499870 -0.850810 0
M  V30 27 C -3.314940 -0.308753 0.040647 0
M  V30 28 C -2.252324 -1.068072 0.855287 0
M  V30 29 C -1.064703 -0.339748 0.339105 0 CFG=1
M  V30 30 C 1.907036 1.041512 2.956076 0
M  V30 31 H 3.800751 1.691533 4.391774 0
M  V30 32 H 2.492352 2.792823 4.846865 0
M  V30 33 H 4.010173 3.488022 4.051607 0
M  V30 34 H 1.814122 3.874743 1.710216 0
M  V30 35 H 3.880318 3.387079 1.434719 0
M  V30 36 H 4.614520 1.936129 2.112967 0
M  V30 37 H 4.107493 1.542626 -0.197149 0
M  V30 38 H 2.530242 2.375938 -0.078910 0
M  V30 39 H 3.114513 -0.486095 0.130011 0
M  V30 40 H 3.702447 0.022905 2.502341 0
M  V30 41 H 2.131025 -1.571636 3.464462 0
M  V30 42 H 2.481951 -2.093880 1.801397 0
M  V30 43 H 0.110500 -2.243834 2.173605 0
M  V30 44 H -0.002042 -0.627164 2.864929 0
M  V30 45 H 0.638687 -1.615409 0.043649 0
M  V30 46 H 0.703847 1.355046 0.582781 0
M  V30 47 H 1.586051 -0.467095 -1.613664 0
M  V30 48 H 1.647257 1.290141 -1.620761 0
M  V30 49 H -0.786205 1.484336 -1.451303 0
M  V30 50 H -0.336785 0.475230 -2.859904 0
M  V30 51 H -0.888225 -2.672591 -0.761281 0
M  V30 52 H 0.234615 -1.939908 -1.922908 0
M  V30 53 H -1.388958 -2.356690 -2.440619 0
M  V30 54 H -2.746005 0.830630 -1.644913 0
M  V30 55 H -4.956041 -2.251467 -3.056494 0
M  V30 56 H -3.383235 -2.837824 -3.564692 0
M  V30 57 H -2.132536 -4.569894 -1.904268 0
M  V30 58 H -5.411792 -4.839885 0.779805 0
M  V30 59 H -4.305285 -0.723372 0.112985 0
M  V30 60 H -3.322694 0.700543 0.499461 0
M  V30 61 H -2.492019 -0.886424 1.922227 0
M  V30 62 H -2.281973 -2.142882 0.678257 0
M  V30 63 H -1.221180 0.736822 0.545909 0
M  V30 64 H 0.872482 1.199245 2.618590 0
M  V30 65 H 1.917175 0.674757 4.001939 0
M  V30 END ATOM
M  V30 BEGIN BOND
M  V30 1 1 1 2
M  V30 2 1 2 3 CFG=3
M  V30 3 1 2 4
M  V30 4 1 4 5
M  V30 5 1 5 6
M  V30 6 1 6 7
M  V30 7 1 7 8
M  V30 8 1 8 9
M  V30 9 1 9 10
M  V30 10 1 10 11
M  V30 11 1 11 12
M  V30 12 1 12 13
M  V30 13 1 13 14
M  V30 14 1 14 15 CFG=3
M  V30 15 1 14 16
M  V30 16 1 16 17
M  V30 17 2 17 18
M  V30 18 1 17 19
M  V30 19 1 19 20
M  V30 20 1 20 21
M  V30 21 2 21 22
M  V30 22 1 22 23
M  V30 23 3 23 24
M  V30 24 1 22 25
M  V30 25 2 25 26
M  V30 26 1 16 27
M  V30 27 1 27 28
M  V30 28 1 28 29
M  V30 29 1 7 30
M  V30 30 1 30 2
M  V30 31 1 11 6
M  V30 32 1 29 14
M  V30 33 1 29 10
M  V30 34 1 26 20
M  V30 35 1 1 31
M  V30 36 1 1 32
M  V30 37 1 1 33
M  V30 38 1 3 34
M  V30 39 1 4 35
M  V30 40 1 4 36
M  V30 41 1 5 37
M  V30 42 1 5 38
M  V30 43 1 6 39 CFG=3
M  V30 44 1 7 40 CFG=1
M  V30 45 1 8 41
M  V30 46 1 8 42
M  V30 47 1 9 43
M  V30 48 1 9 44
M  V30 49 1 10 45 CFG=3
M  V30 50 1 11 46 CFG=1
M  V30 51 1 12 47
M  V30 52 1 12 48
M  V30 53 1 13 49
M  V30 54 1 13 50
M  V30 55 1 15 51
M  V30 56 1 15 52
M  V30 57 1 15 53
M  V30 58 1 16 54 CFG=3
M  V30 59 1 19 55
M  V30 60 1 19 56
M  V30 61 1 21 57
M  V30 62 1 25 58
M  V30 63 1 27 59
M  V30 64 1 27 60
M  V30 65 1 28 61
M  V30 66 1 28 62
M  V30 67 1 29 63 CFG=3
M  V30 68 1 30 64
M  V30 69 1 30 65
M  V30 END BOND
M  V30 END CTAB
M  END
>  <Dataset>  (65) 
OralDrugs

>  <Ligand_Instance>  (65) 
nan

>  <PDB_ID>  (65) 
nan

>  <Standardized_SMILES>  (65) 
C[C@@]1(O)CC[C@H]2[C@H](CC[C@@H]3[C@@H]2CC[C@]2(C)[C@@H](C(=O)Cn4cc(C#N)cn4)CC[C@@H]32)C1

>  <Name>  (65) 
Zuranolone

>  <Pocket>  (65) 
nan

>  <ATP_Site>  (65) 
nan

>  <Peripheral>  (65) 
nan

>  <Num_H_Atoms_ProtBoundConf>  (65) 
nan

>  <Num_Resolved_Atoms>  (65) 
nan

>  <Num_Not_Resolved_Atoms>  (65) 
nan

$$$$
