CHEMBL3685252
     RDKit          3D

  0  0  0  0  0  0  0  0  0  0999 V3000
M  V30 BEGIN CTAB
M  V30 COUNTS 49 52 0 0 0
M  V30 BEGIN ATOM
M  V30 1 N 1.752300 -5.110306 3.374774 0
M  V30 2 C 3.140343 -4.826000 3.321467 0
M  V30 3 O 3.920755 -5.466562 4.039846 0
M  V30 4 C 3.654317 -3.790938 2.432439 0
M  V30 5 C 5.010227 -3.592480 2.454423 0
M  V30 6 C 5.512890 -2.605764 1.608770 0
M  V30 7 C 4.649678 -1.895879 0.812888 0
M  V30 8 C 3.304376 -2.079166 0.778335 0
M  V30 9 C 2.469313 -1.346258 -0.034798 0
M  V30 10 N 2.959944 -0.350144 -0.895935 0
M  V30 11 C 2.222771 0.505180 -1.806527 0
M  V30 12 C 1.292830 1.332744 -0.999042 0
M  V30 13 C 1.861679 2.477951 -0.486917 0
M  V30 14 C 1.072578 3.317815 0.265810 0
M  V30 15 C -0.239585 3.020021 0.496626 0
M  V30 16 C -0.848210 1.887274 0.004144 0
M  V30 17 N -2.209846 1.649618 0.286359 0
M  V30 18 C -3.078847 0.593679 -0.078151 0
M  V30 19 O -2.578664 -0.318278 -0.783555 0
M  V30 20 C -4.478795 0.517616 0.313219 0
M  V30 21 C -5.174237 1.420123 1.074337 0
M  V30 22 C -6.505583 1.263186 1.395440 0
M  V30 23 C -7.215317 0.181581 0.965131 0
M  V30 24 C -6.556201 -0.747625 0.199249 0
M  V30 25 Cl -7.419353 -2.165474 -0.385872 0
M  V30 26 C -5.229487 -0.562331 -0.103314 0
M  V30 27 C -0.032670 1.078914 -0.738138 0
M  V30 28 N 1.178508 -1.670923 0.071202 0
M  V30 29 C 0.671908 -2.614086 0.875560 0
M  V30 30 N 1.505342 -3.316140 1.659573 0
M  V30 31 C 2.832868 -3.054002 1.617655 0
M  V30 32 H 1.053451 -5.817439 3.130226 0
M  V30 33 H 0.903528 -4.634795 3.719777 0
M  V30 34 H 5.676752 -4.160605 3.087650 0
M  V30 35 H 6.588213 -2.453705 1.631177 0
M  V30 36 H 5.144765 -1.167688 0.207867 0
M  V30 37 H 3.978401 -0.138052 -0.943350 0
M  V30 38 H 1.580155 -0.101239 -2.492150 0
M  V30 39 H 2.878113 1.147889 -2.430983 0
M  V30 40 H 2.886744 2.774457 -0.628758 0
M  V30 41 H 1.483770 4.219382 0.680460 0
M  V30 42 H -0.820272 3.730602 1.106536 0
M  V30 43 H -2.708286 2.367941 0.874643 0
M  V30 44 H -4.644294 2.289513 1.432845 0
M  V30 45 H -7.014050 2.004087 2.000783 0
M  V30 46 H -8.251585 0.004570 1.181991 0
M  V30 47 H -4.770579 -1.336078 -0.712962 0
M  V30 48 H -0.411563 0.181709 -1.174046 0
M  V30 49 H -0.406195 -2.751343 0.838898 0
M  V30 END ATOM
M  V30 BEGIN BOND
M  V30 1 1 1 2
M  V30 2 2 2 3
M  V30 3 1 2 4
M  V30 4 2 4 5
M  V30 5 1 5 6
M  V30 6 2 6 7
M  V30 7 1 7 8
M  V30 8 2 8 9
M  V30 9 1 9 10
M  V30 10 1 10 11
M  V30 11 1 11 12
M  V30 12 2 12 13
M  V30 13 1 13 14
M  V30 14 2 14 15
M  V30 15 1 15 16
M  V30 16 1 16 17
M  V30 17 1 17 18
M  V30 18 2 18 19
M  V30 19 1 18 20
M  V30 20 2 20 21
M  V30 21 1 21 22
M  V30 22 2 22 23
M  V30 23 1 23 24
M  V30 24 1 24 25
M  V30 25 2 24 26
M  V30 26 2 16 27
M  V30 27 1 9 28
M  V30 28 2 28 29
M  V30 29 1 29 30
M  V30 30 2 30 31
M  V30 31 1 31 4
M  V30 32 1 31 8
M  V30 33 1 27 12
M  V30 34 1 26 20
M  V30 35 1 1 32
M  V30 36 1 1 33
M  V30 37 1 5 34
M  V30 38 1 6 35
M  V30 39 1 7 36
M  V30 40 1 10 37
M  V30 41 1 11 38
M  V30 42 1 11 39
M  V30 43 1 13 40
M  V30 44 1 14 41
M  V30 45 1 15 42
M  V30 46 1 17 43
M  V30 47 1 21 44
M  V30 48 1 22 45
M  V30 49 1 23 46
M  V30 50 1 26 47
M  V30 51 1 27 48
M  V30 52 1 29 49
M  V30 END BOND
M  V30 END CTAB
M  END
>  <Dataset>  (1) 
ChEMBL_Kinases

>  <Ligand_Instance>  (1) 
nan

>  <PDB_ID>  (1) 
nan

>  <Standardized_SMILES>  (1) 
NC(=O)c1cccc2c(NCc3cccc(NC(=O)c4cccc(Cl)c4)c3)ncnc12

>  <Name>  (1) 
nan

>  <Pocket>  (1) 
nan

>  <ATP_Site>  (1) 
nan

>  <Peripheral>  (1) 
nan

>  <Num_H_Atoms_ProtBoundConf>  (1) 
nan

>  <Num_Resolved_Atoms>  (1) 
nan

>  <Num_Not_Resolved_Atoms>  (1) 
nan

$$$$
CHEMBL3685267
     RDKit          3D

  0  0  0  0  0  0  0  0  0  0999 V3000
M  V30 BEGIN CTAB
M  V30 COUNTS 56 59 0 0 0
M  V30 BEGIN ATOM
M  V30 1 C 2.431539 3.384196 7.597492 0
M  V30 2 O 2.215101 3.912994 6.314070 0
M  V30 3 C 2.099476 3.136870 5.153739 0
M  V30 4 C 2.188098 1.758473 5.159367 0
M  V30 5 C 2.059684 1.067255 3.946382 0
M  V30 6 C 1.847671 1.718734 2.747133 0
M  V30 7 C 1.726642 0.922324 1.531416 0
M  V30 8 O 1.830318 -0.319382 1.684329 0
M  V30 9 N 1.509812 1.429605 0.246026 0
M  V30 10 C 1.377405 0.762604 -0.993008 0
M  V30 11 C 1.438515 -0.593035 -1.193280 0
M  V30 12 C 1.305243 -1.208796 -2.413736 0
M  V30 13 C 1.354522 -2.667861 -2.672211 0
M  V30 14 N 0.063307 -3.310219 -2.675615 0
M  V30 15 C -0.841821 -3.397612 -1.610820 0
M  V30 16 N -0.612530 -2.881791 -0.412696 0
M  V30 17 C -1.458710 -2.958452 0.608535 0
M  V30 18 N -2.661069 -3.585427 0.516295 0
M  V30 19 C -2.944957 -4.128083 -0.681280 0
M  V30 20 C -4.154093 -4.773717 -0.819694 0
M  V30 21 C -5.098734 -4.872373 0.284394 0
M  V30 22 N -4.976604 -4.369578 1.603378 0
M  V30 23 O -6.211631 -5.449187 0.211707 0
M  V30 24 C -4.543119 -5.362883 -2.001243 0
M  V30 25 C -3.655116 -5.278856 -3.062525 0
M  V30 26 C -2.464303 -4.630877 -2.890057 0
M  V30 27 C -2.055580 -4.039233 -1.730144 0
M  V30 28 C 1.094735 -0.438033 -3.536653 0
M  V30 29 C 1.028651 0.928824 -3.368202 0
M  V30 30 C 1.166788 1.509514 -2.127605 0
M  V30 31 C 1.083593 3.009679 -2.022588 0
M  V30 32 C 1.768980 3.094243 2.810324 0
M  V30 33 C 1.888111 3.824779 3.975534 0
M  V30 34 H 3.026647 4.140960 8.184079 0
M  V30 35 H 3.053839 2.464928 7.554455 0
M  V30 36 H 1.500255 3.082755 8.107480 0
M  V30 37 H 2.352803 1.237487 6.086428 0
M  V30 38 H 2.140089 0.005874 4.036890 0
M  V30 39 H 1.442628 2.470110 0.260478 0
M  V30 40 H 1.608161 -1.249055 -0.362354 0
M  V30 41 H 1.915521 -3.123039 -1.794091 0
M  V30 42 H 1.993961 -2.917977 -3.537429 0
M  V30 43 H -0.124769 -3.720428 -3.613257 0
M  V30 44 H -1.247268 -2.526904 1.582380 0
M  V30 45 H -4.568213 -4.614428 2.509575 0
M  V30 46 H -5.473790 -3.440162 1.648758 0
M  V30 47 H -5.493707 -5.865455 -2.094776 0
M  V30 48 H -3.963726 -5.745092 -3.996201 0
M  V30 49 H -1.850277 -4.623490 -3.775261 0
M  V30 50 H 0.980484 -0.852082 -4.531381 0
M  V30 51 H 0.865867 1.582088 -4.209854 0
M  V30 52 H 0.210296 3.310344 -1.436027 0
M  V30 53 H 2.006574 3.376646 -1.525606 0
M  V30 54 H 1.023358 3.463757 -3.031112 0
M  V30 55 H 1.604817 3.640719 1.902166 0
M  V30 56 H 1.820031 4.901884 3.978740 0
M  V30 END ATOM
M  V30 BEGIN BOND
M  V30 1 1 1 2
M  V30 2 1 2 3
M  V30 3 2 3 4
M  V30 4 1 4 5
M  V30 5 2 5 6
M  V30 6 1 6 7
M  V30 7 2 7 8
M  V30 8 1 7 9
M  V30 9 1 9 10
M  V30 10 2 10 11
M  V30 11 1 11 12
M  V30 12 1 12 13
M  V30 13 1 13 14
M  V30 14 1 14 15
M  V30 15 2 15 16
M  V30 16 1 16 17
M  V30 17 2 17 18
M  V30 18 1 18 19
M  V30 19 2 19 20
M  V30 20 1 20 21
M  V30 21 1 21 22
M  V30 22 2 21 23
M  V30 23 1 20 24
M  V30 24 2 24 25
M  V30 25 1 25 26
M  V30 26 2 26 27
M  V30 27 2 12 28
M  V30 28 1 28 29
M  V30 29 2 29 30
M  V30 30 1 30 31
M  V30 31 1 6 32
M  V30 32 2 32 33
M  V30 33 1 33 3
M  V30 34 1 30 10
M  V30 35 1 27 15
M  V30 36 1 27 19
M  V30 37 1 1 34
M  V30 38 1 1 35
M  V30 39 1 1 36
M  V30 40 1 4 37
M  V30 41 1 5 38
M  V30 42 1 9 39
M  V30 43 1 11 40
M  V30 44 1 13 41
M  V30 45 1 13 42
M  V30 46 1 14 43
M  V30 47 1 17 44
M  V30 48 1 22 45
M  V30 49 1 22 46
M  V30 50 1 24 47
M  V30 51 1 25 48
M  V30 52 1 26 49
M  V30 53 1 28 50
M  V30 54 1 29 51
M  V30 55 1 31 52
M  V30 56 1 31 53
M  V30 57 1 31 54
M  V30 58 1 32 55
M  V30 59 1 33 56
M  V30 END BOND
M  V30 END CTAB
M  END
>  <Dataset>  (2) 
ChEMBL_Kinases

>  <Ligand_Instance>  (2) 
nan

>  <PDB_ID>  (2) 
nan

>  <Standardized_SMILES>  (2) 
COc1ccc(C(=O)Nc2cc(CNc3ncnc4c(C(N)=O)cccc34)ccc2C)cc1

>  <Name>  (2) 
nan

>  <Pocket>  (2) 
nan

>  <ATP_Site>  (2) 
nan

>  <Peripheral>  (2) 
nan

>  <Num_H_Atoms_ProtBoundConf>  (2) 
nan

>  <Num_Resolved_Atoms>  (2) 
nan

>  <Num_Not_Resolved_Atoms>  (2) 
nan

$$$$
CHEMBL3685251
     RDKit          3D

  0  0  0  0  0  0  0  0  0  0999 V3000
M  V30 BEGIN CTAB
M  V30 COUNTS 49 52 0 0 0
M  V30 BEGIN ATOM
M  V30 1 N 0.647594 -4.837095 4.048542 0
M  V30 2 C 1.771717 -5.422861 3.405635 0
M  V30 3 O 2.016268 -6.246973 4.298198 0
M  V30 4 C 2.305962 -5.036275 2.113778 0
M  V30 5 C 3.409445 -5.672837 1.624211 0
M  V30 6 C 3.823390 -5.219026 0.392957 0
M  V30 7 C 3.199559 -4.220002 -0.297910 0
M  V30 8 C 2.081307 -3.608874 0.250494 0
M  V30 9 C 1.426384 -2.596247 -0.424987 0
M  V30 10 N 1.842338 -2.117492 -1.685019 0
M  V30 11 C 1.281152 -1.080904 -2.525048 0
M  V30 12 C 1.300948 0.194240 -1.764377 0
M  V30 13 C 2.469467 0.955907 -1.737295 0
M  V30 14 C 2.464911 2.149179 -1.041438 0
M  V30 15 C 1.339484 2.583130 -0.388122 0
M  V30 16 C 0.159009 1.873308 -0.381108 0
M  V30 17 N -0.959424 2.387138 0.312707 0
M  V30 18 C -2.264903 1.865541 0.475246 0
M  V30 19 O -2.510901 0.760716 -0.076328 0
M  V30 20 C -3.318640 2.525911 1.231628 0
M  V30 21 C -3.201837 3.722340 1.884878 0
M  V30 22 C -4.233022 4.301606 2.586413 0
M  V30 23 C -5.479876 3.682559 2.667022 0
M  V30 24 C -5.619647 2.486510 2.021607 0
M  V30 25 Br -7.311907 1.601681 2.107203 0
M  V30 26 C -4.559274 1.932878 1.325717 0
M  V30 27 C 0.215497 0.698800 -1.085104 0
M  V30 28 N 0.365075 -2.070223 0.169510 0
M  V30 29 C -0.085849 -2.467066 1.364130 0
M  V30 30 N 0.533939 -3.448158 2.038870 0
M  V30 31 C 1.627068 -4.023047 1.474594 0
M  V30 32 H 0.547535 -3.841075 4.404288 0
M  V30 33 H 0.268061 -3.966898 4.475923 0
M  V30 34 H 3.851780 -6.452480 2.218488 0
M  V30 35 H 4.704413 -5.702227 -0.033388 0
M  V30 36 H 3.602648 -3.949291 -1.237700 0
M  V30 37 H 2.680868 -2.522832 -2.152717 0
M  V30 38 H 0.189439 -1.326547 -2.680074 0
M  V30 39 H 1.782074 -0.971315 -3.491964 0
M  V30 40 H 3.376712 0.667532 -2.226852 0
M  V30 41 H 3.350273 2.770935 -0.993920 0
M  V30 42 H 1.391771 3.540887 0.150261 0
M  V30 43 H -0.843508 3.304136 0.801081 0
M  V30 44 H -2.264500 4.248741 1.859742 0
M  V30 45 H -4.159376 5.247820 3.108396 0
M  V30 46 H -6.305110 4.118740 3.210661 0
M  V30 47 H -4.702273 0.980393 0.823698 0
M  V30 48 H -0.660730 0.079500 -1.152924 0
M  V30 49 H -0.952408 -1.987835 1.775998 0
M  V30 END ATOM
M  V30 BEGIN BOND
M  V30 1 1 1 2
M  V30 2 2 2 3
M  V30 3 1 2 4
M  V30 4 2 4 5
M  V30 5 1 5 6
M  V30 6 2 6 7
M  V30 7 1 7 8
M  V30 8 2 8 9
M  V30 9 1 9 10
M  V30 10 1 10 11
M  V30 11 1 11 12
M  V30 12 2 12 13
M  V30 13 1 13 14
M  V30 14 2 14 15
M  V30 15 1 15 16
M  V30 16 1 16 17
M  V30 17 1 17 18
M  V30 18 2 18 19
M  V30 19 1 18 20
M  V30 20 2 20 21
M  V30 21 1 21 22
M  V30 22 2 22 23
M  V30 23 1 23 24
M  V30 24 1 24 25
M  V30 25 2 24 26
M  V30 26 2 16 27
M  V30 27 1 9 28
M  V30 28 2 28 29
M  V30 29 1 29 30
M  V30 30 2 30 31
M  V30 31 1 31 4
M  V30 32 1 31 8
M  V30 33 1 27 12
M  V30 34 1 26 20
M  V30 35 1 1 32
M  V30 36 1 1 33
M  V30 37 1 5 34
M  V30 38 1 6 35
M  V30 39 1 7 36
M  V30 40 1 10 37
M  V30 41 1 11 38
M  V30 42 1 11 39
M  V30 43 1 13 40
M  V30 44 1 14 41
M  V30 45 1 15 42
M  V30 46 1 17 43
M  V30 47 1 21 44
M  V30 48 1 22 45
M  V30 49 1 23 46
M  V30 50 1 26 47
M  V30 51 1 27 48
M  V30 52 1 29 49
M  V30 END BOND
M  V30 END CTAB
M  END
>  <Dataset>  (3) 
ChEMBL_Kinases

>  <Ligand_Instance>  (3) 
nan

>  <PDB_ID>  (3) 
nan

>  <Standardized_SMILES>  (3) 
NC(=O)c1cccc2c(NCc3cccc(NC(=O)c4cccc(Br)c4)c3)ncnc12

>  <Name>  (3) 
nan

>  <Pocket>  (3) 
nan

>  <ATP_Site>  (3) 
nan

>  <Peripheral>  (3) 
nan

>  <Num_H_Atoms_ProtBoundConf>  (3) 
nan

>  <Num_Resolved_Atoms>  (3) 
nan

>  <Num_Not_Resolved_Atoms>  (3) 
nan

$$$$
CHEMBL4290544
     RDKit          3D

  0  0  0  0  0  0  0  0  0  0999 V3000
M  V30 BEGIN CTAB
M  V30 COUNTS 39 41 0 0 0
M  V30 BEGIN ATOM
M  V30 1 C -2.032644 -4.098360 1.591914 0
M  V30 2 C -1.443088 -4.828272 0.387860 0
M  V30 3 C -0.210915 -5.578925 0.746872 0
M  V30 4 C -1.298720 -3.862465 -0.750820 0
M  V30 5 C -0.431241 -2.711145 -0.495162 0
M  V30 6 C 0.921855 -2.849752 -0.803825 0
M  V30 7 C 1.822453 -1.823678 -0.600307 0
M  V30 8 C 1.404302 -0.616670 -0.079196 0
M  V30 9 O 2.262993 0.366278 0.116537 0
M  V30 10 C 1.876373 1.537977 0.618717 0
M  V30 11 N 2.780272 2.521640 0.806084 0
M  V30 12 C 2.395906 3.726196 1.319839 0
M  V30 13 N 3.386263 4.714684 1.492467 0
M  V30 14 C 1.063734 3.895849 1.635865 0
M  V30 15 C 0.712346 5.203321 2.180961 0
M  V30 16 O 1.605269 6.078130 2.330587 0
M  V30 17 O -0.560871 5.600887 2.569113 0
M  V30 18 C 0.085522 2.935413 1.471161 0
M  V30 19 C 0.544706 1.727341 0.941854 0
M  V30 20 C -0.397999 0.721676 0.753835 0
M  V30 21 O -1.626929 0.894494 1.051332 0
M  V30 22 C 0.065711 -0.480636 0.225765 0
M  V30 23 C -0.852952 -1.494903 0.030006 0
M  V30 24 H -1.338468 -3.251649 1.813879 0
M  V30 25 H -2.069784 -4.749663 2.481069 0
M  V30 26 H -3.072248 -3.784714 1.395912 0
M  V30 27 H -2.221929 -5.558785 0.082435 0
M  V30 28 H -0.010153 -6.462240 0.131239 0
M  V30 29 H -0.362666 -5.958832 1.799859 0
M  V30 30 H 0.704295 -4.972404 0.785047 0
M  V30 31 H -2.310866 -3.461221 -0.966000 0
M  V30 32 H -0.954760 -4.385785 -1.661509 0
M  V30 33 H 1.289809 -3.778909 -1.213766 0
M  V30 34 H 2.858923 -1.977741 -0.854265 0
M  V30 35 H 3.514228 5.395187 0.710533 0
M  V30 36 H 4.061081 4.926397 2.281996 0
M  V30 37 H -0.727003 6.111864 3.430078 0
M  V30 38 H -0.938145 3.113153 1.731324 0
M  V30 39 H -1.907693 -1.424540 0.256826 0
M  V30 END ATOM
M  V30 BEGIN BOND
M  V30 1 1 1 2
M  V30 2 1 2 3
M  V30 3 1 2 4
M  V30 4 1 4 5
M  V30 5 2 5 6
M  V30 6 1 6 7
M  V30 7 2 7 8
M  V30 8 1 8 9
M  V30 9 1 9 10
M  V30 10 2 10 11
M  V30 11 1 11 12
M  V30 12 1 12 13
M  V30 13 2 12 14
M  V30 14 1 14 15
M  V30 15 2 15 16
M  V30 16 1 15 17
M  V30 17 1 14 18
M  V30 18 2 18 19
M  V30 19 1 19 20
M  V30 20 2 20 21
M  V30 21 1 20 22
M  V30 22 2 22 23
M  V30 23 1 23 5
M  V30 24 1 22 8
M  V30 25 1 19 10
M  V30 26 1 1 24
M  V30 27 1 1 25
M  V30 28 1 1 26
M  V30 29 1 2 27
M  V30 30 1 3 28
M  V30 31 1 3 29
M  V30 32 1 3 30
M  V30 33 1 4 31
M  V30 34 1 4 32
M  V30 35 1 6 33
M  V30 36 1 7 34
M  V30 37 1 13 35
M  V30 38 1 13 36
M  V30 39 1 17 37
M  V30 40 1 18 38
M  V30 41 1 23 39
M  V30 END BOND
M  V30 END CTAB
M  END
>  <Dataset>  (4) 
ChEMBL_Kinases

>  <Ligand_Instance>  (4) 
nan

>  <PDB_ID>  (4) 
nan

>  <Standardized_SMILES>  (4) 
CC(C)Cc1ccc2oc3nc(N)c(C(=O)O)cc3c(=O)c2c1

>  <Name>  (4) 
nan

>  <Pocket>  (4) 
nan

>  <ATP_Site>  (4) 
nan

>  <Peripheral>  (4) 
nan

>  <Num_H_Atoms_ProtBoundConf>  (4) 
nan

>  <Num_Resolved_Atoms>  (4) 
nan

>  <Num_Not_Resolved_Atoms>  (4) 
nan

$$$$
CHEMBL3685250
     RDKit          3D

  0  0  0  0  0  0  0  0  0  0999 V3000
M  V30 BEGIN CTAB
M  V30 COUNTS 51 54 0 0 0
M  V30 BEGIN ATOM
M  V30 1 N 4.597345 -1.166865 6.891875 0
M  V30 2 C 3.902469 -0.270226 6.035154 0
M  V30 3 O 3.497610 0.421885 6.998040 0
M  V30 4 C 3.890221 -0.420321 4.588732 0
M  V30 5 C 4.587651 -1.481338 4.054244 0
M  V30 6 C 4.533341 -1.563405 2.680789 0
M  V30 7 C 3.839508 -0.659759 1.906306 0
M  V30 8 C 3.157509 0.380004 2.448968 0
M  V30 9 C 2.470754 1.269505 1.652723 0
M  V30 10 N 2.421014 1.183912 0.249108 0
M  V30 11 C 1.711511 2.091622 -0.632173 0
M  V30 12 C 0.253653 2.120449 -0.421352 0
M  V30 13 C -0.489329 2.957811 0.354251 0
M  V30 14 C -1.859530 2.860963 0.468776 0
M  V30 15 C -2.564222 1.890786 -0.210496 0
M  V30 16 C -1.875354 1.010399 -1.013389 0
M  V30 17 N -2.507474 -0.040357 -1.767737 0
M  V30 18 C -2.643902 -1.296935 -1.099141 0
M  V30 19 O -2.182948 -1.306937 0.080028 0
M  V30 20 C -3.263530 -2.447535 -1.744209 0
M  V30 21 C -3.780207 -2.477803 -3.028270 0
M  V30 22 C -4.343827 -3.664028 -3.505963 0
M  V30 23 C -4.396654 -4.815073 -2.718659 0
M  V30 24 C -5.002028 -6.071632 -3.250681 0
M  V30 25 F -5.459722 -6.888517 -2.260012 0
M  V30 26 F -6.058615 -5.760776 -4.075157 0
M  V30 27 F -4.089609 -6.792687 -3.994722 0
M  V30 28 N -3.881712 -4.759509 -1.458893 0
M  V30 29 C -3.332101 -3.604204 -0.991945 0
M  V30 30 C -0.485545 1.142698 -1.102152 0
M  V30 31 N 1.849459 2.238562 2.343974 0
M  V30 32 C 1.879825 2.350888 3.681520 0
M  V30 33 N 2.548114 1.485653 4.460118 0
M  V30 34 C 3.195082 0.485563 3.819742 0
M  V30 35 H 5.523589 -1.331284 7.359680 0
M  V30 36 H 4.469008 -2.055362 7.423142 0
M  V30 37 H 5.147145 -2.218344 4.606784 0
M  V30 38 H 5.076721 -2.396598 2.217662 0
M  V30 39 H 3.874854 -0.832127 0.859382 0
M  V30 40 H 2.907375 0.433230 -0.282702 0
M  V30 41 H 1.868453 1.872832 -1.705341 0
M  V30 42 H 2.155238 3.131383 -0.514545 0
M  V30 43 H 0.043556 3.718724 0.880153 0
M  V30 44 H -2.377486 3.570654 1.111064 0
M  V30 45 H -3.637977 1.799695 -0.133105 0
M  V30 46 H -2.854363 0.079824 -2.744748 0
M  V30 47 H -3.714386 -1.568610 -3.590100 0
M  V30 48 H -4.742630 -3.670619 -4.511037 0
M  V30 49 H -2.952503 -3.689017 0.037734 0
M  V30 50 H 0.029567 0.425745 -1.749638 0
M  V30 51 H 1.312786 3.200374 4.020881 0
M  V30 END ATOM
M  V30 BEGIN BOND
M  V30 1 1 1 2
M  V30 2 2 2 3
M  V30 3 1 2 4
M  V30 4 2 4 5
M  V30 5 1 5 6
M  V30 6 2 6 7
M  V30 7 1 7 8
M  V30 8 2 8 9
M  V30 9 1 9 10
M  V30 10 1 10 11
M  V30 11 1 11 12
M  V30 12 2 12 13
M  V30 13 1 13 14
M  V30 14 2 14 15
M  V30 15 1 15 16
M  V30 16 1 16 17
M  V30 17 1 17 18
M  V30 18 2 18 19
M  V30 19 1 18 20
M  V30 20 2 20 21
M  V30 21 1 21 22
M  V30 22 2 22 23
M  V30 23 1 23 24
M  V30 24 1 24 25
M  V30 25 1 24 26
M  V30 26 1 24 27
M  V30 27 1 23 28
M  V30 28 2 28 29
M  V30 29 2 16 30
M  V30 30 1 9 31
M  V30 31 2 31 32
M  V30 32 1 32 33
M  V30 33 2 33 34
M  V30 34 1 34 4
M  V30 35 1 34 8
M  V30 36 1 30 12
M  V30 37 1 29 20
M  V30 38 1 1 35
M  V30 39 1 1 36
M  V30 40 1 5 37
M  V30 41 1 6 38
M  V30 42 1 7 39
M  V30 43 1 10 40
M  V30 44 1 11 41
M  V30 45 1 11 42
M  V30 46 1 13 43
M  V30 47 1 14 44
M  V30 48 1 15 45
M  V30 49 1 17 46
M  V30 50 1 21 47
M  V30 51 1 22 48
M  V30 52 1 29 49
M  V30 53 1 30 50
M  V30 54 1 32 51
M  V30 END BOND
M  V30 END CTAB
M  END
>  <Dataset>  (5) 
ChEMBL_Kinases

>  <Ligand_Instance>  (5) 
nan

>  <PDB_ID>  (5) 
nan

>  <Standardized_SMILES>  (5) 
NC(=O)c1cccc2c(NCc3cccc(NC(=O)c4ccc(C(F)(F)F)nc4)c3)ncnc12

>  <Name>  (5) 
nan

>  <Pocket>  (5) 
nan

>  <ATP_Site>  (5) 
nan

>  <Peripheral>  (5) 
nan

>  <Num_H_Atoms_ProtBoundConf>  (5) 
nan

>  <Num_Resolved_Atoms>  (5) 
nan

>  <Num_Not_Resolved_Atoms>  (5) 
nan

$$$$
CHEMBL3685249
     RDKit          3D

  0  0  0  0  0  0  0  0  0  0999 V3000
M  V30 BEGIN CTAB
M  V30 COUNTS 56 59 0 0 0
M  V30 BEGIN ATOM
M  V30 1 C 7.809334 1.886299 5.579121 0
M  V30 2 C 6.406333 1.928111 5.068359 0
M  V30 3 O 5.492387 2.162436 5.864516 0
M  V30 4 N 6.082738 1.710685 3.714364 0
M  V30 5 C 4.831265 1.706519 3.059491 0
M  V30 6 C 4.787664 1.474722 1.708873 0
M  V30 7 C 3.619747 1.449504 0.970696 0
M  V30 8 C 2.449328 1.674894 1.665618 0
M  V30 9 C 1.262504 1.642440 0.825873 0
M  V30 10 O 1.228572 1.505020 -0.415735 0
M  V30 11 N -0.026948 1.767605 1.366621 0
M  V30 12 C -1.405359 1.807315 1.104112 0
M  V30 13 C -2.201745 2.900594 0.883948 0
M  V30 14 C -3.556814 2.739770 0.627815 0
M  V30 15 C -4.077157 1.457628 0.600050 0
M  V30 16 C -3.330280 0.317677 0.813122 0
M  V30 17 C -3.906708 -1.072085 0.781060 0
M  V30 18 N -3.957483 -1.703215 -0.457284 0
M  V30 19 C -4.050030 -2.297303 -1.732159 0
M  V30 20 N -4.726157 -2.019777 -2.847682 0
M  V30 21 C -4.685341 -2.711539 -3.966919 0
M  V30 22 N -3.903868 -3.782893 -3.999100 0
M  V30 23 C -3.183062 -4.169355 -2.970644 0
M  V30 24 C -2.388708 -5.268675 -3.044192 0
M  V30 25 C -2.347883 -6.033862 -4.265821 0
M  V30 26 N -2.141669 -6.914500 -5.320667 0
M  V30 27 O -3.093449 -5.633223 -5.218225 0
M  V30 28 C -1.602359 -5.729859 -2.017212 0
M  V30 29 C -1.628903 -5.021352 -0.837057 0
M  V30 30 C -2.443239 -3.914795 -0.796082 0
M  V30 31 C -3.246500 -3.427295 -1.815725 0
M  V30 32 C -1.981129 0.534630 1.065462 0
M  V30 33 C 2.384527 1.915553 3.011010 0
M  V30 34 C 3.625277 1.917991 3.654076 0
M  V30 35 H 8.010490 2.718235 6.271345 0
M  V30 36 H 8.551791 1.945415 4.727850 0
M  V30 37 H 7.995911 0.920239 6.128588 0
M  V30 38 H 6.958049 1.523839 3.129798 0
M  V30 39 H 5.727805 1.293820 1.158092 0
M  V30 40 H 3.676715 1.256642 -0.086838 0
M  V30 41 H -0.142697 1.896138 2.418476 0
M  V30 42 H -1.696428 3.857606 0.927580 0
M  V30 43 H -4.162466 3.607381 0.460070 0
M  V30 44 H -5.138072 1.320089 0.398347 0
M  V30 45 H -4.869668 -1.046296 1.338448 0
M  V30 46 H -3.213451 -1.626632 1.517895 0
M  V30 47 H -4.625505 -0.896999 -0.716483 0
M  V30 48 H -5.332315 -2.271184 -4.730666 0
M  V30 49 H -1.155159 -7.283547 -5.473873 0
M  V30 50 H -1.200604 -7.321808 -5.537025 0
M  V30 51 H -0.988902 -6.605810 -2.128147 0
M  V30 52 H -1.040859 -5.314274 0.021492 0
M  V30 53 H -2.441190 -3.380535 0.142128 0
M  V30 54 H -1.417379 -0.397769 1.228679 0
M  V30 55 H 1.472286 2.092261 3.553530 0
M  V30 56 H 3.560266 2.107659 4.713876 0
M  V30 END ATOM
M  V30 BEGIN BOND
M  V30 1 1 1 2
M  V30 2 2 2 3
M  V30 3 1 2 4
M  V30 4 1 4 5
M  V30 5 2 5 6
M  V30 6 1 6 7
M  V30 7 2 7 8
M  V30 8 1 8 9
M  V30 9 2 9 10
M  V30 10 1 9 11
M  V30 11 1 11 12
M  V30 12 2 12 13
M  V30 13 1 13 14
M  V30 14 2 14 15
M  V30 15 1 15 16
M  V30 16 1 16 17
M  V30 17 1 17 18
M  V30 18 1 18 19
M  V30 19 2 19 20
M  V30 20 1 20 21
M  V30 21 2 21 22
M  V30 22 1 22 23
M  V30 23 2 23 24
M  V30 24 1 24 25
M  V30 25 1 25 26
M  V30 26 2 25 27
M  V30 27 1 24 28
M  V30 28 2 28 29
M  V30 29 1 29 30
M  V30 30 2 30 31
M  V30 31 2 16 32
M  V30 32 1 8 33
M  V30 33 2 33 34
M  V30 34 1 34 5
M  V30 35 1 32 12
M  V30 36 1 31 19
M  V30 37 1 31 23
M  V30 38 1 1 35
M  V30 39 1 1 36
M  V30 40 1 1 37
M  V30 41 1 4 38
M  V30 42 1 6 39
M  V30 43 1 7 40
M  V30 44 1 11 41
M  V30 45 1 13 42
M  V30 46 1 14 43
M  V30 47 1 15 44
M  V30 48 1 17 45
M  V30 49 1 17 46
M  V30 50 1 18 47
M  V30 51 1 21 48
M  V30 52 1 26 49
M  V30 53 1 26 50
M  V30 54 1 28 51
M  V30 55 1 29 52
M  V30 56 1 30 53
M  V30 57 1 32 54
M  V30 58 1 33 55
M  V30 59 1 34 56
M  V30 END BOND
M  V30 END CTAB
M  END
>  <Dataset>  (6) 
ChEMBL_Kinases

>  <Ligand_Instance>  (6) 
nan

>  <PDB_ID>  (6) 
nan

>  <Standardized_SMILES>  (6) 
CC(=O)Nc1ccc(C(=O)Nc2cccc(CNc3ncnc4c(C(N)=O)cccc34)c2)cc1

>  <Name>  (6) 
nan

>  <Pocket>  (6) 
nan

>  <ATP_Site>  (6) 
nan

>  <Peripheral>  (6) 
nan

>  <Num_H_Atoms_ProtBoundConf>  (6) 
nan

>  <Num_Resolved_Atoms>  (6) 
nan

>  <Num_Not_Resolved_Atoms>  (6) 
nan

$$$$
CHEMBL4290345
     RDKit          3D

  0  0  0  0  0  0  0  0  0  0999 V3000
M  V30 BEGIN CTAB
M  V30 COUNTS 37 40 0 0 0
M  V30 BEGIN ATOM
M  V30 1 C 2.644261 -6.240711 1.513476 0
M  V30 2 S 3.451588 -4.660787 1.932736 0
M  V30 3 C 2.467289 -3.279055 1.394192 0
M  V30 4 N 1.562398 -2.839858 2.322620 0
M  V30 5 C 0.733650 -1.807131 2.086346 0
M  V30 6 C 0.870686 -1.237447 0.839450 0
M  V30 7 C 1.781565 -1.669100 -0.096130 0
M  V30 8 N 2.618172 -2.719886 0.155618 0
M  V30 9 N 2.095055 -1.067313 -1.375101 0
M  V30 10 C 2.006452 0.377705 -1.517419 0
M  V30 11 N 2.861309 1.099680 -2.280687 0
M  V30 12 N 2.513334 2.393200 -2.164992 0
M  V30 13 C 1.436641 2.522017 -1.332006 0
M  V30 14 C 0.741509 3.770058 -0.935984 0
M  V30 15 C 1.094791 1.261919 -0.909335 0
M  V30 16 N 0.016401 0.861172 -0.077364 0
M  V30 17 C -0.120175 -0.190157 0.673855 0
M  V30 18 C -1.405106 -0.252684 1.330765 0
M  V30 19 C -2.190680 0.907537 1.271072 0
M  V30 20 C -3.475070 1.048935 1.742882 0
M  V30 21 C -4.087996 -0.026870 2.338569 0
M  V30 22 Cl -5.715101 0.091754 2.957808 0
M  V30 23 C -3.394342 -1.206062 2.439548 0
M  V30 24 C -2.131237 -1.240195 1.940274 0
M  V30 25 H 1.810924 -6.367367 2.240312 0
M  V30 26 H 2.198311 -6.196419 0.497287 0
M  V30 27 H 3.359018 -7.072047 1.513034 0
M  V30 28 H 0.053718 -1.388577 2.797673 0
M  V30 29 H 2.399793 -1.657672 -2.163186 0
M  V30 30 H 3.030787 3.143523 -2.665555 0
M  V30 31 H 1.202639 4.069855 0.038689 0
M  V30 32 H -0.306985 3.524557 -0.729140 0
M  V30 33 H 0.820485 4.565838 -1.703672 0
M  V30 34 H -1.825900 1.846677 0.820421 0
M  V30 35 H -4.042778 1.964858 1.675365 0
M  V30 36 H -3.828842 -2.081039 2.897937 0
M  V30 37 H -1.648916 -2.205336 1.973617 0
M  V30 END ATOM
M  V30 BEGIN BOND
M  V30 1 1 1 2
M  V30 2 1 2 3
M  V30 3 2 3 4
M  V30 4 1 4 5
M  V30 5 2 5 6
M  V30 6 1 6 7
M  V30 7 2 7 8
M  V30 8 1 7 9
M  V30 9 1 9 10
M  V30 10 2 10 11
M  V30 11 1 11 12
M  V30 12 1 12 13
M  V30 13 1 13 14
M  V30 14 2 13 15
M  V30 15 1 15 16
M  V30 16 2 16 17
M  V30 17 1 17 18
M  V30 18 2 18 19
M  V30 19 1 19 20
M  V30 20 2 20 21
M  V30 21 1 21 22
M  V30 22 1 21 23
M  V30 23 2 23 24
M  V30 24 1 8 3
M  V30 25 1 15 10
M  V30 26 1 24 18
M  V30 27 1 17 6
M  V30 28 1 1 25
M  V30 29 1 1 26
M  V30 30 1 1 27
M  V30 31 1 5 28
M  V30 32 1 9 29
M  V30 33 1 12 30
M  V30 34 1 14 31
M  V30 35 1 14 32
M  V30 36 1 14 33
M  V30 37 1 19 34
M  V30 38 1 20 35
M  V30 39 1 23 36
M  V30 40 1 24 37
M  V30 END BOND
M  V30 END CTAB
M  END
>  <Dataset>  (7) 
ChEMBL_Kinases

>  <Ligand_Instance>  (7) 
nan

>  <PDB_ID>  (7) 
nan

>  <Standardized_SMILES>  (7) 
CSc1ncc2c(n1)Nc1n[nH]c(C)c1N=C2c1ccc(Cl)cc1

>  <Name>  (7) 
nan

>  <Pocket>  (7) 
nan

>  <ATP_Site>  (7) 
nan

>  <Peripheral>  (7) 
nan

>  <Num_H_Atoms_ProtBoundConf>  (7) 
nan

>  <Num_Resolved_Atoms>  (7) 
nan

>  <Num_Not_Resolved_Atoms>  (7) 
nan

$$$$
CHEMBL3085798
     RDKit          3D

  0  0  0  0  0  0  0  0  0  0999 V3000
M  V30 BEGIN CTAB
M  V30 COUNTS 51 55 0 0 0
M  V30 BEGIN ATOM
M  V30 1 C 7.651270 -5.020227 2.746863 0
M  V30 2 C 7.241130 -3.579890 2.754161 0
M  V30 3 C 6.090083 -3.090635 2.173672 0
M  V30 4 C 6.015096 -1.726478 2.361162 0
M  V30 5 N 5.020206 -0.801007 1.944435 0
M  V30 6 C 3.857853 -1.107296 1.223213 0
M  V30 7 O 3.672069 -2.330703 0.909590 0
M  V30 8 C 2.851997 -0.137768 0.807614 0
M  V30 9 C 2.949548 1.206333 1.090002 0
M  V30 10 C 1.990027 2.108559 0.689906 0
M  V30 11 C 0.869148 1.736860 -0.017255 0
M  V30 12 O -0.164369 2.533509 -0.477382 0
M  V30 13 C -1.257890 2.736434 0.326778 0
M  V30 14 C -1.419745 3.773119 1.210629 0
M  V30 15 Cl -0.170866 4.983077 1.365558 0
M  V30 16 C -2.512941 3.982829 2.021336 0
M  V30 17 N -3.540249 3.101455 1.963472 0
M  V30 18 C -3.455829 2.056772 1.119034 0
M  V30 19 N -4.376278 1.097355 0.935665 0
M  V30 20 C -3.844209 0.288842 0.002613 0
M  V30 21 C -4.497794 -0.914957 -0.525908 0
M  V30 22 C -5.742270 -1.356504 -0.121587 0
M  V30 23 N -5.957967 -2.473324 -0.844519 0
M  V30 24 C -7.168262 -3.287256 -0.744419 0
M  V30 25 N -4.930574 -2.706308 -1.633793 0
M  V30 26 C -3.985589 -1.769205 -1.482047 0
M  V30 27 C -2.680289 -1.666893 -2.181170 0
M  V30 28 N -2.635025 0.742263 -0.371561 0
M  V30 29 C -2.353247 1.862870 0.314996 0
M  V30 30 C 0.771126 0.370604 -0.303902 0
M  V30 31 C 1.736385 -0.528029 0.100066 0
M  V30 32 O 7.091629 -1.434425 3.030846 0
M  V30 33 N 7.811227 -2.472740 3.269883 0
M  V30 34 H 8.630413 -5.172876 3.201884 0
M  V30 35 H 7.689489 -5.406803 1.692907 0
M  V30 36 H 6.861507 -5.575394 3.272622 0
M  V30 37 H 5.375290 -3.708241 1.657369 0
M  V30 38 H 5.133656 0.200783 2.178998 0
M  V30 39 H 3.786798 1.602504 1.638312 0
M  V30 40 H 2.092900 3.136302 0.917671 0
M  V30 41 H -2.611891 4.807022 2.706738 0
M  V30 42 H -5.300247 0.982443 1.398133 0
M  V30 43 H -6.412651 -0.921282 0.609303 0
M  V30 44 H -8.032589 -2.696951 -0.380050 0
M  V30 45 H -6.977999 -4.098474 0.011446 0
M  V30 46 H -7.439770 -3.710570 -1.724830 0
M  V30 47 H -1.937072 -2.215311 -1.595790 0
M  V30 48 H -2.777082 -2.197116 -3.153583 0
M  V30 49 H -2.387160 -0.626638 -2.391213 0
M  V30 50 H -0.034473 -0.099178 -0.849927 0
M  V30 51 H 1.663181 -1.604163 -0.123282 0
M  V30 END ATOM
M  V30 BEGIN BOND
M  V30 1 1 1 2
M  V30 2 1 2 3
M  V30 3 2 3 4
M  V30 4 1 4 5
M  V30 5 1 5 6
M  V30 6 2 6 7
M  V30 7 1 6 8
M  V30 8 2 8 9
M  V30 9 1 9 10
M  V30 10 2 10 11
M  V30 11 1 11 12
M  V30 12 1 12 13
M  V30 13 2 13 14
M  V30 14 1 14 15
M  V30 15 1 14 16
M  V30 16 2 16 17
M  V30 17 1 17 18
M  V30 18 1 18 19
M  V30 19 1 19 20
M  V30 20 1 20 21
M  V30 21 2 21 22
M  V30 22 1 22 23
M  V30 23 1 23 24
M  V30 24 1 23 25
M  V30 25 2 25 26
M  V30 26 1 26 27
M  V30 27 2 20 28
M  V30 28 1 28 29
M  V30 29 1 11 30
M  V30 30 2 30 31
M  V30 31 1 4 32
M  V30 32 1 32 33
M  V30 33 2 33 2
M  V30 34 1 31 8
M  V30 35 1 29 13
M  V30 36 2 29 18
M  V30 37 1 26 21
M  V30 38 1 1 34
M  V30 39 1 1 35
M  V30 40 1 1 36
M  V30 41 1 3 37
M  V30 42 1 5 38
M  V30 43 1 9 39
M  V30 44 1 10 40
M  V30 45 1 16 41
M  V30 46 1 19 42
M  V30 47 1 22 43
M  V30 48 1 24 44
M  V30 49 1 24 45
M  V30 50 1 24 46
M  V30 51 1 27 47
M  V30 52 1 27 48
M  V30 53 1 27 49
M  V30 54 1 30 50
M  V30 55 1 31 51
M  V30 END BOND
M  V30 END CTAB
M  END
>  <Dataset>  (8) 
ChEMBL_Kinases

>  <Ligand_Instance>  (8) 
nan

>  <PDB_ID>  (8) 
nan

>  <Standardized_SMILES>  (8) 
Cc1cc(NC(=O)c2ccc(Oc3c(Cl)cnc4[nH]c(-c5cn(C)nc5C)nc34)cc2)on1

>  <Name>  (8) 
nan

>  <Pocket>  (8) 
nan

>  <ATP_Site>  (8) 
nan

>  <Peripheral>  (8) 
nan

>  <Num_H_Atoms_ProtBoundConf>  (8) 
nan

>  <Num_Resolved_Atoms>  (8) 
nan

>  <Num_Not_Resolved_Atoms>  (8) 
nan

$$$$
CHEMBL3086062
     RDKit          3D

  0  0  0  0  0  0  0  0  0  0999 V3000
M  V30 BEGIN CTAB
M  V30 COUNTS 46 48 0 0 0
M  V30 BEGIN ATOM
M  V30 1 C -1.063594 1.081137 3.483807 0
M  V30 2 C 0.016796 0.268641 2.903616 0
M  V30 3 C 1.333619 0.593801 2.733117 0
M  V30 4 C 1.786052 1.980514 2.694589 0
M  V30 5 C 1.883404 2.403094 1.218495 0
M  V30 6 C 1.477967 1.441094 0.341046 0
M  V30 7 C 1.545584 1.662376 -1.034996 0
M  V30 8 C 2.022077 2.851491 -1.604158 0
M  V30 9 C 2.405662 3.790778 -0.606327 0
M  V30 10 C 2.355501 3.622524 0.801817 0
M  V30 11 N 2.764426 4.613831 1.716978 0
M  V30 12 C 2.396801 -0.196741 2.263825 0
M  V30 13 O 3.576926 0.216982 2.154963 0
M  V30 14 O 2.037768 -1.412056 1.929792 0
M  V30 15 C 0.783108 -1.843038 2.053048 0
M  V30 16 C 0.528892 -3.125539 1.639479 0
M  V30 17 C -0.788239 -3.457988 1.752873 0
M  V30 18 O -0.826177 -4.829738 1.139716 0
M  V30 19 C -1.217839 -4.685361 -0.230247 0
M  V30 20 O -1.164756 -3.652913 0.437563 0
M  V30 21 N -1.614742 -4.556283 -1.627179 0
M  V30 22 C -1.740042 -5.486505 -2.697880 0
M  V30 23 C -2.066826 -3.205098 -2.044781 0
M  V30 24 C -1.913729 -2.792773 2.226114 0
M  V30 25 Cl -3.427647 -3.569740 2.238491 0
M  V30 26 C -1.577422 -1.511049 2.629918 0
M  V30 27 C -0.266843 -1.067641 2.537664 0
M  V30 28 H -1.358243 0.602696 4.456918 0
M  V30 29 H -0.781002 2.102669 3.711965 0
M  V30 30 H -1.975118 1.053455 2.793302 0
M  V30 31 H 2.688227 2.183664 3.205887 0
M  V30 32 H 0.942102 2.657875 3.071171 0
M  V30 33 H 1.087033 0.501075 0.416858 0
M  V30 34 H 1.296432 0.965862 -1.899587 0
M  V30 35 H 2.136838 3.082938 -2.650933 0
M  V30 36 H 2.801430 4.750688 -0.982209 0
M  V30 37 H 3.517850 4.723237 2.410017 0
M  V30 38 H 1.981081 5.283669 1.481930 0
M  V30 39 H 1.355298 -3.726113 1.252248 0
M  V30 40 H -1.256193 -4.963831 -3.640011 0
M  V30 41 H -2.805925 -5.655104 -2.936384 0
M  V30 42 H -1.181100 -6.412362 -2.524908 0
M  V30 43 H -1.899030 -2.479599 -1.201731 0
M  V30 44 H -1.385815 -2.781136 -2.873509 0
M  V30 45 H -3.111156 -3.146979 -2.281078 0
M  V30 46 H -2.411137 -0.922975 3.026609 0
M  V30 END ATOM
M  V30 BEGIN BOND
M  V30 1 1 1 2
M  V30 2 2 2 3
M  V30 3 1 3 4
M  V30 4 1 4 5
M  V30 5 2 5 6
M  V30 6 1 6 7
M  V30 7 2 7 8
M  V30 8 1 8 9
M  V30 9 2 9 10
M  V30 10 1 10 11
M  V30 11 1 3 12
M  V30 12 2 12 13
M  V30 13 1 12 14
M  V30 14 1 14 15
M  V30 15 2 15 16
M  V30 16 1 16 17
M  V30 17 1 17 18
M  V30 18 1 18 19
M  V30 19 2 19 20
M  V30 20 1 19 21
M  V30 21 1 21 22
M  V30 22 1 21 23
M  V30 23 2 17 24
M  V30 24 1 24 25
M  V30 25 1 24 26
M  V30 26 2 26 27
M  V30 27 1 27 2
M  V30 28 1 10 5
M  V30 29 1 27 15
M  V30 30 1 1 28
M  V30 31 1 1 29
M  V30 32 1 1 30
M  V30 33 1 4 31
M  V30 34 1 4 32
M  V30 35 1 6 33
M  V30 36 1 7 34
M  V30 37 1 8 35
M  V30 38 1 9 36
M  V30 39 1 11 37
M  V30 40 1 11 38
M  V30 41 1 16 39
M  V30 42 1 22 40
M  V30 43 1 22 41
M  V30 44 1 22 42
M  V30 45 1 23 43
M  V30 46 1 23 44
M  V30 47 1 23 45
M  V30 48 1 26 46
M  V30 END BOND
M  V30 END CTAB
M  END
>  <Dataset>  (9) 
ChEMBL_Kinases

>  <Ligand_Instance>  (9) 
nan

>  <PDB_ID>  (9) 
nan

>  <Standardized_SMILES>  (9) 
Cc1c(Cc2ccccc2N)c(=O)oc2cc(OC(=O)N(C)C)c(Cl)cc12

>  <Name>  (9) 
nan

>  <Pocket>  (9) 
nan

>  <ATP_Site>  (9) 
nan

>  <Peripheral>  (9) 
nan

>  <Num_H_Atoms_ProtBoundConf>  (9) 
nan

>  <Num_Resolved_Atoms>  (9) 
nan

>  <Num_Not_Resolved_Atoms>  (9) 
nan

$$$$
CHEMBL3086063
     RDKit          3D

  0  0  0  0  0  0  0  0  0  0999 V3000
M  V30 BEGIN CTAB
M  V30 COUNTS 46 48 0 0 0
M  V30 BEGIN ATOM
M  V30 1 C 0.314859 0.879790 3.100637 0
M  V30 2 C 0.794254 -0.103739 2.136934 0
M  V30 3 C 2.154186 -0.305813 2.075725 0
M  V30 4 C 3.234578 0.358598 2.845353 0
M  V30 5 C 3.568581 1.711476 2.348174 0
M  V30 6 C 4.525822 1.761329 1.354183 0
M  V30 7 C 5.002143 2.914518 0.738190 0
M  V30 8 C 4.430709 4.091474 1.201673 0
M  V30 9 C 3.454863 4.148614 2.203354 0
M  V30 10 N 2.877351 5.349425 2.669766 0
M  V30 11 C 3.074808 2.934887 2.726487 0
M  V30 12 C 2.577628 -1.265578 1.143635 0
M  V30 13 O 3.788991 -1.609385 0.923733 0
M  V30 14 O 1.763751 -1.960267 0.349090 0
M  V30 15 C 0.463778 -1.789443 0.383581 0
M  V30 16 C -0.373265 -2.510428 -0.441158 0
M  V30 17 C -1.735135 -2.305714 -0.378577 0
M  V30 18 O -2.707390 -2.942651 -1.134401 0
M  V30 19 C -3.213811 -4.189960 -0.871575 0
M  V30 20 O -2.725012 -4.747697 0.138124 0
M  V30 21 N -4.196374 -4.542862 -1.843296 0
M  V30 22 C -4.676200 -3.771165 -2.997382 0
M  V30 23 C -4.894848 -5.831830 -1.785032 0
M  V30 24 C -2.251920 -1.366217 0.523993 0
M  V30 25 Cl -3.985217 -1.055564 0.657107 0
M  V30 26 C -1.376262 -0.652847 1.344577 0
M  V30 27 C -0.013002 -0.842211 1.297734 0
M  V30 28 H 0.156777 1.856542 2.587055 0
M  V30 29 H -0.685982 0.631473 3.562707 0
M  V30 30 H 1.013779 0.968349 3.957870 0
M  V30 31 H 2.976732 0.500336 3.929912 0
M  V30 32 H 4.158167 -0.257756 2.868987 0
M  V30 33 H 5.002551 0.850605 0.959706 0
M  V30 34 H 5.747025 2.905355 -0.029903 0
M  V30 35 H 4.747819 5.048959 0.771050 0
M  V30 36 H 3.000488 6.056350 3.410755 0
M  V30 37 H 2.085435 5.477483 1.983340 0
M  V30 38 H 2.326405 2.904911 3.507035 0
M  V30 39 H -0.022946 -3.230330 -1.137802 0
M  V30 40 H -4.609019 -4.395947 -3.907923 0
M  V30 41 H -4.063696 -2.844646 -3.082203 0
M  V30 42 H -5.745817 -3.472244 -2.866485 0
M  V30 43 H -5.963720 -5.644655 -1.483298 0
M  V30 44 H -4.917665 -6.298506 -2.780019 0
M  V30 45 H -4.372722 -6.519822 -1.094706 0
M  V30 46 H -1.823181 0.060335 2.021196 0
M  V30 END ATOM
M  V30 BEGIN BOND
M  V30 1 1 1 2
M  V30 2 2 2 3
M  V30 3 1 3 4
M  V30 4 1 4 5
M  V30 5 2 5 6
M  V30 6 1 6 7
M  V30 7 2 7 8
M  V30 8 1 8 9
M  V30 9 1 9 10
M  V30 10 2 9 11
M  V30 11 1 3 12
M  V30 12 2 12 13
M  V30 13 1 12 14
M  V30 14 1 14 15
M  V30 15 2 15 16
M  V30 16 1 16 17
M  V30 17 1 17 18
M  V30 18 1 18 19
M  V30 19 2 19 20
M  V30 20 1 19 21
M  V30 21 1 21 22
M  V30 22 1 21 23
M  V30 23 2 17 24
M  V30 24 1 24 25
M  V30 25 1 24 26
M  V30 26 2 26 27
M  V30 27 1 27 2
M  V30 28 1 11 5
M  V30 29 1 27 15
M  V30 30 1 1 28
M  V30 31 1 1 29
M  V30 32 1 1 30
M  V30 33 1 4 31
M  V30 34 1 4 32
M  V30 35 1 6 33
M  V30 36 1 7 34
M  V30 37 1 8 35
M  V30 38 1 10 36
M  V30 39 1 10 37
M  V30 40 1 11 38
M  V30 41 1 16 39
M  V30 42 1 22 40
M  V30 43 1 22 41
M  V30 44 1 22 42
M  V30 45 1 23 43
M  V30 46 1 23 44
M  V30 47 1 23 45
M  V30 48 1 26 46
M  V30 END BOND
M  V30 END CTAB
M  END
>  <Dataset>  (10) 
ChEMBL_Kinases

>  <Ligand_Instance>  (10) 
nan

>  <PDB_ID>  (10) 
nan

>  <Standardized_SMILES>  (10) 
Cc1c(Cc2cccc(N)c2)c(=O)oc2cc(OC(=O)N(C)C)c(Cl)cc12

>  <Name>  (10) 
nan

>  <Pocket>  (10) 
nan

>  <ATP_Site>  (10) 
nan

>  <Peripheral>  (10) 
nan

>  <Num_H_Atoms_ProtBoundConf>  (10) 
nan

>  <Num_Resolved_Atoms>  (10) 
nan

>  <Num_Not_Resolved_Atoms>  (10) 
nan

$$$$
CHEMBL3086064
     RDKit          3D

  0  0  0  0  0  0  0  0  0  0999 V3000
M  V30 BEGIN CTAB
M  V30 COUNTS 51 53 0 0 0
M  V30 BEGIN ATOM
M  V30 1 C -1.691062 1.081811 2.653152 0
M  V30 2 C -0.855053 0.017877 2.043175 0
M  V30 3 C 0.430418 -0.111476 2.523248 0
M  V30 4 C 1.120155 0.697278 3.556058 0
M  V30 5 C 1.556339 1.993911 2.978133 0
M  V30 6 C 0.918739 3.210915 3.032072 0
M  V30 7 C 1.423359 4.349330 2.447009 0
M  V30 8 C 2.621330 4.301195 1.768044 0
M  V30 9 C 3.347869 3.108468 1.656878 0
M  V30 10 N 4.572155 2.998353 0.977220 0
M  V30 11 S 6.032322 2.229031 1.396986 0
M  V30 12 N 5.943172 0.551044 1.622021 0
M  V30 13 O 6.591707 2.875334 2.631183 0
M  V30 14 O 7.031066 2.489232 0.291452 0
M  V30 15 C 2.753219 2.008131 2.283930 0
M  V30 16 C 1.134898 -1.151683 1.904193 0
M  V30 17 O 2.325909 -1.454928 2.183800 0
M  V30 18 O 0.693208 -1.955768 0.965908 0
M  V30 19 C -0.542569 -1.848713 0.487074 0
M  V30 20 C -1.037464 -2.675957 -0.499127 0
M  V30 21 C -2.341426 -2.521644 -0.969377 0
M  V30 22 O -2.712307 -3.419164 -1.961601 0
M  V30 23 C -3.322077 -4.595225 -1.580009 0
M  V30 24 O -3.790821 -5.412332 -0.715317 0
M  V30 25 N -3.660378 -5.448878 -2.687215 0
M  V30 26 C -4.305482 -6.713882 -2.387478 0
M  V30 27 C -3.412589 -5.156142 -4.106958 0
M  V30 28 C -3.107459 -1.515881 -0.411113 0
M  V30 29 Cl -4.725395 -1.360467 -1.027189 0
M  V30 30 C -2.575544 -0.709754 0.573729 0
M  V30 31 C -1.291051 -0.839881 1.057481 0
M  V30 32 H -1.664859 2.041830 2.105660 0
M  V30 33 H -2.760749 0.719794 2.731754 0
M  V30 34 H -1.335124 1.287589 3.689205 0
M  V30 35 H 0.488527 0.843009 4.459623 0
M  V30 36 H 1.991694 0.098033 3.916167 0
M  V30 37 H -0.016220 3.246920 3.567848 0
M  V30 38 H 0.861306 5.269690 2.534194 0
M  V30 39 H 3.052318 5.191784 1.290256 0
M  V30 40 H 4.457693 3.518346 0.054754 0
M  V30 41 H 5.199553 0.048651 1.130983 0
M  V30 42 H 6.288492 0.174126 2.507544 0
M  V30 43 H 3.323101 1.098097 2.190229 0
M  V30 44 H -0.317703 -3.411261 -0.832967 0
M  V30 45 H -4.286359 -7.401554 -3.256382 0
M  V30 46 H -3.666130 -7.177876 -1.583023 0
M  V30 47 H -5.306112 -6.577567 -1.949577 0
M  V30 48 H -2.557496 -4.425206 -4.201564 0
M  V30 49 H -4.277124 -4.690032 -4.598704 0
M  V30 50 H -3.090883 -6.043616 -4.651843 0
M  V30 51 H -3.261412 0.042402 0.933144 0
M  V30 END ATOM
M  V30 BEGIN BOND
M  V30 1 1 1 2
M  V30 2 2 2 3
M  V30 3 1 3 4
M  V30 4 1 4 5
M  V30 5 2 5 6
M  V30 6 1 6 7
M  V30 7 2 7 8
M  V30 8 1 8 9
M  V30 9 1 9 10
M  V30 10 1 10 11
M  V30 11 1 11 12
M  V30 12 2 11 13
M  V30 13 2 11 14
M  V30 14 2 9 15
M  V30 15 1 3 16
M  V30 16 2 16 17
M  V30 17 1 16 18
M  V30 18 1 18 19
M  V30 19 2 19 20
M  V30 20 1 20 21
M  V30 21 1 21 22
M  V30 22 1 22 23
M  V30 23 2 23 24
M  V30 24 1 23 25
M  V30 25 1 25 26
M  V30 26 1 25 27
M  V30 27 2 21 28
M  V30 28 1 28 29
M  V30 29 1 28 30
M  V30 30 2 30 31
M  V30 31 1 31 2
M  V30 32 1 15 5
M  V30 33 1 31 19
M  V30 34 1 1 32
M  V30 35 1 1 33
M  V30 36 1 1 34
M  V30 37 1 4 35
M  V30 38 1 4 36
M  V30 39 1 6 37
M  V30 40 1 7 38
M  V30 41 1 8 39
M  V30 42 1 10 40
M  V30 43 1 12 41
M  V30 44 1 12 42
M  V30 45 1 15 43
M  V30 46 1 20 44
M  V30 47 1 26 45
M  V30 48 1 26 46
M  V30 49 1 26 47
M  V30 50 1 27 48
M  V30 51 1 27 49
M  V30 52 1 27 50
M  V30 53 1 30 51
M  V30 END BOND
M  V30 END CTAB
M  END
>  <Dataset>  (11) 
ChEMBL_Kinases

>  <Ligand_Instance>  (11) 
nan

>  <PDB_ID>  (11) 
nan

>  <Standardized_SMILES>  (11) 
Cc1c(Cc2cccc(NS(N)(=O)=O)c2)c(=O)oc2cc(OC(=O)N(C)C)c(Cl)cc12

>  <Name>  (11) 
nan

>  <Pocket>  (11) 
nan

>  <ATP_Site>  (11) 
nan

>  <Peripheral>  (11) 
nan

>  <Num_H_Atoms_ProtBoundConf>  (11) 
nan

>  <Num_Resolved_Atoms>  (11) 
nan

>  <Num_Not_Resolved_Atoms>  (11) 
nan

$$$$
CHEMBL4290597
     RDKit          3D

  0  0  0  0  0  0  0  0  0  0999 V3000
M  V30 BEGIN CTAB
M  V30 COUNTS 56 60 0 0 0
M  V30 BEGIN ATOM
M  V30 1 C 4.914561 -2.852818 2.377349 0
M  V30 2 O 4.143605 -3.864391 1.752889 0
M  V30 3 C 2.931239 -3.596333 1.135243 0
M  V30 4 C 2.410739 -2.321410 1.097643 0
M  V30 5 C 1.218276 -1.964753 0.508344 0
M  V30 6 C 0.723772 -0.670844 0.489154 0
M  V30 7 O 1.518318 0.091233 1.077709 0
M  V30 8 N -0.445726 -0.357614 -0.095882 0
M  V30 9 C -0.840757 1.004823 -0.016139 0 CFG=2
M  V30 10 C -0.353276 1.875952 -1.167992 0
M  V30 11 C -0.329853 3.331636 -0.815016 0
M  V30 12 C -1.402390 3.615184 0.201954 0
M  V30 13 N -1.012335 2.906417 1.430576 0
M  V30 14 C -1.497873 3.449930 2.630698 0
M  V30 15 O -2.189275 4.469034 2.363094 0
M  V30 16 C -1.133762 2.774139 3.893288 0
M  V30 17 C -1.706397 3.444904 5.063367 0
M  V30 18 N -2.152089 3.961615 5.999678 0
M  V30 19 C -0.156181 1.713533 1.202146 0
M  V30 20 C -1.068093 -1.405273 -0.647300 0
M  V30 21 C -2.263798 -1.211543 -1.275427 0
M  V30 22 C -2.993032 -0.086449 -1.476524 0
M  V30 23 C -4.145372 -0.364317 -2.179328 0
M  V30 24 N -4.171427 -1.706907 -2.446399 0
M  V30 25 C -3.021127 -2.175750 -1.885097 0
M  V30 26 N -2.557913 -3.464314 -1.879553 0
M  V30 27 C -1.382516 -3.712327 -1.275213 0
M  V30 28 C -0.647544 -2.719115 -0.672278 0
M  V30 29 C 0.551130 -3.022148 -0.067993 0
M  V30 30 C 1.021350 -4.314219 -0.061531 0
M  V30 31 C 2.224446 -4.619358 0.543749 0
M  V30 32 O 2.773983 -5.893705 0.597499 0
M  V30 33 C 2.035196 -6.932908 -0.014884 0
M  V30 34 H 4.444124 -2.469724 3.299589 0
M  V30 35 H 5.941549 -3.161356 2.566173 0
M  V30 36 H 4.995076 -1.946930 1.708421 0
M  V30 37 H 2.997996 -1.558558 1.571990 0
M  V30 38 H -1.857559 1.192436 0.312775 0
M  V30 39 H -0.940756 1.790868 -2.090320 0
M  V30 40 H 0.734977 1.629899 -1.384393 0
M  V30 41 H 0.665385 3.703415 -0.515631 0
M  V30 42 H -0.585387 3.907263 -1.723333 0
M  V30 43 H -1.574518 4.686327 0.364479 0
M  V30 44 H -2.333956 3.120960 -0.141383 0
M  V30 45 H -0.021748 2.818464 4.042489 0
M  V30 46 H -1.399466 1.703036 3.914744 0
M  V30 47 H 0.786493 2.139079 0.898335 0
M  V30 48 H -0.244488 1.149133 2.113498 0
M  V30 49 H -2.970315 0.947839 -1.282392 0
M  V30 50 H -5.028206 0.158127 -2.579522 0
M  V30 51 H -4.864887 -2.332036 -2.955358 0
M  V30 52 H -1.128730 -4.738570 -1.335306 0
M  V30 53 H 0.531878 -5.163791 -0.498849 0
M  V30 54 H 1.086470 -7.161553 0.528620 0
M  V30 55 H 2.617256 -7.888816 -0.008891 0
M  V30 56 H 1.776437 -6.713284 -1.070716 0
M  V30 END ATOM
M  V30 BEGIN BOND
M  V30 1 1 1 2
M  V30 2 1 2 3
M  V30 3 2 3 4
M  V30 4 1 4 5
M  V30 5 1 5 6
M  V30 6 2 6 7
M  V30 7 1 6 8
M  V30 8 1 8 9
M  V30 9 1 9 10
M  V30 10 1 10 11
M  V30 11 1 11 12
M  V30 12 1 12 13
M  V30 13 1 13 14
M  V30 14 2 14 15
M  V30 15 1 14 16
M  V30 16 1 16 17
M  V30 17 3 17 18
M  V30 18 1 13 19
M  V30 19 1 8 20
M  V30 20 2 20 21
M  V30 21 1 21 22
M  V30 22 2 22 23
M  V30 23 1 23 24
M  V30 24 1 24 25
M  V30 25 2 25 26
M  V30 26 1 26 27
M  V30 27 2 27 28
M  V30 28 1 28 29
M  V30 29 1 29 30
M  V30 30 2 30 31
M  V30 31 1 31 32
M  V30 32 1 32 33
M  V30 33 1 31 3
M  V30 34 2 29 5
M  V30 35 1 19 9
M  V30 36 1 28 20
M  V30 37 1 25 21
M  V30 38 1 1 34
M  V30 39 1 1 35
M  V30 40 1 1 36
M  V30 41 1 4 37
M  V30 42 1 9 38 CFG=1
M  V30 43 1 10 39
M  V30 44 1 10 40
M  V30 45 1 11 41
M  V30 46 1 11 42
M  V30 47 1 12 43
M  V30 48 1 12 44
M  V30 49 1 16 45
M  V30 50 1 16 46
M  V30 51 1 19 47
M  V30 52 1 19 48
M  V30 53 1 22 49
M  V30 54 1 23 50
M  V30 55 1 24 51
M  V30 56 1 27 52
M  V30 57 1 30 53
M  V30 58 1 33 54
M  V30 59 1 33 55
M  V30 60 1 33 56
M  V30 END BOND
M  V30 END CTAB
M  END
>  <Dataset>  (12) 
ChEMBL_Kinases

>  <Ligand_Instance>  (12) 
nan

>  <PDB_ID>  (12) 
nan

>  <Standardized_SMILES>  (12) 
COc1cc2c(=O)n([C@@H]3CCCN(C(=O)CC#N)C3)c3c4cc[nH]c4ncc3c2cc1OC

>  <Name>  (12) 
nan

>  <Pocket>  (12) 
nan

>  <ATP_Site>  (12) 
nan

>  <Peripheral>  (12) 
nan

>  <Num_H_Atoms_ProtBoundConf>  (12) 
nan

>  <Num_Resolved_Atoms>  (12) 
nan

>  <Num_Not_Resolved_Atoms>  (12) 
nan

$$$$
CHEMBL3685266
     RDKit          3D

  0  0  0  0  0  0  0  0  0  0999 V3000
M  V30 BEGIN CTAB
M  V30 COUNTS 49 52 0 0 0
M  V30 BEGIN ATOM
M  V30 1 N 2.438575 -4.645990 3.019640 0
M  V30 2 C 3.734941 -4.507297 2.428726 0
M  V30 3 O 4.746268 -5.095268 2.880179 0
M  V30 4 C 3.877219 -3.647315 1.256519 0
M  V30 5 C 5.149727 -3.536961 0.733116 0
M  V30 6 C 5.309496 -2.716685 -0.391353 0
M  V30 7 C 4.199383 -2.080707 -0.895921 0
M  V30 8 C 2.939924 -2.173034 -0.400202 0
M  V30 9 C 1.879283 -1.500684 -0.968665 0
M  V30 10 N 2.029288 -0.667930 -2.106090 0
M  V30 11 C 0.969971 0.072357 -2.763859 0
M  V30 12 C 0.305607 1.064720 -1.883865 0
M  V30 13 C 0.883202 2.315376 -1.775627 0
M  V30 14 C 0.373524 3.340027 -1.009702 0
M  V30 15 C -0.792123 3.111116 -0.299414 0
M  V30 16 C -1.407691 1.876343 -0.375322 0
M  V30 17 N -2.607335 1.570627 0.320772 0
M  V30 18 C -2.656001 1.042737 1.617657 0
M  V30 19 O -1.508894 0.860794 2.122503 0
M  V30 20 C -3.799182 0.688670 2.432414 0
M  V30 21 C -3.530946 0.191423 3.700370 0
M  V30 22 F -2.287279 0.026480 4.207112 0
M  V30 23 C -4.578201 -0.174643 4.543064 0
M  V30 24 C -5.903031 -0.064930 4.171007 0
M  V30 25 C -6.172715 0.421198 2.930762 0
M  V30 26 C -5.130186 0.779789 2.106676 0
M  V30 27 F -5.438662 1.257485 0.884049 0
M  V30 28 C -0.852664 0.890683 -1.156700 0
M  V30 29 N 0.703516 -1.699497 -0.359114 0
M  V30 30 C 0.549948 -2.485060 0.717905 0
M  V30 31 N 1.583991 -3.146599 1.280065 0
M  V30 32 C 2.802527 -2.983770 0.704995 0
M  V30 33 H 2.055423 -4.072543 3.804423 0
M  V30 34 H 1.669626 -5.321106 2.781570 0
M  V30 35 H 6.006314 -4.047771 1.149117 0
M  V30 36 H 6.318136 -2.640710 -0.791071 0
M  V30 37 H 4.446832 -1.482885 -1.754153 0
M  V30 38 H 2.957918 -0.535898 -2.554770 0
M  V30 39 H 1.362529 0.648617 -3.626094 0
M  V30 40 H 0.186176 -0.618299 -3.164797 0
M  V30 41 H 1.805394 2.558107 -2.312942 0
M  V30 42 H 0.809295 4.318666 -0.913918 0
M  V30 43 H -1.232501 3.902835 0.324723 0
M  V30 44 H -3.517194 1.745598 -0.153126 0
M  V30 45 H -4.380479 -0.562067 5.530245 0
M  V30 46 H -6.677087 -0.363658 4.864378 0
M  V30 47 H -7.201023 0.532899 2.573693 0
M  V30 48 H -1.330748 -0.058688 -1.222740 0
M  V30 49 H -0.497193 -2.493999 1.039368 0
M  V30 END ATOM
M  V30 BEGIN BOND
M  V30 1 1 1 2
M  V30 2 2 2 3
M  V30 3 1 2 4
M  V30 4 2 4 5
M  V30 5 1 5 6
M  V30 6 2 6 7
M  V30 7 1 7 8
M  V30 8 2 8 9
M  V30 9 1 9 10
M  V30 10 1 10 11
M  V30 11 1 11 12
M  V30 12 2 12 13
M  V30 13 1 13 14
M  V30 14 2 14 15
M  V30 15 1 15 16
M  V30 16 1 16 17
M  V30 17 1 17 18
M  V30 18 2 18 19
M  V30 19 1 18 20
M  V30 20 2 20 21
M  V30 21 1 21 22
M  V30 22 1 21 23
M  V30 23 2 23 24
M  V30 24 1 24 25
M  V30 25 2 25 26
M  V30 26 1 26 27
M  V30 27 2 16 28
M  V30 28 1 9 29
M  V30 29 2 29 30
M  V30 30 1 30 31
M  V30 31 2 31 32
M  V30 32 1 32 4
M  V30 33 1 32 8
M  V30 34 1 28 12
M  V30 35 1 26 20
M  V30 36 1 1 33
M  V30 37 1 1 34
M  V30 38 1 5 35
M  V30 39 1 6 36
M  V30 40 1 7 37
M  V30 41 1 10 38
M  V30 42 1 11 39
M  V30 43 1 11 40
M  V30 44 1 13 41
M  V30 45 1 14 42
M  V30 46 1 15 43
M  V30 47 1 17 44
M  V30 48 1 23 45
M  V30 49 1 24 46
M  V30 50 1 25 47
M  V30 51 1 28 48
M  V30 52 1 30 49
M  V30 END BOND
M  V30 END CTAB
M  END
>  <Dataset>  (13) 
ChEMBL_Kinases

>  <Ligand_Instance>  (13) 
nan

>  <PDB_ID>  (13) 
nan

>  <Standardized_SMILES>  (13) 
NC(=O)c1cccc2c(NCc3cccc(NC(=O)c4c(F)cccc4F)c3)ncnc12

>  <Name>  (13) 
nan

>  <Pocket>  (13) 
nan

>  <ATP_Site>  (13) 
nan

>  <Peripheral>  (13) 
nan

>  <Num_H_Atoms_ProtBoundConf>  (13) 
nan

>  <Num_Resolved_Atoms>  (13) 
nan

>  <Num_Not_Resolved_Atoms>  (13) 
nan

$$$$
CHEMBL299987
     RDKit          3D

  0  0  0  0  0  0  0  0  0  0999 V3000
M  V30 BEGIN CTAB
M  V30 COUNTS 65 68 0 0 0
M  V30 BEGIN ATOM
M  V30 1 C 2.966623 -0.836569 7.852476 0
M  V30 2 C 3.605709 -0.536281 6.536555 0
M  V30 3 O 4.230023 -1.512408 6.087627 0
M  V30 4 N 3.449074 0.757671 5.957809 0
M  V30 5 C 4.019447 1.162101 4.693465 0
M  V30 6 C 5.299454 1.715648 4.826830 0
M  V30 7 C 5.939574 2.133321 3.687328 0
M  V30 8 C 5.386137 2.034660 2.436050 0
M  V30 9 C 4.129194 1.481605 2.394795 0
M  V30 10 O 3.665327 1.441364 1.090839 0
M  V30 11 C 3.402315 1.030450 3.467401 0
M  V30 12 C 2.077739 0.507363 3.436956 0
M  V30 13 O 1.555036 0.687841 4.584177 0
M  V30 14 C 1.103728 -0.143644 2.616880 0
M  V30 15 C -0.230765 -0.026441 2.965197 0
M  V30 16 O -0.714733 0.726760 4.032939 0
M  V30 17 C -1.229265 -0.686031 2.235172 0
M  V30 18 C -0.871054 -1.447933 1.174027 0
M  V30 19 C -1.953707 -2.116897 0.440091 0
M  V30 20 O -3.154384 -1.981299 0.789613 0
M  V30 21 O -1.677236 -2.914250 -0.656299 0
M  V30 22 C -2.632776 -3.588439 -1.415276 0 CFG=2
M  V30 23 C -2.365064 -5.076597 -1.542836 0
M  V30 24 C -3.324502 -5.429875 -2.673054 0
M  V30 25 C -3.071336 -4.332154 -3.669773 0
M  V30 26 C -2.543098 -3.171043 -2.870003 0 CFG=1
M  V30 27 N -3.133784 -1.907418 -3.157672 0
M  V30 28 C -2.363603 -0.805454 -3.654272 0
M  V30 29 O -1.117822 -1.034816 -3.819492 0
M  V30 30 C -2.954918 0.495869 -3.954085 0
M  V30 31 C -4.292668 0.820911 -3.804713 0
M  V30 32 C -4.730013 2.094804 -4.124727 0
M  V30 33 C -3.862222 3.068505 -4.595848 0
M  V30 34 O -4.277975 4.350758 -4.922616 0
M  V30 35 C -2.525955 2.753676 -4.748168 0
M  V30 36 C -2.136060 1.479942 -4.419236 0
M  V30 37 C 0.423482 -1.595813 0.793381 0
M  V30 38 C 1.383790 -0.936764 1.529673 0
M  V30 39 O 2.635873 -1.182722 1.042594 0
M  V30 40 H 2.283609 -0.022963 8.182800 0
M  V30 41 H 2.434141 -1.814252 7.789300 0
M  V30 42 H 3.733466 -0.942448 8.645727 0
M  V30 43 H 2.890793 1.489914 6.452009 0
M  V30 44 H 5.779762 1.816669 5.787874 0
M  V30 45 H 6.925881 2.554204 3.824839 0
M  V30 46 H 5.973338 2.390712 1.624316 0
M  V30 47 H 3.163203 2.184536 0.632616 0
M  V30 48 H -0.532215 1.721563 4.027351 0
M  V30 49 H -2.271295 -0.589076 2.513626 0
M  V30 50 H -3.679942 -3.454865 -1.090904 0
M  V30 51 H -2.692796 -5.644259 -0.664454 0
M  V30 52 H -1.324706 -5.251429 -1.846555 0
M  V30 53 H -3.162556 -6.444798 -3.071671 0
M  V30 54 H -4.342819 -5.404464 -2.241658 0
M  V30 55 H -3.958979 -4.066685 -4.276770 0
M  V30 56 H -2.334194 -4.719670 -4.404558 0
M  V30 57 H -1.456672 -3.098181 -3.103389 0
M  V30 58 H -4.159082 -1.790443 -2.998889 0
M  V30 59 H -4.947248 0.041040 -3.434991 0
M  V30 60 H -5.791835 2.332448 -3.999735 0
M  V30 61 H -3.990327 5.108848 -4.311283 0
M  V30 62 H -1.833685 3.503806 -5.115582 0
M  V30 63 H -1.074688 1.281671 -4.556519 0
M  V30 64 H 0.592559 -2.226181 -0.065913 0
M  V30 65 H 2.985640 -2.043902 0.663393 0
M  V30 END ATOM
M  V30 BEGIN BOND
M  V30 1 1 1 2
M  V30 2 2 2 3
M  V30 3 1 2 4
M  V30 4 1 4 5
M  V30 5 2 5 6
M  V30 6 1 6 7
M  V30 7 2 7 8
M  V30 8 1 8 9
M  V30 9 1 9 10
M  V30 10 2 9 11
M  V30 11 1 11 12
M  V30 12 2 12 13
M  V30 13 1 12 14
M  V30 14 2 14 15
M  V30 15 1 15 16
M  V30 16 1 15 17
M  V30 17 2 17 18
M  V30 18 1 18 19
M  V30 19 2 19 20
M  V30 20 1 19 21
M  V30 21 1 21 22
M  V30 22 1 22 23
M  V30 23 1 23 24
M  V30 24 1 24 25
M  V30 25 1 25 26
M  V30 26 1 26 27
M  V30 27 1 27 28
M  V30 28 2 28 29
M  V30 29 1 28 30
M  V30 30 2 30 31
M  V30 31 1 31 32
M  V30 32 2 32 33
M  V30 33 1 33 34
M  V30 34 1 33 35
M  V30 35 2 35 36
M  V30 36 1 18 37
M  V30 37 2 37 38
M  V30 38 1 38 39
M  V30 39 1 11 5
M  V30 40 1 38 14
M  V30 41 1 26 22
M  V30 42 1 36 30
M  V30 43 1 1 40
M  V30 44 1 1 41
M  V30 45 1 1 42
M  V30 46 1 4 43
M  V30 47 1 6 44
M  V30 48 1 7 45
M  V30 49 1 8 46
M  V30 50 1 10 47
M  V30 51 1 16 48
M  V30 52 1 17 49
M  V30 53 1 22 50 CFG=1
M  V30 54 1 23 51
M  V30 55 1 23 52
M  V30 56 1 24 53
M  V30 57 1 24 54
M  V30 58 1 25 55
M  V30 59 1 25 56
M  V30 60 1 26 57 CFG=3
M  V30 61 1 27 58
M  V30 62 1 31 59
M  V30 63 1 32 60
M  V30 64 1 34 61
M  V30 65 1 35 62
M  V30 66 1 36 63
M  V30 67 1 37 64
M  V30 68 1 39 65
M  V30 END BOND
M  V30 END CTAB
M  END
>  <Dataset>  (14) 
ChEMBL_Kinases

>  <Ligand_Instance>  (14) 
nan

>  <PDB_ID>  (14) 
nan

>  <Standardized_SMILES>  (14) 
CC(=O)Nc1cccc(O)c1C(=O)c1c(O)cc(C(=O)O[C@@H]2CCC[C@H]2NC(=O)c2ccc(O)cc2)cc1O

>  <Name>  (14) 
nan

>  <Pocket>  (14) 
nan

>  <ATP_Site>  (14) 
nan

>  <Peripheral>  (14) 
nan

>  <Num_H_Atoms_ProtBoundConf>  (14) 
nan

>  <Num_Resolved_Atoms>  (14) 
nan

>  <Num_Not_Resolved_Atoms>  (14) 
nan

$$$$
CHEMBL3685265
     RDKit          3D

  0  0  0  0  0  0  0  0  0  0999 V3000
M  V30 BEGIN CTAB
M  V30 COUNTS 53 56 0 0 0
M  V30 BEGIN ATOM
M  V30 1 C 0.187222 -4.277520 7.562341 0
M  V30 2 O -0.295188 -2.945327 7.582598 0
M  V30 3 C -0.148012 -2.161643 6.446635 0
M  V30 4 C 0.455562 -2.658953 5.309700 0
M  V30 5 C 0.605406 -1.870049 4.162105 0
M  V30 6 C 0.117409 -0.577051 4.236553 0
M  V30 7 C 0.288648 0.220651 3.025738 0
M  V30 8 O 0.848382 -0.291733 2.022537 0
M  V30 9 N -0.120495 1.563281 2.840874 0
M  V30 10 C 0.145641 2.168002 1.558835 0
M  V30 11 C 1.312502 2.848572 1.279652 0
M  V30 12 C 1.437371 3.379662 0.008093 0
M  V30 13 C 0.448015 3.247886 -0.962019 0
M  V30 14 F 0.727739 3.832386 -2.168935 0
M  V30 15 C -0.722619 2.550470 -0.643313 0
M  V30 16 C -1.668395 2.512511 -1.787669 0
M  V30 17 N -1.147831 1.560943 -2.759094 0
M  V30 18 C -0.950348 0.188529 -2.452200 0
M  V30 19 N -1.238459 -0.294072 -1.248582 0
M  V30 20 C -1.065740 -1.581556 -0.926651 0
M  V30 21 N -0.581675 -2.488191 -1.813224 0
M  V30 22 C -0.276599 -2.057596 -3.034028 0
M  V30 23 C 0.220651 -2.949564 -3.970955 0
M  V30 24 C 0.400566 -4.333690 -3.605954 0
M  V30 25 N 0.075712 -4.798579 -2.304710 0
M  V30 26 O 0.839837 -5.244922 -4.347558 0
M  V30 27 C 0.541705 -2.523472 -5.238292 0
M  V30 28 C 0.371332 -1.192216 -5.595292 0
M  V30 29 C -0.128554 -0.328721 -4.631583 0
M  V30 30 C -0.457549 -0.730526 -3.356612 0
M  V30 31 C -0.852959 2.019681 0.620877 0
M  V30 32 C -0.491558 -0.046404 5.356241 0
M  V30 33 C -0.633107 -0.849361 6.494768 0
M  V30 34 H -0.480476 -4.848616 6.854185 0
M  V30 35 H 1.201558 -4.364750 7.136395 0
M  V30 36 H 0.091268 -4.772383 8.543055 0
M  V30 37 H 0.836876 -3.671943 5.254636 0
M  V30 38 H 1.081660 -2.299943 3.300039 0
M  V30 39 H -0.596094 2.029435 3.663533 0
M  V30 40 H 2.071846 2.941688 2.045207 0
M  V30 41 H 2.378745 3.905510 -0.153545 0
M  V30 42 H -1.804716 3.518370 -2.209251 0
M  V30 43 H -2.645571 2.142130 -1.369152 0
M  V30 44 H -0.943960 1.987202 -3.672731 0
M  V30 45 H -1.342207 -1.820356 0.080696 0
M  V30 46 H 0.538213 -5.357005 -1.552364 0
M  V30 47 H -0.614297 -4.851471 -1.536744 0
M  V30 48 H 0.925808 -3.268310 -5.926458 0
M  V30 49 H 0.638514 -0.908296 -6.604825 0
M  V30 50 H -0.235370 0.678891 -4.970506 0
M  V30 51 H -1.786133 1.505284 0.781672 0
M  V30 52 H -0.863841 0.969056 5.383780 0
M  V30 53 H -1.110368 -0.419902 7.359104 0
M  V30 END ATOM
M  V30 BEGIN BOND
M  V30 1 1 1 2
M  V30 2 1 2 3
M  V30 3 2 3 4
M  V30 4 1 4 5
M  V30 5 2 5 6
M  V30 6 1 6 7
M  V30 7 2 7 8
M  V30 8 1 7 9
M  V30 9 1 9 10
M  V30 10 2 10 11
M  V30 11 1 11 12
M  V30 12 2 12 13
M  V30 13 1 13 14
M  V30 14 1 13 15
M  V30 15 1 15 16
M  V30 16 1 16 17
M  V30 17 1 17 18
M  V30 18 2 18 19
M  V30 19 1 19 20
M  V30 20 2 20 21
M  V30 21 1 21 22
M  V30 22 2 22 23
M  V30 23 1 23 24
M  V30 24 1 24 25
M  V30 25 2 24 26
M  V30 26 1 23 27
M  V30 27 2 27 28
M  V30 28 1 28 29
M  V30 29 2 29 30
M  V30 30 2 15 31
M  V30 31 1 6 32
M  V30 32 2 32 33
M  V30 33 1 33 3
M  V30 34 1 31 10
M  V30 35 1 30 18
M  V30 36 1 30 22
M  V30 37 1 1 34
M  V30 38 1 1 35
M  V30 39 1 1 36
M  V30 40 1 4 37
M  V30 41 1 5 38
M  V30 42 1 9 39
M  V30 43 1 11 40
M  V30 44 1 12 41
M  V30 45 1 16 42
M  V30 46 1 16 43
M  V30 47 1 17 44
M  V30 48 1 20 45
M  V30 49 1 25 46
M  V30 50 1 25 47
M  V30 51 1 27 48
M  V30 52 1 28 49
M  V30 53 1 29 50
M  V30 54 1 31 51
M  V30 55 1 32 52
M  V30 56 1 33 53
M  V30 END BOND
M  V30 END CTAB
M  END
>  <Dataset>  (15) 
ChEMBL_Kinases

>  <Ligand_Instance>  (15) 
nan

>  <PDB_ID>  (15) 
nan

>  <Standardized_SMILES>  (15) 
COc1ccc(C(=O)Nc2ccc(F)c(CNc3ncnc4c(C(N)=O)cccc34)c2)cc1

>  <Name>  (15) 
nan

>  <Pocket>  (15) 
nan

>  <ATP_Site>  (15) 
nan

>  <Peripheral>  (15) 
nan

>  <Num_H_Atoms_ProtBoundConf>  (15) 
nan

>  <Num_Resolved_Atoms>  (15) 
nan

>  <Num_Not_Resolved_Atoms>  (15) 
nan

$$$$
CHEMBL4291402
     RDKit          3D

  0  0  0  0  0  0  0  0  0  0999 V3000
M  V30 BEGIN CTAB
M  V30 COUNTS 54 57 0 0 0
M  V30 BEGIN ATOM
M  V30 1 C 1.086461 -5.951212 -0.748069 0
M  V30 2 O 0.797378 -4.572789 -0.596152 0
M  V30 3 C 1.596870 -3.857479 0.286652 0
M  V30 4 C 2.623037 -4.414410 0.995254 0
M  V30 5 C 3.442431 -3.747532 1.880981 0
M  V30 6 C 3.169965 -2.404427 2.036813 0
M  V30 7 C 2.158031 -1.745197 1.369705 0
M  V30 8 O 1.880529 -0.393501 1.523746 0
M  V30 9 C 2.689600 0.342247 2.420572 0
M  V30 10 C 2.266710 1.757321 2.469719 0
M  V30 11 C 1.212040 2.177722 1.697274 0
M  V30 12 C 0.860127 3.507666 1.782043 0
M  V30 13 C -0.260442 4.137778 1.014162 0
M  V30 14 C 1.564000 4.346708 2.619908 0
M  V30 15 C 2.626781 3.909145 3.394282 0
M  V30 16 N 2.934523 2.587386 3.274447 0
M  V30 17 C 1.381032 -2.490503 0.497307 0
M  V30 18 C 0.299429 -1.813107 -0.223444 0
M  V30 19 C 0.371135 -1.190029 -1.453352 0
M  V30 20 C -0.756917 -0.598943 -1.984253 0
M  V30 21 C -1.969313 -0.613403 -1.312054 0
M  V30 22 C -2.015969 -1.242010 -0.084886 0
M  V30 23 C -0.891802 -1.851138 0.482583 0
M  V30 24 C -3.213531 -1.381465 0.818538 0
M  V30 25 C -4.299455 -1.993367 -0.056645 0
M  V30 26 N -4.901622 -1.010419 -0.911959 0
M  V30 27 C -4.266564 -0.834869 -2.181844 0
M  V30 28 C -3.044390 0.081876 -2.070460 0
M  V30 29 H 2.145564 -6.117794 -1.023386 0
M  V30 30 H 0.367222 -6.498411 -1.357597 0
M  V30 31 H 1.004046 -6.376879 0.291155 0
M  V30 32 H 2.820639 -5.483795 0.854829 0
M  V30 33 H 4.241053 -4.244788 2.414082 0
M  V30 34 H 3.764148 -1.808516 2.711412 0
M  V30 35 H 3.756443 0.325272 2.139962 0
M  V30 36 H 2.594814 -0.130129 3.419899 0
M  V30 37 H 0.648992 1.551519 1.039977 0
M  V30 38 H -0.794201 3.409598 0.378521 0
M  V30 39 H 0.179641 4.960437 0.382964 0
M  V30 40 H -0.970948 4.584442 1.721565 0
M  V30 41 H 1.334456 5.415124 2.733079 0
M  V30 42 H 3.206723 4.519195 4.061220 0
M  V30 43 H 1.347998 -1.219302 -1.916678 0
M  V30 44 H -0.648346 -0.120080 -2.957916 0
M  V30 45 H -1.043221 -2.311771 1.444167 0
M  V30 46 H -2.976679 -2.084851 1.637408 0
M  V30 47 H -3.573930 -0.404189 1.147742 0
M  V30 48 H -5.031632 -2.548378 0.559773 0
M  V30 49 H -3.818038 -2.753607 -0.715790 0
M  V30 50 H -5.087484 -0.099188 -0.477354 0
M  V30 51 H -3.885471 -1.770412 -2.616459 0
M  V30 52 H -4.981311 -0.378427 -2.889619 0
M  V30 53 H -2.683527 0.367423 -3.061141 0
M  V30 54 H -3.366066 0.952005 -1.453980 0
M  V30 END ATOM
M  V30 BEGIN BOND
M  V30 1 1 1 2
M  V30 2 1 2 3
M  V30 3 2 3 4
M  V30 4 1 4 5
M  V30 5 2 5 6
M  V30 6 1 6 7
M  V30 7 1 7 8
M  V30 8 1 8 9
M  V30 9 1 9 10
M  V30 10 2 10 11
M  V30 11 1 11 12
M  V30 12 1 12 13
M  V30 13 2 12 14
M  V30 14 1 14 15
M  V30 15 2 15 16
M  V30 16 2 7 17
M  V30 17 1 17 18
M  V30 18 2 18 19
M  V30 19 1 19 20
M  V30 20 2 20 21
M  V30 21 1 21 22
M  V30 22 2 22 23
M  V30 23 1 22 24
M  V30 24 1 24 25
M  V30 25 1 25 26
M  V30 26 1 26 27
M  V30 27 1 27 28
M  V30 28 1 17 3
M  V30 29 1 23 18
M  V30 30 1 16 10
M  V30 31 1 28 21
M  V30 32 1 1 29
M  V30 33 1 1 30
M  V30 34 1 1 31
M  V30 35 1 4 32
M  V30 36 1 5 33
M  V30 37 1 6 34
M  V30 38 1 9 35
M  V30 39 1 9 36
M  V30 40 1 11 37
M  V30 41 1 13 38
M  V30 42 1 13 39
M  V30 43 1 13 40
M  V30 44 1 14 41
M  V30 45 1 15 42
M  V30 46 1 19 43
M  V30 47 1 20 44
M  V30 48 1 23 45
M  V30 49 1 24 46
M  V30 50 1 24 47
M  V30 51 1 25 48
M  V30 52 1 25 49
M  V30 53 1 26 50
M  V30 54 1 27 51
M  V30 55 1 27 52
M  V30 56 1 28 53
M  V30 57 1 28 54
M  V30 END BOND
M  V30 END CTAB
M  END
>  <Dataset>  (16) 
ChEMBL_Kinases

>  <Ligand_Instance>  (16) 
nan

>  <PDB_ID>  (16) 
nan

>  <Standardized_SMILES>  (16) 
COc1cccc(OCc2cc(C)ccn2)c1-c1ccc2c(c1)CCNCC2

>  <Name>  (16) 
nan

>  <Pocket>  (16) 
nan

>  <ATP_Site>  (16) 
nan

>  <Peripheral>  (16) 
nan

>  <Num_H_Atoms_ProtBoundConf>  (16) 
nan

>  <Num_Resolved_Atoms>  (16) 
nan

>  <Num_Not_Resolved_Atoms>  (16) 
nan

$$$$
CHEMBL3685264
     RDKit          3D

  0  0  0  0  0  0  0  0  0  0999 V3000
M  V30 BEGIN CTAB
M  V30 COUNTS 57 60 0 0 0
M  V30 BEGIN ATOM
M  V30 1 N 2.927053 -3.908340 4.413073 0
M  V30 2 C 3.466078 -2.800788 5.123322 0
M  V30 3 O 3.927039 -3.111572 6.259911 0
M  V30 4 C 3.524547 -1.417135 4.668505 0
M  V30 5 C 4.100033 -0.515559 5.536946 0
M  V30 6 C 4.152419 0.806377 5.094208 0
M  V30 7 C 3.645076 1.135327 3.855649 0
M  V30 8 C 3.073421 0.223920 2.999681 0
M  V30 9 C 2.592768 0.651053 1.779364 0
M  V30 10 N 2.641293 1.990119 1.314826 0
M  V30 11 C 2.136955 2.427939 0.046845 0
M  V30 12 C 0.720464 2.251850 -0.200771 0
M  V30 13 C -0.093674 3.299262 0.255572 0
M  V30 14 C -1.478097 3.310978 0.105309 0
M  V30 15 C -2.106078 2.254945 -0.518351 0
M  V30 16 C -1.337772 1.210778 -0.978427 0
M  V30 17 N -1.887862 0.079266 -1.622083 0
M  V30 18 C -2.170068 -0.177689 -2.978000 0
M  V30 19 O -1.858993 0.807155 -3.694827 0
M  V30 20 C -2.735358 -1.367409 -3.569795 0
M  V30 21 C -2.928668 -1.376353 -4.939793 0
M  V30 22 C -3.456641 -2.442032 -5.614184 0
M  V30 23 C -3.822103 -3.566728 -4.936638 0
M  V30 24 C -3.659327 -3.631002 -3.570542 0
M  V30 25 C -3.122573 -2.525927 -2.950789 0
M  V30 26 O -2.964332 -2.603185 -1.584103 0
M  V30 27 C -3.309448 -3.715295 -0.798420 0
M  V30 28 C -2.999022 -3.458906 0.678294 0
M  V30 29 O -3.739919 -2.351730 1.087707 0
M  V30 30 C 0.029101 1.230688 -0.814011 0
M  V30 31 N 2.064010 -0.348569 1.054264 0
M  V30 32 C 2.002507 -1.609725 1.450938 0
M  V30 33 N 2.467269 -2.030690 2.634908 0
M  V30 34 C 3.018990 -1.088809 3.434061 0
M  V30 35 H 3.335744 -4.637815 3.788199 0
M  V30 36 H 1.973563 -4.329358 4.297029 0
M  V30 37 H 4.489035 -0.787340 6.495146 0
M  V30 38 H 4.606020 1.513917 5.780234 0
M  V30 39 H 3.748891 2.179659 3.641483 0
M  V30 40 H 3.064975 2.730696 1.912847 0
M  V30 41 H 2.415638 3.486430 -0.109311 0
M  V30 42 H 2.720166 1.868254 -0.741667 0
M  V30 43 H 0.317213 4.180732 0.763485 0
M  V30 44 H -2.063708 4.139536 0.472538 0
M  V30 45 H -3.167973 2.205190 -0.664300 0
M  V30 46 H -2.099608 -0.652338 -0.917827 0
M  V30 47 H -2.651944 -0.498715 -5.525263 0
M  V30 48 H -3.580313 -2.386571 -6.676674 0
M  V30 49 H -4.247468 -4.440331 -5.430356 0
M  V30 50 H -3.936772 -4.504619 -3.006627 0
M  V30 51 H -2.676508 -4.569121 -1.163308 0
M  V30 52 H -4.378868 -3.956662 -0.897570 0
M  V30 53 H -3.252367 -4.377311 1.242038 0
M  V30 54 H -1.913614 -3.273744 0.811651 0
M  V30 55 H -3.642621 -2.187494 2.057762 0
M  V30 56 H 0.650097 0.424289 -1.175577 0
M  V30 57 H 1.533350 -2.273247 0.714509 0
M  V30 END ATOM
M  V30 BEGIN BOND
M  V30 1 1 1 2
M  V30 2 2 2 3
M  V30 3 1 2 4
M  V30 4 2 4 5
M  V30 5 1 5 6
M  V30 6 2 6 7
M  V30 7 1 7 8
M  V30 8 2 8 9
M  V30 9 1 9 10
M  V30 10 1 10 11
M  V30 11 1 11 12
M  V30 12 2 12 13
M  V30 13 1 13 14
M  V30 14 2 14 15
M  V30 15 1 15 16
M  V30 16 1 16 17
M  V30 17 1 17 18
M  V30 18 2 18 19
M  V30 19 1 18 20
M  V30 20 2 20 21
M  V30 21 1 21 22
M  V30 22 2 22 23
M  V30 23 1 23 24
M  V30 24 2 24 25
M  V30 25 1 25 26
M  V30 26 1 26 27
M  V30 27 1 27 28
M  V30 28 1 28 29
M  V30 29 2 16 30
M  V30 30 1 9 31
M  V30 31 2 31 32
M  V30 32 1 32 33
M  V30 33 2 33 34
M  V30 34 1 34 4
M  V30 35 1 34 8
M  V30 36 1 30 12
M  V30 37 1 25 20
M  V30 38 1 1 35
M  V30 39 1 1 36
M  V30 40 1 5 37
M  V30 41 1 6 38
M  V30 42 1 7 39
M  V30 43 1 10 40
M  V30 44 1 11 41
M  V30 45 1 11 42
M  V30 46 1 13 43
M  V30 47 1 14 44
M  V30 48 1 15 45
M  V30 49 1 17 46
M  V30 50 1 21 47
M  V30 51 1 22 48
M  V30 52 1 23 49
M  V30 53 1 24 50
M  V30 54 1 27 51
M  V30 55 1 27 52
M  V30 56 1 28 53
M  V30 57 1 28 54
M  V30 58 1 29 55
M  V30 59 1 30 56
M  V30 60 1 32 57
M  V30 END BOND
M  V30 END CTAB
M  END
>  <Dataset>  (17) 
ChEMBL_Kinases

>  <Ligand_Instance>  (17) 
nan

>  <PDB_ID>  (17) 
nan

>  <Standardized_SMILES>  (17) 
NC(=O)c1cccc2c(NCc3cccc(NC(=O)c4ccccc4OCCO)c3)ncnc12

>  <Name>  (17) 
nan

>  <Pocket>  (17) 
nan

>  <ATP_Site>  (17) 
nan

>  <Peripheral>  (17) 
nan

>  <Num_H_Atoms_ProtBoundConf>  (17) 
nan

>  <Num_Resolved_Atoms>  (17) 
nan

>  <Num_Not_Resolved_Atoms>  (17) 
nan

$$$$
CHEMBL3701761
     RDKit          3D

  0  0  0  0  0  0  0  0  0  0999 V3000
M  V30 BEGIN CTAB
M  V30 COUNTS 58 63 0 0 0
M  V30 BEGIN ATOM
M  V30 1 C 6.418781 1.188331 2.745440 0
M  V30 2 C 5.006443 0.899783 2.274912 0
M  V30 3 O 4.295516 0.273408 3.285144 0
M  V30 4 C 4.912661 0.107942 0.995432 0
M  V30 5 C 3.961420 1.146645 0.402500 0
M  V30 6 N 4.430059 1.609855 -0.867810 0
M  V30 7 C 2.586358 0.601300 0.412152 0
M  V30 8 C 1.645167 0.714836 1.402804 0
M  V30 9 C 0.390239 0.143787 1.266905 0
M  V30 10 C 0.085883 -0.551183 0.111919 0
M  V30 11 C -1.249906 -1.135318 0.016452 0
M  V30 12 N -1.228303 -2.499619 -0.076371 0
M  V30 13 C -2.509147 -2.940082 -0.159716 0
M  V30 14 N -3.325295 -1.852382 -0.118842 0
M  V30 15 C -2.572367 -0.741703 -0.011363 0
M  V30 16 C -2.807728 0.695075 0.077314 0
M  V30 17 C -3.510539 1.326056 1.082941 0
M  V30 18 C -3.650951 2.705352 1.030472 0
M  V30 19 C -3.127157 3.489089 0.027564 0
M  V30 20 C -2.427716 2.837983 -0.968573 0
M  V30 21 C -2.271311 1.471485 -0.944610 0
M  V30 22 C -4.761675 -1.869139 -0.179608 0
M  V30 23 O -5.293491 -3.166878 -0.291181 0
M  V30 24 C -4.561981 -4.322101 -0.340249 0
M  V30 25 C -5.146386 -5.568576 -0.450301 0
M  V30 26 C -4.382201 -6.740021 -0.499086 0
M  V30 27 C -3.000373 -6.599235 -0.431960 0
M  V30 28 C -2.128200 -7.753771 -0.475062 0
M  V30 29 N -1.425338 -8.692927 -0.523454 0
M  V30 30 C -2.385779 -5.381297 -0.322638 0
M  V30 31 C -3.186604 -4.244810 -0.277713 0
M  V30 32 C 1.004887 -0.689201 -0.910089 0
M  V30 33 C 2.266308 -0.100999 -0.744946 0
M  V30 34 C 4.324844 2.029654 1.559945 0
M  V30 35 H 6.711301 2.167381 2.295164 0
M  V30 36 H 7.101750 0.421971 2.344928 0
M  V30 37 H 6.482618 1.190945 3.856007 0
M  V30 38 H 4.563932 0.535741 4.201357 0
M  V30 39 H 5.899809 0.074128 0.488874 0
M  V30 40 H 4.497256 -0.913743 1.087114 0
M  V30 41 H 5.336193 2.123325 -0.708179 0
M  V30 42 H 4.593335 0.889227 -1.583996 0
M  V30 43 H 1.944293 1.262187 2.263570 0
M  V30 44 H -0.287226 0.284058 2.097824 0
M  V30 45 H -3.920076 0.708431 1.867847 0
M  V30 46 H -4.198891 3.213542 1.811882 0
M  V30 47 H -3.271561 4.559892 0.043385 0
M  V30 48 H -2.019870 3.481176 -1.755552 0
M  V30 49 H -1.701489 1.083762 -1.785522 0
M  V30 50 H -5.128589 -1.257223 -1.030602 0
M  V30 51 H -5.235381 -1.422340 0.736948 0
M  V30 52 H -6.211498 -5.681892 -0.502617 0
M  V30 53 H -4.766472 -7.728679 -0.583184 0
M  V30 54 H -1.308208 -5.258119 -0.269475 0
M  V30 55 H 0.729698 -1.242818 -1.804039 0
M  V30 56 H 2.914629 -0.269162 -1.608670 0
M  V30 57 H 5.107548 2.780588 1.247330 0
M  V30 58 H 3.535386 2.568427 2.078547 0
M  V30 END ATOM
M  V30 BEGIN BOND
M  V30 1 1 1 2
M  V30 2 1 2 3
M  V30 3 1 2 4
M  V30 4 1 4 5
M  V30 5 1 5 6
M  V30 6 1 5 7
M  V30 7 2 7 8
M  V30 8 1 8 9
M  V30 9 2 9 10
M  V30 10 1 10 11
M  V30 11 1 11 12
M  V30 12 2 12 13
M  V30 13 1 13 14
M  V30 14 1 14 15
M  V30 15 1 15 16
M  V30 16 2 16 17
M  V30 17 1 17 18
M  V30 18 2 18 19
M  V30 19 1 19 20
M  V30 20 2 20 21
M  V30 21 1 14 22
M  V30 22 1 22 23
M  V30 23 1 23 24
M  V30 24 2 24 25
M  V30 25 1 25 26
M  V30 26 2 26 27
M  V30 27 1 27 28
M  V30 28 3 28 29
M  V30 29 1 27 30
M  V30 30 2 30 31
M  V30 31 1 10 32
M  V30 32 2 32 33
M  V30 33 1 5 34
M  V30 34 1 34 2
M  V30 35 1 33 7
M  V30 36 2 15 11
M  V30 37 1 21 16
M  V30 38 1 31 24
M  V30 39 1 31 13
M  V30 40 1 1 35
M  V30 41 1 1 36
M  V30 42 1 1 37
M  V30 43 1 3 38
M  V30 44 1 4 39
M  V30 45 1 4 40
M  V30 46 1 6 41
M  V30 47 1 6 42
M  V30 48 1 8 43
M  V30 49 1 9 44
M  V30 50 1 17 45
M  V30 51 1 18 46
M  V30 52 1 19 47
M  V30 53 1 20 48
M  V30 54 1 21 49
M  V30 55 1 22 50
M  V30 56 1 22 51
M  V30 57 1 25 52
M  V30 58 1 26 53
M  V30 59 1 30 54
M  V30 60 1 32 55
M  V30 61 1 33 56
M  V30 62 1 34 57
M  V30 63 1 34 58
M  V30 END BOND
M  V30 END CTAB
M  END
>  <Dataset>  (18) 
ChEMBL_Kinases

>  <Ligand_Instance>  (18) 
nan

>  <PDB_ID>  (18) 
nan

>  <Standardized_SMILES>  (18) 
CC1(O)CC(N)(c2ccc(-c3nc4n(c3-c3ccccc3)COc3ccc(C#N)cc3-4)cc2)C1

>  <Name>  (18) 
nan

>  <Pocket>  (18) 
nan

>  <ATP_Site>  (18) 
nan

>  <Peripheral>  (18) 
nan

>  <Num_H_Atoms_ProtBoundConf>  (18) 
nan

>  <Num_Resolved_Atoms>  (18) 
nan

>  <Num_Not_Resolved_Atoms>  (18) 
nan

$$$$
CHEMBL3685262
     RDKit          3D

  0  0  0  0  0  0  0  0  0  0999 V3000
M  V30 BEGIN CTAB
M  V30 COUNTS 49 52 0 0 0
M  V30 BEGIN ATOM
M  V30 1 N 2.537299 -4.755126 4.012382 0
M  V30 2 C 3.886003 -4.332335 3.869869 0
M  V30 3 O 4.768285 -4.828120 4.621904 0
M  V30 4 C 4.257409 -3.334189 2.865656 0
M  V30 5 C 5.571622 -2.951307 2.769535 0
M  V30 6 C 5.886452 -2.009639 1.813684 0
M  V30 7 C 4.887300 -1.504754 1.013226 0
M  V30 8 C 3.561899 -1.868453 1.085425 0
M  V30 9 C 2.606185 -1.328149 0.255503 0
M  V30 10 N 2.929515 -0.360935 -0.728596 0
M  V30 11 C 1.997493 0.265260 -1.645665 0
M  V30 12 C 0.962177 1.025567 -0.900251 0
M  V30 13 C 1.297761 2.331760 -0.531598 0
M  V30 14 C 0.467190 3.215179 0.159396 0
M  V30 15 C -0.773370 2.753766 0.497756 0
M  V30 16 C -1.149354 1.471138 0.154996 0
M  V30 17 N -2.418575 0.916606 0.469575 0
M  V30 18 C -3.450620 1.097507 -0.491227 0
M  V30 19 O -3.168140 1.723138 -1.527240 0
M  V30 20 C -4.788529 0.562553 -0.256165 0
M  V30 21 C -5.199077 -0.137186 0.845951 0
M  V30 22 C -6.486475 -0.607360 0.985321 0
M  V30 23 C -7.433926 -0.391325 0.006595 0
M  V30 24 Cl -9.085679 -0.950406 0.100316 0
M  V30 25 C -7.068909 0.311149 -1.127964 0
M  V30 26 C -5.760562 0.769311 -1.231805 0
M  V30 27 C -0.304037 0.630377 -0.525818 0
M  V30 28 N 1.381574 -1.796497 0.466215 0
M  V30 29 C 1.069109 -2.709901 1.391714 0
M  V30 30 N 2.020285 -3.234438 2.203209 0
M  V30 31 C 3.291757 -2.808915 2.051034 0
M  V30 32 H 1.868698 -5.536222 3.837634 0
M  V30 33 H 2.075285 -3.932421 4.476246 0
M  V30 34 H 6.280837 -3.402989 3.439811 0
M  V30 35 H 6.919960 -1.717091 1.747198 0
M  V30 36 H 5.246367 -0.777587 0.303749 0
M  V30 37 H 3.889903 -0.027600 -0.859464 0
M  V30 38 H 1.439683 -0.502228 -2.237662 0
M  V30 39 H 2.502186 0.985113 -2.316901 0
M  V30 40 H 2.286429 2.728126 -0.790609 0
M  V30 41 H 0.822636 4.207669 0.397689 0
M  V30 42 H -1.468188 3.389267 1.036015 0
M  V30 43 H -2.568857 0.403992 1.366708 0
M  V30 44 H -4.465937 -0.309946 1.613491 0
M  V30 45 H -6.797752 -1.159144 1.861469 0
M  V30 46 H -7.745782 0.522049 -1.936486 0
M  V30 47 H -5.485625 1.317674 -2.123631 0
M  V30 48 H -0.576734 -0.365625 -0.811607 0
M  V30 49 H 0.077728 -3.094766 1.569019 0
M  V30 END ATOM
M  V30 BEGIN BOND
M  V30 1 1 1 2
M  V30 2 2 2 3
M  V30 3 1 2 4
M  V30 4 2 4 5
M  V30 5 1 5 6
M  V30 6 2 6 7
M  V30 7 1 7 8
M  V30 8 2 8 9
M  V30 9 1 9 10
M  V30 10 1 10 11
M  V30 11 1 11 12
M  V30 12 2 12 13
M  V30 13 1 13 14
M  V30 14 2 14 15
M  V30 15 1 15 16
M  V30 16 1 16 17
M  V30 17 1 17 18
M  V30 18 2 18 19
M  V30 19 1 18 20
M  V30 20 2 20 21
M  V30 21 1 21 22
M  V30 22 2 22 23
M  V30 23 1 23 24
M  V30 24 1 23 25
M  V30 25 2 25 26
M  V30 26 2 16 27
M  V30 27 1 9 28
M  V30 28 2 28 29
M  V30 29 1 29 30
M  V30 30 2 30 31
M  V30 31 1 31 4
M  V30 32 1 31 8
M  V30 33 1 27 12
M  V30 34 1 26 20
M  V30 35 1 1 32
M  V30 36 1 1 33
M  V30 37 1 5 34
M  V30 38 1 6 35
M  V30 39 1 7 36
M  V30 40 1 10 37
M  V30 41 1 11 38
M  V30 42 1 11 39
M  V30 43 1 13 40
M  V30 44 1 14 41
M  V30 45 1 15 42
M  V30 46 1 17 43
M  V30 47 1 21 44
M  V30 48 1 22 45
M  V30 49 1 25 46
M  V30 50 1 26 47
M  V30 51 1 27 48
M  V30 52 1 29 49
M  V30 END BOND
M  V30 END CTAB
M  END
>  <Dataset>  (19) 
ChEMBL_Kinases

>  <Ligand_Instance>  (19) 
nan

>  <PDB_ID>  (19) 
nan

>  <Standardized_SMILES>  (19) 
NC(=O)c1cccc2c(NCc3cccc(NC(=O)c4ccc(Cl)cc4)c3)ncnc12

>  <Name>  (19) 
nan

>  <Pocket>  (19) 
nan

>  <ATP_Site>  (19) 
nan

>  <Peripheral>  (19) 
nan

>  <Num_H_Atoms_ProtBoundConf>  (19) 
nan

>  <Num_Resolved_Atoms>  (19) 
nan

>  <Num_Not_Resolved_Atoms>  (19) 
nan

$$$$
CHEMBL4291350
     RDKit          3D

  0  0  0  0  0  0  0  0  0  0999 V3000
M  V30 BEGIN CTAB
M  V30 COUNTS 26 27 0 0 0
M  V30 BEGIN ATOM
M  V30 1 C 1.914722 -2.544506 4.379330 0
M  V30 2 O 0.680785 -2.181222 3.789556 0
M  V30 3 C 0.631186 -1.507543 2.574366 0
M  V30 4 N 1.698644 -1.136676 1.844808 0
M  V30 5 C 1.509260 -0.479822 0.667799 0
M  V30 6 C 0.235099 -0.179927 0.196304 0
M  V30 7 C 0.046786 0.520378 -1.066652 0
M  V30 8 C -1.062374 1.348862 -1.179375 0
M  V30 9 C -1.359760 2.067882 -2.322428 0
M  V30 10 N -0.519959 1.949854 -3.377320 0
M  V30 11 C 0.559186 1.155573 -3.292940 0
M  V30 12 C 0.860345 0.444629 -2.174680 0
M  V30 13 C -0.859951 -0.566376 0.955157 0
M  V30 14 C -0.673812 -1.240449 2.163952 0
M  V30 15 N -1.826502 -1.613533 2.906283 0
M  V30 16 H 2.711122 -2.602753 3.609650 0
M  V30 17 H 1.831485 -3.474415 4.975009 0
M  V30 18 H 2.208544 -1.746332 5.091421 0
M  V30 19 H 2.394301 -0.191227 0.099023 0
M  V30 20 H -1.777781 1.483725 -0.359940 0
M  V30 21 H -2.241316 2.715584 -2.388406 0
M  V30 22 H 1.244342 1.054301 -4.137617 0
M  V30 23 H 1.727353 -0.202760 -2.085267 0
M  V30 24 H -1.866442 -0.349257 0.619344 0
M  V30 25 H -1.795354 -2.619128 3.176629 0
M  V30 26 H -2.493951 -0.841790 3.054137 0
M  V30 END ATOM
M  V30 BEGIN BOND
M  V30 1 1 1 2
M  V30 2 1 2 3
M  V30 3 2 3 4
M  V30 4 1 4 5
M  V30 5 2 5 6
M  V30 6 1 6 7
M  V30 7 2 7 8
M  V30 8 1 8 9
M  V30 9 2 9 10
M  V30 10 1 10 11
M  V30 11 2 11 12
M  V30 12 1 6 13
M  V30 13 2 13 14
M  V30 14 1 14 15
M  V30 15 1 14 3
M  V30 16 1 12 7
M  V30 17 1 1 16
M  V30 18 1 1 17
M  V30 19 1 1 18
M  V30 20 1 5 19
M  V30 21 1 8 20
M  V30 22 1 9 21
M  V30 23 1 11 22
M  V30 24 1 12 23
M  V30 25 1 13 24
M  V30 26 1 15 25
M  V30 27 1 15 26
M  V30 END BOND
M  V30 END CTAB
M  END
>  <Dataset>  (20) 
ChEMBL_Kinases

>  <Ligand_Instance>  (20) 
nan

>  <PDB_ID>  (20) 
nan

>  <Standardized_SMILES>  (20) 
COc1ncc(-c2ccncc2)cc1N

>  <Name>  (20) 
nan

>  <Pocket>  (20) 
nan

>  <ATP_Site>  (20) 
nan

>  <Peripheral>  (20) 
nan

>  <Num_H_Atoms_ProtBoundConf>  (20) 
nan

>  <Num_Resolved_Atoms>  (20) 
nan

>  <Num_Not_Resolved_Atoms>  (20) 
nan

$$$$
CHEMBL3685256
     RDKit          3D

  0  0  0  0  0  0  0  0  0  0999 V3000
M  V30 BEGIN CTAB
M  V30 COUNTS 64 68 0 0 0
M  V30 BEGIN ATOM
M  V30 1 N 6.512866 3.274781 3.665252 0
M  V30 2 C 6.747485 2.634539 2.416574 0
M  V30 3 O 7.880609 2.099236 2.318297 0
M  V30 4 C 5.805466 2.568192 1.311546 0
M  V30 5 C 6.235292 1.901325 0.186703 0
M  V30 6 C 5.344224 1.831721 -0.873709 0
M  V30 7 C 4.104850 2.416472 -0.756096 0
M  V30 8 C 3.662347 3.078150 0.343802 0
M  V30 9 C 2.415478 3.645736 0.415643 0
M  V30 10 N 1.498103 3.588729 -0.659783 0
M  V30 11 C 0.160272 4.151817 -0.682806 0
M  V30 12 C -0.743768 3.545589 0.331444 0
M  V30 13 C -1.062783 3.947266 1.609609 0
M  V30 14 C -1.925748 3.208367 2.379138 0
M  V30 15 C -2.529741 2.041701 1.960423 0
M  V30 16 C -2.217830 1.630308 0.682182 0
M  V30 17 N -2.816932 0.414873 0.181213 0
M  V30 18 C -1.991706 -0.679134 0.502430 0
M  V30 19 O -0.943476 -0.400128 1.134125 0
M  V30 20 C -2.299673 -2.055896 0.142877 0
M  V30 21 C -1.477771 -3.011226 0.481614 0
M  V30 22 C -1.560587 -4.452641 0.241857 0
M  V30 23 C -2.777616 -4.880719 -0.526039 0
M  V30 24 N -3.542383 -5.837132 0.217363 0
M  V30 25 C -4.746561 -6.286901 -0.457616 0
M  V30 26 C -4.446893 -7.061474 -1.699997 0
M  V30 27 O -3.145640 -7.455357 -1.858878 0
M  V30 28 C -2.475693 -7.833858 -0.724618 0
M  V30 29 C -2.797756 -7.059802 0.511498 0
M  V30 30 C -3.655568 -3.722253 -0.867035 0
M  V30 31 C -3.480042 -2.438860 -0.587125 0
M  V30 32 C -1.351735 2.363303 -0.102375 0
M  V30 33 N 2.076319 4.275415 1.547753 0
M  V30 34 C 2.962381 4.322483 2.550476 0
M  V30 35 N 4.199626 3.779403 2.525925 0
M  V30 36 C 4.563720 3.135008 1.384749 0
M  V30 37 H 5.995743 2.464861 4.043354 0
M  V30 38 H 6.922900 4.244548 3.715574 0
M  V30 39 H 7.208510 1.447368 0.106871 0
M  V30 40 H 5.689347 1.301857 -1.763330 0
M  V30 41 H 3.506529 2.294228 -1.643353 0
M  V30 42 H 1.760270 3.105360 -1.544480 0
M  V30 43 H -0.277690 4.023159 -1.690110 0
M  V30 44 H 0.223111 5.261336 -0.541300 0
M  V30 45 H -0.582425 4.864346 1.902213 0
M  V30 46 H -2.129498 3.585196 3.373679 0
M  V30 47 H -3.192405 1.508571 2.601981 0
M  V30 48 H -3.710409 0.255543 -0.345793 0
M  V30 49 H -0.570105 -2.731878 1.034401 0
M  V30 50 H -1.502815 -4.938688 1.249412 0
M  V30 51 H -0.638921 -4.752077 -0.295578 0
M  V30 52 H -2.435626 -5.270135 -1.512779 0
M  V30 53 H -5.520012 -5.509024 -0.560763 0
M  V30 54 H -5.205006 -7.030158 0.263565 0
M  V30 55 H -4.728789 -6.394151 -2.567755 0
M  V30 56 H -5.146444 -7.944176 -1.786170 0
M  V30 57 H -1.383440 -7.630696 -0.936420 0
M  V30 58 H -2.496668 -8.943610 -0.561151 0
M  V30 59 H -3.537462 -7.693343 1.087359 0
M  V30 60 H -1.965505 -6.909843 1.204374 0
M  V30 61 H -4.560115 -3.947590 -1.419626 0
M  V30 62 H -4.192591 -1.701565 -0.892408 0
M  V30 63 H -1.178917 1.942810 -1.095090 0
M  V30 64 H 2.679764 4.833336 3.460621 0
M  V30 END ATOM
M  V30 BEGIN BOND
M  V30 1 1 1 2
M  V30 2 2 2 3
M  V30 3 1 2 4
M  V30 4 2 4 5
M  V30 5 1 5 6
M  V30 6 2 6 7
M  V30 7 1 7 8
M  V30 8 2 8 9
M  V30 9 1 9 10
M  V30 10 1 10 11
M  V30 11 1 11 12
M  V30 12 2 12 13
M  V30 13 1 13 14
M  V30 14 2 14 15
M  V30 15 1 15 16
M  V30 16 1 16 17
M  V30 17 1 17 18
M  V30 18 2 18 19
M  V30 19 1 18 20
M  V30 20 2 20 21
M  V30 21 1 21 22
M  V30 22 1 22 23
M  V30 23 1 23 24
M  V30 24 1 24 25
M  V30 25 1 25 26
M  V30 26 1 26 27
M  V30 27 1 27 28
M  V30 28 1 28 29
M  V30 29 1 23 30
M  V30 30 2 30 31
M  V30 31 2 16 32
M  V30 32 1 9 33
M  V30 33 2 33 34
M  V30 34 1 34 35
M  V30 35 2 35 36
M  V30 36 1 36 4
M  V30 37 1 36 8
M  V30 38 1 32 12
M  V30 39 1 31 20
M  V30 40 1 29 24
M  V30 41 1 1 37
M  V30 42 1 1 38
M  V30 43 1 5 39
M  V30 44 1 6 40
M  V30 45 1 7 41
M  V30 46 1 10 42
M  V30 47 1 11 43
M  V30 48 1 11 44
M  V30 49 1 13 45
M  V30 50 1 14 46
M  V30 51 1 15 47
M  V30 52 1 17 48
M  V30 53 1 21 49
M  V30 54 1 22 50
M  V30 55 1 22 51
M  V30 56 1 23 52
M  V30 57 1 25 53
M  V30 58 1 25 54
M  V30 59 1 26 55
M  V30 60 1 26 56
M  V30 61 1 28 57
M  V30 62 1 28 58
M  V30 63 1 29 59
M  V30 64 1 29 60
M  V30 65 1 30 61
M  V30 66 1 31 62
M  V30 67 1 32 63
M  V30 68 1 34 64
M  V30 END BOND
M  V30 END CTAB
M  END
>  <Dataset>  (21) 
ChEMBL_Kinases

>  <Ligand_Instance>  (21) 
nan

>  <PDB_ID>  (21) 
nan

>  <Standardized_SMILES>  (21) 
NC(=O)c1cccc2c(NCc3cccc(NC(=O)C4=CCC(N5CCOCC5)C=C4)c3)ncnc12

>  <Name>  (21) 
nan

>  <Pocket>  (21) 
nan

>  <ATP_Site>  (21) 
nan

>  <Peripheral>  (21) 
nan

>  <Num_H_Atoms_ProtBoundConf>  (21) 
nan

>  <Num_Resolved_Atoms>  (21) 
nan

>  <Num_Not_Resolved_Atoms>  (21) 
nan

$$$$
CHEMBL301226
     RDKit          3D

  0  0  0  0  0  0  0  0  0  0999 V3000
M  V30 BEGIN CTAB
M  V30 COUNTS 58 63 0 0 0
M  V30 BEGIN ATOM
M  V30 1 C 5.334462 0.222262 -0.004740 0
M  V30 2 O 4.274077 0.457891 -0.912293 0
M  V30 3 C 2.993762 0.133288 -0.511858 0
M  V30 4 C 2.784855 -0.406085 0.748261 0
M  V30 5 C 1.479958 -0.706279 1.081136 0
M  V30 6 C 0.369271 -0.500706 0.231866 0
M  V30 7 C -0.973010 -0.846936 0.667155 0
M  V30 8 C -1.904503 -0.074756 1.328518 0
M  V30 9 C -1.911747 1.224276 1.791931 0
M  V30 10 C -0.823175 2.052584 1.632385 0
M  V30 11 C -0.775615 3.361263 2.076385 0
M  V30 12 O 0.332296 4.185020 1.907206 0
M  V30 13 C 1.466906 3.655917 1.247494 0
M  V30 14 C -1.900941 3.843512 2.715677 0
M  V30 15 O -1.901597 5.153959 3.180378 0
M  V30 16 C -3.017927 3.087675 2.912716 0
M  V30 17 C -2.978352 1.802824 2.440895 0
M  V30 18 O -4.078652 1.076382 2.641359 0
M  V30 19 C -4.147905 -0.167899 2.229172 0
M  V30 20 O -5.205359 -0.791246 2.448337 0
M  V30 21 C -3.076921 -0.760842 1.573283 0
M  V30 22 N -2.892146 -1.994788 1.058975 0
M  V30 23 C -3.761990 -3.014914 1.059327 0
M  V30 24 C -3.455367 -4.234614 0.499249 0
M  V30 25 C -2.198933 -4.335465 -0.059483 0
M  V30 26 C -1.881599 -5.552506 -0.623366 0
M  V30 27 C -0.642954 -5.717402 -1.197734 0
M  V30 28 O -0.308562 -6.936972 -1.769630 0
M  V30 29 C 0.257808 -4.672829 -1.202351 0
M  V30 30 O 1.499740 -4.874234 -1.791068 0
M  V30 31 C 2.415488 -3.773080 -1.781866 0
M  V30 32 C -0.130923 -3.482614 -0.618229 0
M  V30 33 C -1.353835 -3.250996 -0.026727 0
M  V30 34 C -1.664058 -2.031650 0.534752 0
M  V30 35 C 0.664909 0.052376 -1.035054 0
M  V30 36 C 1.959223 0.363327 -1.397617 0
M  V30 37 O 2.221427 0.901650 -2.638649 0
M  V30 38 H 5.417938 -0.850026 0.289660 0
M  V30 39 H 6.321566 0.494334 -0.473875 0
M  V30 40 H 5.198628 0.790116 0.938926 0
M  V30 41 H 3.568215 -0.593869 1.452358 0
M  V30 42 H 1.297843 -1.133988 2.075280 0
M  V30 43 H 0.074436 1.730384 1.144327 0
M  V30 44 H 2.179402 4.511751 1.093639 0
M  V30 45 H 1.237356 3.195229 0.275386 0
M  V30 46 H 2.031404 2.933999 1.882555 0
M  V30 47 H -1.743519 5.879756 2.489488 0
M  V30 48 H -3.884424 3.484399 3.413967 0
M  V30 49 H -4.754508 -2.927474 1.503434 0
M  V30 50 H -4.173197 -5.035914 0.513930 0
M  V30 51 H -2.585532 -6.369234 -0.619892 0
M  V30 52 H -0.743802 -7.225577 -2.647667 0
M  V30 53 H 1.930427 -2.919084 -2.299849 0
M  V30 54 H 3.391485 -4.037285 -2.192154 0
M  V30 55 H 2.564471 -3.414054 -0.729211 0
M  V30 56 H 0.635113 -2.735578 -0.672545 0
M  V30 57 H -0.182342 0.214396 -1.695706 0
M  V30 58 H 2.895539 0.522479 -3.290578 0
M  V30 END ATOM
M  V30 BEGIN BOND
M  V30 1 1 1 2
M  V30 2 1 2 3
M  V30 3 2 3 4
M  V30 4 1 4 5
M  V30 5 2 5 6
M  V30 6 1 6 7
M  V30 7 1 7 8
M  V30 8 1 8 9
M  V30 9 2 9 10
M  V30 10 1 10 11
M  V30 11 1 11 12
M  V30 12 1 12 13
M  V30 13 2 11 14
M  V30 14 1 14 15
M  V30 15 1 14 16
M  V30 16 2 16 17
M  V30 17 1 17 18
M  V30 18 1 18 19
M  V30 19 2 19 20
M  V30 20 1 19 21
M  V30 21 1 21 22
M  V30 22 1 22 23
M  V30 23 2 23 24
M  V30 24 1 24 25
M  V30 25 2 25 26
M  V30 26 1 26 27
M  V30 27 1 27 28
M  V30 28 2 27 29
M  V30 29 1 29 30
M  V30 30 1 30 31
M  V30 31 1 29 32
M  V30 32 2 32 33
M  V30 33 1 33 34
M  V30 34 1 6 35
M  V30 35 2 35 36
M  V30 36 1 36 37
M  V30 37 1 36 3
M  V30 38 2 34 7
M  V30 39 2 21 8
M  V30 40 1 34 22
M  V30 41 1 17 9
M  V30 42 1 33 25
M  V30 43 1 1 38
M  V30 44 1 1 39
M  V30 45 1 1 40
M  V30 46 1 4 41
M  V30 47 1 5 42
M  V30 48 1 10 43
M  V30 49 1 13 44
M  V30 50 1 13 45
M  V30 51 1 13 46
M  V30 52 1 15 47
M  V30 53 1 16 48
M  V30 54 1 23 49
M  V30 55 1 24 50
M  V30 56 1 26 51
M  V30 57 1 28 52
M  V30 58 1 31 53
M  V30 59 1 31 54
M  V30 60 1 31 55
M  V30 61 1 32 56
M  V30 62 1 35 57
M  V30 63 1 37 58
M  V30 END BOND
M  V30 END CTAB
M  END
>  <Dataset>  (22) 
ChEMBL_Kinases

>  <Ligand_Instance>  (22) 
nan

>  <PDB_ID>  (22) 
nan

>  <Standardized_SMILES>  (22) 
COc1ccc(-c2c3c4cc(OC)c(O)cc4oc(=O)c3n3ccc4cc(O)c(OC)cc4c23)cc1O

>  <Name>  (22) 
nan

>  <Pocket>  (22) 
nan

>  <ATP_Site>  (22) 
nan

>  <Peripheral>  (22) 
nan

>  <Num_H_Atoms_ProtBoundConf>  (22) 
nan

>  <Num_Resolved_Atoms>  (22) 
nan

>  <Num_Not_Resolved_Atoms>  (22) 
nan

$$$$
CHEMBL4291146
     RDKit          3D

  0  0  0  0  0  0  0  0  0  0999 V3000
M  V30 BEGIN CTAB
M  V30 COUNTS 41 44 0 0 0
M  V30 BEGIN ATOM
M  V30 1 C -0.109562 -6.443214 2.551615 0
M  V30 2 O 0.666747 -5.926169 1.490094 0
M  V30 3 C 0.592151 -4.578230 1.217170 0
M  V30 4 C -0.231432 -3.785918 1.983636 0
M  V30 5 C -0.264139 -2.460256 1.667154 0
M  V30 6 C 0.388008 -1.756459 0.707865 0
M  V30 7 C 0.525511 -0.386208 0.316460 0
M  V30 8 N 1.105283 -0.165210 -0.827827 0
M  V30 9 C 1.410105 1.003736 -1.548025 0
M  V30 10 C 0.696162 2.203746 -1.395520 0
M  V30 11 N 1.220385 3.101595 -2.283898 0
M  V30 12 N 2.202256 2.478007 -2.938804 0
M  V30 13 C 2.357261 1.187565 -2.521355 0
M  V30 14 C 3.330616 0.176749 -2.997846 0
M  V30 15 N -0.385430 2.539782 -0.480071 0
M  V30 16 C -0.365810 1.936948 0.835543 0
M  V30 17 N -0.791730 2.828823 1.779859 0
M  V30 18 C -0.736289 2.457572 3.096016 0
M  V30 19 S -1.270135 3.545488 4.408080 0
M  V30 20 C -3.028203 3.246661 4.691948 0
M  V30 21 N -0.260965 1.221064 3.432139 0
M  V30 22 C 0.161145 0.331307 2.524794 0
M  V30 23 C 0.103761 0.693169 1.196056 0
M  V30 24 C 1.188321 -2.658065 -0.004279 0
M  V30 25 C 1.317166 -4.007131 0.202110 0
M  V30 26 H 0.167269 -7.499164 2.768311 0
M  V30 27 H -1.201488 -6.377750 2.316284 0
M  V30 28 H 0.127532 -5.838067 3.462129 0
M  V30 29 H -0.828353 -4.139637 2.788073 0
M  V30 30 H -0.973629 -1.825058 2.218984 0
M  V30 31 H 2.746774 2.970167 -3.668694 0
M  V30 32 H 4.382492 0.575944 -2.992550 0
M  V30 33 H 3.136279 -0.051114 -4.073059 0
M  V30 34 H 3.232833 -0.733703 -2.405855 0
M  V30 35 H -1.119663 3.190226 -0.731403 0
M  V30 36 H -3.448194 2.490400 3.980944 0
M  V30 37 H -3.206472 2.795627 5.702990 0
M  V30 38 H -3.650051 4.156204 4.532026 0
M  V30 39 H 0.593801 -0.608570 2.777844 0
M  V30 40 H 1.823215 -2.327071 -0.847741 0
M  V30 41 H 1.949308 -4.659835 -0.376116 0
M  V30 END ATOM
M  V30 BEGIN BOND
M  V30 1 1 1 2
M  V30 2 1 2 3
M  V30 3 2 3 4
M  V30 4 1 4 5
M  V30 5 2 5 6
M  V30 6 1 6 7
M  V30 7 2 7 8
M  V30 8 1 8 9
M  V30 9 1 9 10
M  V30 10 2 10 11
M  V30 11 1 11 12
M  V30 12 1 12 13
M  V30 13 1 13 14
M  V30 14 1 10 15
M  V30 15 1 15 16
M  V30 16 2 16 17
M  V30 17 1 17 18
M  V30 18 1 18 19
M  V30 19 1 19 20
M  V30 20 2 18 21
M  V30 21 1 21 22
M  V30 22 2 22 23
M  V30 23 1 6 24
M  V30 24 2 24 25
M  V30 25 1 25 3
M  V30 26 1 23 7
M  V30 27 2 13 9
M  V30 28 1 23 16
M  V30 29 1 1 26
M  V30 30 1 1 27
M  V30 31 1 1 28
M  V30 32 1 4 29
M  V30 33 1 5 30
M  V30 34 1 12 31
M  V30 35 1 14 32
M  V30 36 1 14 33
M  V30 37 1 14 34
M  V30 38 1 15 35
M  V30 39 1 20 36
M  V30 40 1 20 37
M  V30 41 1 20 38
M  V30 42 1 22 39
M  V30 43 1 24 40
M  V30 44 1 25 41
M  V30 END BOND
M  V30 END CTAB
M  END
>  <Dataset>  (23) 
ChEMBL_Kinases

>  <Ligand_Instance>  (23) 
nan

>  <PDB_ID>  (23) 
nan

>  <Standardized_SMILES>  (23) 
COc1ccc(C2=Nc3c(n[nH]c3C)Nc3nc(SC)ncc32)cc1

>  <Name>  (23) 
nan

>  <Pocket>  (23) 
nan

>  <ATP_Site>  (23) 
nan

>  <Peripheral>  (23) 
nan

>  <Num_H_Atoms_ProtBoundConf>  (23) 
nan

>  <Num_Resolved_Atoms>  (23) 
nan

>  <Num_Not_Resolved_Atoms>  (23) 
nan

$$$$
CHEMBL3685260
     RDKit          3D

  0  0  0  0  0  0  0  0  0  0999 V3000
M  V30 BEGIN CTAB
M  V30 COUNTS 66 70 0 0 0
M  V30 BEGIN ATOM
M  V30 1 C 1.230214 0.363306 4.906328 0
M  V30 2 C 1.216661 -1.030177 4.285247 0
M  V30 3 N 1.673689 -0.941145 2.885454 0
M  V30 4 C 2.788493 -0.329690 2.259977 0
M  V30 5 N 3.688607 0.406218 2.984243 0
M  V30 6 C 4.719018 1.019414 2.414639 0
M  V30 7 N 4.916381 0.935188 1.061294 0
M  V30 8 C 4.048860 0.223817 0.340633 0
M  V30 9 C 4.180156 0.082173 -1.038885 0
M  V30 10 C 5.314447 0.784549 -1.608854 0
M  V30 11 N 5.519813 0.752209 -3.004466 0
M  V30 12 O 6.281493 1.482557 -1.242825 0
M  V30 13 C 3.367672 -0.624744 -1.883542 0
M  V30 14 C 2.294252 -1.271614 -1.293174 0
M  V30 15 O 1.424509 -2.019118 -2.096986 0
M  V30 16 C 0.348662 -2.652892 -1.443084 0
M  V30 17 C -0.533188 -3.430959 -2.367262 0
M  V30 18 C -0.360664 -4.776980 -2.697490 0
M  V30 19 C -1.319948 -5.276107 -3.545661 0
M  V30 20 C -2.380799 -4.620463 -4.078984 0
M  V30 21 C -2.511896 -3.282121 -3.721430 0
M  V30 22 C -1.606849 -2.675322 -2.876484 0
M  V30 23 C 2.117859 -1.158584 0.073855 0
M  V30 24 C 2.947029 -0.445635 0.870610 0
M  V30 25 C -0.254532 -1.385112 4.249020 0
M  V30 26 C -1.020891 -2.339180 4.878841 0
M  V30 27 C -2.345189 -2.464903 4.606163 0
M  V30 28 C -3.041870 -1.681598 3.703434 0
M  V30 29 C -2.281260 -0.738592 3.082903 0
M  V30 30 N -2.866648 0.144227 2.082933 0
M  V30 31 C -3.721259 1.321081 2.103773 0
M  V30 32 O -3.762871 1.200936 3.390124 0
M  V30 33 C -3.931096 1.793993 0.768904 0
M  V30 34 C -3.738321 1.132177 -0.411232 0
M  V30 35 C -3.881174 1.857332 -1.564140 0
M  V30 36 C -4.206012 3.179771 -1.506565 0
M  V30 37 Br -4.328421 4.013728 -3.209783 0
M  V30 38 C -4.414363 3.889595 -0.336708 0
M  V30 39 C -4.265745 3.154052 0.849303 0
M  V30 40 C -0.904816 -0.543443 3.309219 0
M  V30 41 H 2.257451 0.723848 5.097878 0
M  V30 42 H 0.701539 0.354195 5.885125 0
M  V30 43 H 0.740048 1.093832 4.219022 0
M  V30 44 H 1.761638 -1.746902 4.876856 0
M  V30 45 H 0.999135 -1.442189 2.289632 0
M  V30 46 H 5.470438 1.624785 2.931166 0
M  V30 47 H 5.324521 0.187369 -3.861661 0
M  V30 48 H 5.870603 1.120815 -3.903618 0
M  V30 49 H 3.568331 -0.670043 -2.928058 0
M  V30 50 H -0.228863 -1.838662 -0.932916 0
M  V30 51 H 0.683718 -3.309670 -0.589985 0
M  V30 52 H 0.498361 -5.241818 -2.246287 0
M  V30 53 H -1.201000 -6.328143 -3.802564 0
M  V30 54 H -3.081355 -5.115114 -4.744111 0
M  V30 55 H -3.344964 -2.678127 -4.091382 0
M  V30 56 H -1.729283 -1.637278 -2.619624 0
M  V30 57 H 1.275503 -1.679366 0.459380 0
M  V30 58 H -0.380772 -2.886822 5.553094 0
M  V30 59 H -2.809141 -3.255246 5.181926 0
M  V30 60 H -4.086389 -1.823372 3.520904 0
M  V30 61 H -2.451001 -0.361985 1.220404 0
M  V30 62 H -3.494276 0.083474 -0.363462 0
M  V30 63 H -3.672485 1.199815 -2.418305 0
M  V30 64 H -4.662452 4.936406 -0.430155 0
M  V30 65 H -4.449591 3.805910 1.684871 0
M  V30 66 H -0.402931 0.262042 2.749763 0
M  V30 END ATOM
M  V30 BEGIN BOND
M  V30 1 1 1 2
M  V30 2 1 2 3
M  V30 3 1 3 4
M  V30 4 2 4 5
M  V30 5 1 5 6
M  V30 6 2 6 7
M  V30 7 1 7 8
M  V30 8 2 8 9
M  V30 9 1 9 10
M  V30 10 1 10 11
M  V30 11 2 10 12
M  V30 12 1 9 13
M  V30 13 2 13 14
M  V30 14 1 14 15
M  V30 15 1 15 16
M  V30 16 1 16 17
M  V30 17 2 17 18
M  V30 18 1 18 19
M  V30 19 2 19 20
M  V30 20 1 20 21
M  V30 21 2 21 22
M  V30 22 1 14 23
M  V30 23 2 23 24
M  V30 24 1 2 25
M  V30 25 2 25 26
M  V30 26 1 26 27
M  V30 27 2 27 28
M  V30 28 1 28 29
M  V30 29 1 29 30
M  V30 30 1 30 31
M  V30 31 2 31 32
M  V30 32 1 31 33
M  V30 33 2 33 34
M  V30 34 1 34 35
M  V30 35 2 35 36
M  V30 36 1 36 37
M  V30 37 1 36 38
M  V30 38 2 38 39
M  V30 39 2 29 40
M  V30 40 1 24 4
M  V30 41 1 40 25
M  V30 42 1 24 8
M  V30 43 1 39 33
M  V30 44 1 22 17
M  V30 45 1 1 41
M  V30 46 1 1 42
M  V30 47 1 1 43
M  V30 48 1 2 44
M  V30 49 1 3 45
M  V30 50 1 6 46
M  V30 51 1 11 47
M  V30 52 1 11 48
M  V30 53 1 13 49
M  V30 54 1 16 50
M  V30 55 1 16 51
M  V30 56 1 18 52
M  V30 57 1 19 53
M  V30 58 1 20 54
M  V30 59 1 21 55
M  V30 60 1 22 56
M  V30 61 1 23 57
M  V30 62 1 26 58
M  V30 63 1 27 59
M  V30 64 1 28 60
M  V30 65 1 30 61
M  V30 66 1 34 62
M  V30 67 1 35 63
M  V30 68 1 38 64
M  V30 69 1 39 65
M  V30 70 1 40 66
M  V30 END BOND
M  V30 END CTAB
M  END
>  <Dataset>  (24) 
ChEMBL_Kinases

>  <Ligand_Instance>  (24) 
nan

>  <PDB_ID>  (24) 
nan

>  <Standardized_SMILES>  (24) 
CC(Nc1ncnc2c(C(N)=O)cc(OCc3ccccc3)cc12)c1cccc(NC(=O)c2ccc(Br)cc2)c1

>  <Name>  (24) 
nan

>  <Pocket>  (24) 
nan

>  <ATP_Site>  (24) 
nan

>  <Peripheral>  (24) 
nan

>  <Num_H_Atoms_ProtBoundConf>  (24) 
nan

>  <Num_Resolved_Atoms>  (24) 
nan

>  <Num_Not_Resolved_Atoms>  (24) 
nan

$$$$
CHEMBL3701760
     RDKit          3D

  0  0  0  0  0  0  0  0  0  0999 V3000
M  V30 BEGIN CTAB
M  V30 COUNTS 58 63 0 0 0
M  V30 BEGIN ATOM
M  V30 1 C 6.684255 1.746284 1.548263 0
M  V30 2 C 5.258397 1.270249 1.326923 0
M  V30 3 O 4.721894 0.704268 2.460472 0
M  V30 4 C 5.113704 0.310375 0.152579 0
M  V30 5 C 3.989391 1.162501 -0.402620 0
M  V30 6 N 4.234239 1.530477 -1.777200 0
M  V30 7 C 2.638796 0.584305 -0.178032 0
M  V30 8 C 1.817895 0.798034 0.909669 0
M  V30 9 C 0.578334 0.199804 1.001717 0
M  V30 10 C 0.116982 -0.636571 0.002837 0
M  V30 11 C -1.213196 -1.208078 0.220260 0
M  V30 12 N -1.175796 -2.568752 0.310977 0
M  V30 13 C -2.451939 -3.006552 0.511555 0
M  V30 14 N -3.257090 -1.929533 0.542943 0
M  V30 15 C -2.528615 -0.812115 0.367428 0
M  V30 16 C -2.755808 0.627336 0.296472 0
M  V30 17 C -3.279902 1.407944 1.305432 0
M  V30 18 C -3.429572 2.755952 1.074572 0
M  V30 19 C -3.088570 3.379921 -0.104058 0
M  V30 20 C -2.558088 2.613461 -1.136205 0
M  V30 21 C -2.408404 1.259812 -0.902760 0
M  V30 22 C -4.692952 -1.926024 0.733637 0
M  V30 23 O -5.221785 -3.210705 0.894525 0
M  V30 24 C -4.481567 -4.371560 0.877638 0
M  V30 25 C -5.010991 -5.630386 1.036611 0
M  V30 26 C -4.274765 -6.796459 1.020609 0
M  V30 27 C -4.859343 -8.096329 1.189826 0
M  V30 28 N -5.331587 -9.155668 1.321526 0
M  V30 29 C -2.899923 -6.667394 0.828550 0
M  V30 30 C -2.313427 -5.426375 0.663260 0
M  V30 31 C -3.115477 -4.302071 0.690971 0
M  V30 32 C 0.927560 -0.859769 -1.091657 0
M  V30 33 C 2.167630 -0.256720 -1.176045 0
M  V30 34 C 4.398384 2.234149 0.558663 0
M  V30 35 H 6.693874 2.813819 1.873808 0
M  V30 36 H 7.280893 1.629608 0.621688 0
M  V30 37 H 7.101996 1.148678 2.405984 0
M  V30 38 H 4.629693 -0.295227 2.415809 0
M  V30 39 H 6.036834 0.323098 -0.464859 0
M  V30 40 H 4.838907 -0.719498 0.399888 0
M  V30 41 H 5.207938 1.939226 -1.808045 0
M  V30 42 H 4.201840 0.756372 -2.447393 0
M  V30 43 H 2.197536 1.444650 1.661429 0
M  V30 44 H -0.004063 0.423808 1.895133 0
M  V30 45 H -3.544363 0.908328 2.226677 0
M  V30 46 H -3.844325 3.384966 1.867624 0
M  V30 47 H -3.206565 4.434345 -0.282307 0
M  V30 48 H -2.258020 3.015967 -2.105774 0
M  V30 49 H -1.990930 0.661814 -1.717515 0
M  V30 50 H -5.221463 -1.400167 -0.112472 0
M  V30 51 H -4.995418 -1.337513 1.648516 0
M  V30 52 H -6.075683 -5.717218 1.184513 0
M  V30 53 H -2.231346 -7.537693 0.800745 0
M  V30 54 H -1.229597 -5.350561 0.513671 0
M  V30 55 H 0.493967 -1.522490 -1.822931 0
M  V30 56 H 2.668465 -0.543275 -2.102488 0
M  V30 57 H 3.627372 2.783391 1.096509 0
M  V30 58 H 5.068403 2.993912 0.059715 0
M  V30 END ATOM
M  V30 BEGIN BOND
M  V30 1 1 1 2
M  V30 2 1 2 3
M  V30 3 1 2 4
M  V30 4 1 4 5
M  V30 5 1 5 6
M  V30 6 1 5 7
M  V30 7 2 7 8
M  V30 8 1 8 9
M  V30 9 2 9 10
M  V30 10 1 10 11
M  V30 11 1 11 12
M  V30 12 2 12 13
M  V30 13 1 13 14
M  V30 14 1 14 15
M  V30 15 1 15 16
M  V30 16 2 16 17
M  V30 17 1 17 18
M  V30 18 2 18 19
M  V30 19 1 19 20
M  V30 20 2 20 21
M  V30 21 1 14 22
M  V30 22 1 22 23
M  V30 23 1 23 24
M  V30 24 2 24 25
M  V30 25 1 25 26
M  V30 26 1 26 27
M  V30 27 3 27 28
M  V30 28 2 26 29
M  V30 29 1 29 30
M  V30 30 2 30 31
M  V30 31 1 10 32
M  V30 32 2 32 33
M  V30 33 1 5 34
M  V30 34 1 34 2
M  V30 35 1 33 7
M  V30 36 2 15 11
M  V30 37 1 21 16
M  V30 38 1 31 24
M  V30 39 1 31 13
M  V30 40 1 1 35
M  V30 41 1 1 36
M  V30 42 1 1 37
M  V30 43 1 3 38
M  V30 44 1 4 39
M  V30 45 1 4 40
M  V30 46 1 6 41
M  V30 47 1 6 42
M  V30 48 1 8 43
M  V30 49 1 9 44
M  V30 50 1 17 45
M  V30 51 1 18 46
M  V30 52 1 19 47
M  V30 53 1 20 48
M  V30 54 1 21 49
M  V30 55 1 22 50
M  V30 56 1 22 51
M  V30 57 1 25 52
M  V30 58 1 29 53
M  V30 59 1 30 54
M  V30 60 1 32 55
M  V30 61 1 33 56
M  V30 62 1 34 57
M  V30 63 1 34 58
M  V30 END BOND
M  V30 END CTAB
M  END
>  <Dataset>  (25) 
ChEMBL_Kinases

>  <Ligand_Instance>  (25) 
nan

>  <PDB_ID>  (25) 
nan

>  <Standardized_SMILES>  (25) 
CC1(O)CC(N)(c2ccc(-c3nc4n(c3-c3ccccc3)COc3cc(C#N)ccc3-4)cc2)C1

>  <Name>  (25) 
nan

>  <Pocket>  (25) 
nan

>  <ATP_Site>  (25) 
nan

>  <Peripheral>  (25) 
nan

>  <Num_H_Atoms_ProtBoundConf>  (25) 
nan

>  <Num_Resolved_Atoms>  (25) 
nan

>  <Num_Not_Resolved_Atoms>  (25) 
nan

$$$$
CHEMBL302304
     RDKit          3D

  0  0  0  0  0  0  0  0  0  0999 V3000
M  V30 BEGIN CTAB
M  V30 COUNTS 79 83 0 0 0
M  V30 BEGIN ATOM
M  V30 1 O 4.313390 -1.539777 2.844232 0
M  V30 2 C 4.965017 -0.557618 2.462075 0
M  V30 3 N 5.063787 -0.446954 1.032268 0
M  V30 4 C 4.445405 -1.412984 0.153195 0 CFG=2
M  V30 5 C 5.467363 -2.033767 -0.786106 0
M  V30 6 N 4.568702 -2.646848 -1.757834 0
M  V30 7 C 3.804383 -1.457917 -2.141308 0
M  V30 8 C 3.517325 -0.745341 -0.871125 0 CFG=1
M  V30 9 O 2.188751 -0.727890 -0.465564 0
M  V30 10 C 1.404609 0.336994 -0.148469 0
M  V30 11 O 1.836916 1.491767 -0.196333 0
M  V30 12 C 0.007845 0.130584 0.265362 0
M  V30 13 C -0.792089 1.192725 0.619029 0
M  V30 14 C -2.117496 1.009352 1.023931 0
M  V30 15 O -2.868791 2.116853 1.367226 0
M  V30 16 C -2.664965 -0.238620 1.081782 0
M  V30 17 C -3.973069 -0.524472 1.598799 0
M  V30 18 O -4.221002 0.473618 2.372605 0
M  V30 19 C -5.021978 -1.487511 1.549005 0
M  V30 20 C -5.773761 -1.535681 2.732129 0
M  V30 21 O -5.558342 -0.767118 3.879990 0
M  V30 22 C -6.838596 -2.409539 2.823628 0
M  V30 23 C -7.172537 -3.220030 1.793844 0
M  V30 24 C -6.477701 -3.214307 0.614799 0
M  V30 25 C -5.421183 -2.334537 0.544919 0
M  V30 26 C -4.797013 -2.217849 -0.736187 0
M  V30 27 O -5.091221 -2.985759 -1.673519 0
M  V30 28 O -4.043540 -1.844814 -1.782406 0
M  V30 29 C -4.027791 -2.421600 -3.066482 0
M  V30 30 C -3.049636 -1.541448 -3.863892 0
M  V30 31 C -3.663062 -0.172440 -3.817086 0
M  V30 32 C -2.670052 0.935639 -3.990143 0
M  V30 33 C -1.459918 0.757998 -3.097172 0
M  V30 34 C -0.784401 -0.518627 -3.543875 0
M  V30 35 C -1.723647 -1.659321 -3.246736 0
M  V30 36 C -1.873887 -1.329993 0.727727 0
M  V30 37 O -2.160305 -2.681345 0.697416 0
M  V30 38 C -0.556457 -1.125921 0.327755 0
M  V30 39 C 5.593852 0.422713 3.324036 0
M  V30 40 C 6.302617 1.531699 2.927559 0
M  V30 41 C 6.883308 2.425163 3.798311 0
M  V30 42 C 6.744827 2.194750 5.164730 0
M  V30 43 O 7.281493 3.020754 6.139292 0
M  V30 44 C 6.032898 1.080719 5.625399 0
M  V30 45 C 5.461947 0.201799 4.699733 0
M  V30 46 H 5.572022 0.323107 0.565692 0
M  V30 47 H 3.915627 -2.193890 0.706220 0
M  V30 48 H 6.153373 -2.728792 -0.308368 0
M  V30 49 H 5.968955 -1.209447 -1.352314 0
M  V30 50 H 3.988537 -3.342645 -1.249080 0
M  V30 51 H 2.942400 -1.697746 -2.764935 0
M  V30 52 H 4.503874 -0.862457 -2.767331 0
M  V30 53 H 3.870485 0.307029 -0.905934 0
M  V30 54 H -0.427436 2.214889 0.598025 0
M  V30 55 H -2.929577 2.978468 0.878216 0
M  V30 56 H -4.817473 -1.078056 4.502302 0
M  V30 57 H -7.440417 -2.476900 3.710721 0
M  V30 58 H -8.002444 -3.896339 1.882804 0
M  V30 59 H -6.746787 -3.861272 -0.204281 0
M  V30 60 H -3.651815 -3.450027 -3.117400 0
M  V30 61 H -5.011807 -2.311151 -3.596604 0
M  V30 62 H -3.069721 -1.972918 -4.882801 0
M  V30 63 H -4.212422 0.005282 -2.864366 0
M  V30 64 H -4.404718 -0.100636 -4.628563 0
M  V30 65 H -2.321063 1.084014 -5.027025 0
M  V30 66 H -3.175966 1.895301 -3.692783 0
M  V30 67 H -1.763416 0.595220 -2.042325 0
M  V30 68 H -0.822215 1.655605 -3.222526 0
M  V30 69 H -0.596531 -0.455143 -4.628486 0
M  V30 70 H 0.129655 -0.686125 -2.931479 0
M  V30 71 H -1.215244 -2.595404 -3.602037 0
M  V30 72 H -1.794417 -1.789728 -2.149470 0
M  V30 73 H -2.068172 -3.205616 -0.173356 0
M  V30 74 H 0.156491 -1.910374 0.026416 0
M  V30 75 H 6.388242 1.677895 1.851020 0
M  V30 76 H 7.431056 3.286230 3.465940 0
M  V30 77 H 7.233700 4.028132 5.985847 0
M  V30 78 H 5.931383 0.909527 6.693353 0
M  V30 79 H 4.924295 -0.635415 5.142167 0
M  V30 END ATOM
M  V30 BEGIN BOND
M  V30 1 2 1 2
M  V30 2 1 2 3
M  V30 3 1 3 4
M  V30 4 1 4 5
M  V30 5 1 5 6
M  V30 6 1 6 7
M  V30 7 1 7 8
M  V30 8 1 8 9
M  V30 9 1 9 10
M  V30 10 2 10 11
M  V30 11 1 10 12
M  V30 12 2 12 13
M  V30 13 1 13 14
M  V30 14 1 14 15
M  V30 15 2 14 16
M  V30 16 1 16 17
M  V30 17 2 17 18
M  V30 18 1 17 19
M  V30 19 2 19 20
M  V30 20 1 20 21
M  V30 21 1 20 22
M  V30 22 2 22 23
M  V30 23 1 23 24
M  V30 24 2 24 25
M  V30 25 1 25 26
M  V30 26 2 26 27
M  V30 27 1 26 28
M  V30 28 1 28 29
M  V30 29 1 29 30
M  V30 30 1 30 31
M  V30 31 1 31 32
M  V30 32 1 32 33
M  V30 33 1 33 34
M  V30 34 1 34 35
M  V30 35 1 16 36
M  V30 36 1 36 37
M  V30 37 2 36 38
M  V30 38 1 2 39
M  V30 39 2 39 40
M  V30 40 1 40 41
M  V30 41 2 41 42
M  V30 42 1 42 43
M  V30 43 1 42 44
M  V30 44 2 44 45
M  V30 45 1 8 4
M  V30 46 1 38 12
M  V30 47 1 45 39
M  V30 48 1 25 19
M  V30 49 1 35 30
M  V30 50 1 3 46
M  V30 51 1 4 47 CFG=1
M  V30 52 1 5 48
M  V30 53 1 5 49
M  V30 54 1 6 50
M  V30 55 1 7 51
M  V30 56 1 7 52
M  V30 57 1 8 53 CFG=3
M  V30 58 1 13 54
M  V30 59 1 15 55
M  V30 60 1 21 56
M  V30 61 1 22 57
M  V30 62 1 23 58
M  V30 63 1 24 59
M  V30 64 1 29 60
M  V30 65 1 29 61
M  V30 66 1 30 62
M  V30 67 1 31 63
M  V30 68 1 31 64
M  V30 69 1 32 65
M  V30 70 1 32 66
M  V30 71 1 33 67
M  V30 72 1 33 68
M  V30 73 1 34 69
M  V30 74 1 34 70
M  V30 75 1 35 71
M  V30 76 1 35 72
M  V30 77 1 37 73
M  V30 78 1 38 74
M  V30 79 1 40 75
M  V30 80 1 41 76
M  V30 81 1 43 77
M  V30 82 1 44 78
M  V30 83 1 45 79
M  V30 END BOND
M  V30 END CTAB
M  END
>  <Dataset>  (26) 
ChEMBL_Kinases

>  <Ligand_Instance>  (26) 
nan

>  <PDB_ID>  (26) 
nan

>  <Standardized_SMILES>  (26) 
O=C(N[C@@H]1CNC[C@H]1OC(=O)c1cc(O)c(C(=O)c2c(O)cccc2C(=O)OCC2CCCCC2)c(O)c1)c1ccc(O)cc1

>  <Name>  (26) 
nan

>  <Pocket>  (26) 
nan

>  <ATP_Site>  (26) 
nan

>  <Peripheral>  (26) 
nan

>  <Num_H_Atoms_ProtBoundConf>  (26) 
nan

>  <Num_Resolved_Atoms>  (26) 
nan

>  <Num_Not_Resolved_Atoms>  (26) 
nan

$$$$
CHEMBL3685259
     RDKit          3D

  0  0  0  0  0  0  0  0  0  0999 V3000
M  V30 BEGIN CTAB
M  V30 COUNTS 53 56 0 0 0
M  V30 BEGIN ATOM
M  V30 1 C 2.585676 -2.324254 3.505586 0
M  V30 2 O 2.588510 -0.998952 3.054421 0
M  V30 3 C 3.774010 -0.190927 3.223966 0
M  V30 4 C 4.957672 -0.496183 3.778954 0
M  V30 5 C 5.879631 0.533481 3.772854 0
M  V30 6 C 5.456334 1.741975 3.190456 0
M  V30 7 C 4.118148 1.794889 2.662536 0
M  V30 8 C 3.027296 0.737987 2.617508 0
M  V30 9 C 2.270306 1.764665 1.977183 0
M  V30 10 O 1.477832 0.761574 2.025759 0
M  V30 11 N 1.861836 2.961987 1.413586 0
M  V30 12 C 0.495306 2.829681 0.979209 0
M  V30 13 C -0.350009 3.308258 1.980716 0
M  V30 14 C -1.717040 3.242458 1.816009 0
M  V30 15 C -2.138900 2.683189 0.625429 0
M  V30 16 C -1.291227 2.207921 -0.369242 0
M  V30 17 C -1.937356 1.589013 -1.548506 0
M  V30 18 N -2.090732 0.168454 -1.448183 0
M  V30 19 C -2.684228 -1.037779 -1.907479 0
M  V30 20 N -3.577868 -0.733641 -2.888499 0
M  V30 21 C -4.305901 -1.756400 -3.419095 0
M  V30 22 N -4.121267 -3.033701 -2.965914 0
M  V30 23 C -3.227717 -3.259778 -2.005375 0
M  V30 24 C -2.978841 -4.514324 -1.502342 0
M  V30 25 C -3.696401 -5.672013 -1.974016 0
M  V30 26 N -3.600364 -7.013805 -1.531532 0
M  V30 27 O -4.587885 -5.781686 -2.891098 0
M  V30 28 C -2.062900 -4.800928 -0.519651 0
M  V30 29 C -1.313547 -3.750397 0.029135 0
M  V30 30 C -1.507532 -2.465772 -0.421534 0
M  V30 31 C -2.444970 -2.295457 -1.404674 0
M  V30 32 C 0.063457 2.278049 -0.202358 0
M  V30 33 H 3.044473 -2.952395 2.699775 0
M  V30 34 H 3.087619 -2.470246 4.486256 0
M  V30 35 H 1.520198 -2.720282 3.577683 0
M  V30 36 H 4.853911 -1.513767 4.095812 0
M  V30 37 H 6.756007 0.132948 4.250322 0
M  V30 38 H 6.386191 2.321144 3.345720 0
M  V30 39 H 4.371465 2.882930 2.374861 0
M  V30 40 H 2.734185 3.490163 1.527358 0
M  V30 41 H -0.045553 3.744402 2.928544 0
M  V30 42 H -2.469846 3.576116 2.507292 0
M  V30 43 H -3.223858 2.613977 0.461851 0
M  V30 44 H -1.262530 1.839229 -2.426309 0
M  V30 45 H -2.885449 2.132007 -1.745073 0
M  V30 46 H -1.442712 -0.028522 -0.660035 0
M  V30 47 H -5.061878 -1.719767 -4.190021 0
M  V30 48 H -3.146758 -7.868428 -1.960730 0
M  V30 49 H -3.975032 -7.452903 -0.646560 0
M  V30 50 H -1.867495 -5.790334 -0.116824 0
M  V30 51 H -0.581195 -3.962678 0.803427 0
M  V30 52 H -0.913004 -1.682077 0.016675 0
M  V30 53 H 0.786000 1.936915 -0.916225 0
M  V30 END ATOM
M  V30 BEGIN BOND
M  V30 1 1 1 2
M  V30 2 1 2 3
M  V30 3 2 3 4
M  V30 4 1 4 5
M  V30 5 2 5 6
M  V30 6 1 6 7
M  V30 7 2 7 8
M  V30 8 1 8 9
M  V30 9 2 9 10
M  V30 10 1 9 11
M  V30 11 1 11 12
M  V30 12 2 12 13
M  V30 13 1 13 14
M  V30 14 2 14 15
M  V30 15 1 15 16
M  V30 16 1 16 17
M  V30 17 1 17 18
M  V30 18 1 18 19
M  V30 19 2 19 20
M  V30 20 1 20 21
M  V30 21 2 21 22
M  V30 22 1 22 23
M  V30 23 2 23 24
M  V30 24 1 24 25
M  V30 25 1 25 26
M  V30 26 2 25 27
M  V30 27 1 24 28
M  V30 28 2 28 29
M  V30 29 1 29 30
M  V30 30 2 30 31
M  V30 31 2 16 32
M  V30 32 1 8 3
M  V30 33 1 32 12
M  V30 34 1 31 19
M  V30 35 1 31 23
M  V30 36 1 1 33
M  V30 37 1 1 34
M  V30 38 1 1 35
M  V30 39 1 4 36
M  V30 40 1 5 37
M  V30 41 1 6 38
M  V30 42 1 7 39
M  V30 43 1 11 40
M  V30 44 1 13 41
M  V30 45 1 14 42
M  V30 46 1 15 43
M  V30 47 1 17 44
M  V30 48 1 17 45
M  V30 49 1 18 46
M  V30 50 1 21 47
M  V30 51 1 26 48
M  V30 52 1 26 49
M  V30 53 1 28 50
M  V30 54 1 29 51
M  V30 55 1 30 52
M  V30 56 1 32 53
M  V30 END BOND
M  V30 END CTAB
M  END
>  <Dataset>  (27) 
ChEMBL_Kinases

>  <Ligand_Instance>  (27) 
nan

>  <PDB_ID>  (27) 
nan

>  <Standardized_SMILES>  (27) 
COc1ccccc1C(=O)Nc1cccc(CNc2ncnc3c(C(N)=O)cccc23)c1

>  <Name>  (27) 
nan

>  <Pocket>  (27) 
nan

>  <ATP_Site>  (27) 
nan

>  <Peripheral>  (27) 
nan

>  <Num_H_Atoms_ProtBoundConf>  (27) 
nan

>  <Num_Resolved_Atoms>  (27) 
nan

>  <Num_Not_Resolved_Atoms>  (27) 
nan

$$$$
CHEMBL3685258
     RDKit          3D

  0  0  0  0  0  0  0  0  0  0999 V3000
M  V30 BEGIN CTAB
M  V30 COUNTS 53 56 0 0 0
M  V30 BEGIN ATOM
M  V30 1 N 3.655220 -2.785132 3.646899 0
M  V30 2 C 4.014098 -1.572586 4.298136 0
M  V30 3 O 4.614930 -1.672841 5.394678 0
M  V30 4 C 3.726027 -0.244767 3.768646 0
M  V30 5 C 4.140130 0.828797 4.521115 0
M  V30 6 C 3.875072 2.101330 4.033753 0
M  V30 7 C 3.217609 2.219887 2.833747 0
M  V30 8 C 2.787569 1.178305 2.052103 0
M  V30 9 C 2.134319 1.357593 0.859660 0
M  V30 10 N 1.864170 2.650840 0.355280 0
M  V30 11 C 1.185358 2.961988 -0.880634 0
M  V30 12 C -0.219263 2.476550 -0.907563 0
M  V30 13 C -1.036133 3.455146 -0.324790 0
M  V30 14 C -2.421136 3.279623 -0.215917 0
M  V30 15 C -2.990844 2.117503 -0.693431 0
M  V30 16 C -2.170476 1.173234 -1.260454 0
M  V30 17 N -2.632901 -0.083997 -1.798497 0
M  V30 18 C -2.641099 -1.107342 -0.831842 0
M  V30 19 O -2.263166 -0.814610 0.324414 0
M  V30 20 C -3.074029 -2.462526 -1.161831 0
M  V30 21 C -3.506551 -2.878508 -2.405641 0
M  V30 22 C -3.901342 -4.179960 -2.642628 0
M  V30 23 C -3.874098 -5.116318 -1.626203 0
M  V30 24 C -3.448867 -4.746532 -0.365176 0
M  V30 25 O -3.399775 -5.648977 0.701501 0
M  V30 26 C -2.234703 -6.421792 0.972217 0
M  V30 27 F -1.988884 -7.196677 -0.159098 0
M  V30 28 F -2.542770 -7.308270 1.970266 0
M  V30 29 F -1.165750 -5.654778 1.329969 0
M  V30 30 C -3.064378 -3.433964 -0.178299 0
M  V30 31 C -0.807126 1.344212 -1.368689 0
M  V30 32 N 1.767781 0.270070 0.194098 0
M  V30 33 C 2.021376 -0.949728 0.660402 0
M  V30 34 N 2.669180 -1.140907 1.842930 0
M  V30 35 C 3.071145 -0.065964 2.573173 0
M  V30 36 H 2.794087 -3.129024 3.146576 0
M  V30 37 H 4.275942 -3.618988 3.559640 0
M  V30 38 H 4.655205 0.712420 5.461301 0
M  V30 39 H 4.204127 2.935016 4.631742 0
M  V30 40 H 3.057422 3.240669 2.538560 0
M  V30 41 H 2.130636 3.530974 0.832912 0
M  V30 42 H 1.285749 3.990081 -1.226704 0
M  V30 43 H 1.727128 2.349463 -1.671949 0
M  V30 44 H -0.750578 4.429292 0.102238 0
M  V30 45 H -3.100878 3.980801 0.214807 0
M  V30 46 H -4.044129 1.880184 -0.660236 0
M  V30 47 H -2.931893 -0.240134 -2.786836 0
M  V30 48 H -3.526700 -2.148656 -3.193752 0
M  V30 49 H -4.236300 -4.453379 -3.653366 0
M  V30 50 H -4.183155 -6.148191 -1.799020 0
M  V30 51 H -2.730854 -3.142511 0.809391 0
M  V30 52 H -0.086826 0.667673 -1.801646 0
M  V30 53 H 1.686389 -1.778572 0.051647 0
M  V30 END ATOM
M  V30 BEGIN BOND
M  V30 1 1 1 2
M  V30 2 2 2 3
M  V30 3 1 2 4
M  V30 4 2 4 5
M  V30 5 1 5 6
M  V30 6 2 6 7
M  V30 7 1 7 8
M  V30 8 2 8 9
M  V30 9 1 9 10
M  V30 10 1 10 11
M  V30 11 1 11 12
M  V30 12 2 12 13
M  V30 13 1 13 14
M  V30 14 2 14 15
M  V30 15 1 15 16
M  V30 16 1 16 17
M  V30 17 1 17 18
M  V30 18 2 18 19
M  V30 19 1 18 20
M  V30 20 2 20 21
M  V30 21 1 21 22
M  V30 22 2 22 23
M  V30 23 1 23 24
M  V30 24 1 24 25
M  V30 25 1 25 26
M  V30 26 1 26 27
M  V30 27 1 26 28
M  V30 28 1 26 29
M  V30 29 2 24 30
M  V30 30 2 16 31
M  V30 31 1 9 32
M  V30 32 2 32 33
M  V30 33 1 33 34
M  V30 34 2 34 35
M  V30 35 1 35 4
M  V30 36 1 35 8
M  V30 37 1 31 12
M  V30 38 1 30 20
M  V30 39 1 1 36
M  V30 40 1 1 37
M  V30 41 1 5 38
M  V30 42 1 6 39
M  V30 43 1 7 40
M  V30 44 1 10 41
M  V30 45 1 11 42
M  V30 46 1 11 43
M  V30 47 1 13 44
M  V30 48 1 14 45
M  V30 49 1 15 46
M  V30 50 1 17 47
M  V30 51 1 21 48
M  V30 52 1 22 49
M  V30 53 1 23 50
M  V30 54 1 30 51
M  V30 55 1 31 52
M  V30 56 1 33 53
M  V30 END BOND
M  V30 END CTAB
M  END
>  <Dataset>  (28) 
ChEMBL_Kinases

>  <Ligand_Instance>  (28) 
nan

>  <PDB_ID>  (28) 
nan

>  <Standardized_SMILES>  (28) 
NC(=O)c1cccc2c(NCc3cccc(NC(=O)c4cccc(OC(F)(F)F)c4)c3)ncnc12

>  <Name>  (28) 
nan

>  <Pocket>  (28) 
nan

>  <ATP_Site>  (28) 
nan

>  <Peripheral>  (28) 
nan

>  <Num_H_Atoms_ProtBoundConf>  (28) 
nan

>  <Num_Resolved_Atoms>  (28) 
nan

>  <Num_Not_Resolved_Atoms>  (28) 
nan

$$$$
CHEMBL3685257
     RDKit          3D

  0  0  0  0  0  0  0  0  0  0999 V3000
M  V30 BEGIN CTAB
M  V30 COUNTS 57 60 0 0 0
M  V30 BEGIN ATOM
M  V30 1 C -7.002858 -1.784357 1.485637 0
M  V30 2 O -6.034755 -2.841349 1.443558 0
M  V30 3 C -4.829065 -2.614095 0.792094 0
M  V30 4 C -4.550926 -1.390705 0.187376 0
M  V30 5 C -3.316068 -1.224698 -0.453922 0
M  V30 6 C -2.404710 -2.262885 -0.476760 0
M  V30 7 C -1.144960 -2.002316 -1.166269 0
M  V30 8 O -0.966520 -0.876528 -1.685556 0
M  V30 9 N -0.077520 -2.908341 -1.314195 0
M  V30 10 C 0.982240 -2.271131 -2.055937 0
M  V30 11 C 1.060379 -2.329711 -3.433591 0
M  V30 12 C 2.120660 -1.680719 -4.030569 0
M  V30 13 C 3.037568 -1.015262 -3.243976 0
M  V30 14 C 2.959196 -0.955677 -1.855444 0
M  V30 15 C 4.066650 -0.193220 -1.221627 0
M  V30 16 N 3.704218 1.207079 -1.223768 0
M  V30 17 C 2.626774 1.837516 -0.593961 0
M  V30 18 N 1.747017 1.150043 0.144949 0
M  V30 19 C 0.708630 1.719870 0.763759 0
M  V30 20 N 0.490301 3.058099 0.670402 0
M  V30 21 C 1.343890 3.802306 -0.060673 0
M  V30 22 C 1.102961 5.136615 -0.137540 0
M  V30 23 C -0.031070 5.733331 0.543151 0
M  V30 24 N -0.916190 4.913576 1.310587 0
M  V30 25 O -0.303460 6.950726 0.509349 0
M  V30 26 C 1.928807 5.968890 -0.865445 0
M  V30 27 C 3.002114 5.371304 -1.503509 0
M  V30 28 C 3.204700 4.006604 -1.394366 0
M  V30 29 C 2.397983 3.177352 -0.680328 0
M  V30 30 C 1.889678 -1.613965 -1.291988 0
M  V30 31 C -2.668649 -3.479385 0.118657 0
M  V30 32 C -3.890493 -3.625462 0.746143 0
M  V30 33 O -4.197555 -4.829180 1.356762 0
M  V30 34 C -3.293663 -5.909356 1.353789 0
M  V30 35 H -6.644401 -0.935352 2.104751 0
M  V30 36 H -7.199248 -1.363076 0.479551 0
M  V30 37 H -7.950646 -2.134228 1.929404 0
M  V30 38 H -5.284100 -0.576157 0.213778 0
M  V30 39 H -3.176835 -0.249900 -0.897224 0
M  V30 40 H -0.203185 -3.872421 -0.882398 0
M  V30 41 H 0.304064 -2.870835 -3.987825 0
M  V30 42 H 2.190456 -1.721093 -5.108645 0
M  V30 43 H 3.832541 -0.538576 -3.815351 0
M  V30 44 H 5.005593 -0.387699 -1.769849 0
M  V30 45 H 4.233162 -0.565692 -0.179639 0
M  V30 46 H 4.357821 1.766362 -1.775855 0
M  V30 47 H 0.089351 1.031393 1.321442 0
M  V30 48 H -1.823393 4.413268 1.271124 0
M  V30 49 H -0.586829 4.703596 2.276690 0
M  V30 50 H 1.714760 7.020474 -0.909199 0
M  V30 51 H 3.637388 6.031890 -2.067131 0
M  V30 52 H 4.058984 3.673078 -1.928422 0
M  V30 53 H 1.851411 -1.565814 -0.233321 0
M  V30 54 H -1.946324 -4.284333 0.093584 0
M  V30 55 H -3.802702 -6.793370 1.790335 0
M  V30 56 H -2.452977 -5.602025 2.038570 0
M  V30 57 H -2.910470 -6.073498 0.332401 0
M  V30 END ATOM
M  V30 BEGIN BOND
M  V30 1 1 1 2
M  V30 2 1 2 3
M  V30 3 2 3 4
M  V30 4 1 4 5
M  V30 5 2 5 6
M  V30 6 1 6 7
M  V30 7 2 7 8
M  V30 8 1 7 9
M  V30 9 1 9 10
M  V30 10 2 10 11
M  V30 11 1 11 12
M  V30 12 2 12 13
M  V30 13 1 13 14
M  V30 14 1 14 15
M  V30 15 1 15 16
M  V30 16 1 16 17
M  V30 17 2 17 18
M  V30 18 1 18 19
M  V30 19 2 19 20
M  V30 20 1 20 21
M  V30 21 2 21 22
M  V30 22 1 22 23
M  V30 23 1 23 24
M  V30 24 2 23 25
M  V30 25 1 22 26
M  V30 26 2 26 27
M  V30 27 1 27 28
M  V30 28 2 28 29
M  V30 29 2 14 30
M  V30 30 1 6 31
M  V30 31 2 31 32
M  V30 32 1 32 33
M  V30 33 1 33 34
M  V30 34 1 32 3
M  V30 35 1 30 10
M  V30 36 1 29 17
M  V30 37 1 29 21
M  V30 38 1 1 35
M  V30 39 1 1 36
M  V30 40 1 1 37
M  V30 41 1 4 38
M  V30 42 1 5 39
M  V30 43 1 9 40
M  V30 44 1 11 41
M  V30 45 1 12 42
M  V30 46 1 13 43
M  V30 47 1 15 44
M  V30 48 1 15 45
M  V30 49 1 16 46
M  V30 50 1 19 47
M  V30 51 1 24 48
M  V30 52 1 24 49
M  V30 53 1 26 50
M  V30 54 1 27 51
M  V30 55 1 28 52
M  V30 56 1 30 53
M  V30 57 1 31 54
M  V30 58 1 34 55
M  V30 59 1 34 56
M  V30 60 1 34 57
M  V30 END BOND
M  V30 END CTAB
M  END
>  <Dataset>  (29) 
ChEMBL_Kinases

>  <Ligand_Instance>  (29) 
nan

>  <PDB_ID>  (29) 
nan

>  <Standardized_SMILES>  (29) 
COc1ccc(C(=O)Nc2cccc(CNc3ncnc4c(C(N)=O)cccc34)c2)cc1OC

>  <Name>  (29) 
nan

>  <Pocket>  (29) 
nan

>  <ATP_Site>  (29) 
nan

>  <Peripheral>  (29) 
nan

>  <Num_H_Atoms_ProtBoundConf>  (29) 
nan

>  <Num_Resolved_Atoms>  (29) 
nan

>  <Num_Not_Resolved_Atoms>  (29) 
nan

$$$$
CHEMBL2170590
     RDKit          3D

  0  0  0  0  0  0  0  0  0  0999 V3000
M  V30 BEGIN CTAB
M  V30 COUNTS 57 60 0 0 0
M  V30 BEGIN ATOM
M  V30 1 O -0.343499 1.577251 4.735499 0
M  V30 2 C -0.093639 1.060285 3.613135 0
M  V30 3 N 1.206811 0.530938 3.423001 0
M  V30 4 C 2.249990 0.540068 4.427915 0
M  V30 5 C 3.501159 -0.100281 3.797676 0
M  V30 6 N 3.865179 0.699522 2.687880 0
M  V30 7 C 4.364449 2.003065 2.956383 0
M  V30 8 C 4.363968 2.745646 1.623168 0
M  V30 9 O 5.236408 2.201575 0.706385 0
M  V30 10 C 5.446626 0.851352 0.814645 0
M  V30 11 C 4.363278 0.084736 1.524955 0
M  V30 12 C -1.143617 1.039809 2.596599 0
M  V30 13 C -0.950258 0.354776 1.412911 0
M  V30 14 C -1.933029 0.307442 0.409512 0
M  V30 15 C -3.148521 0.978877 0.620304 0
M  V30 16 N -4.193205 0.939494 -0.379619 0
M  V30 17 C -3.784519 0.159234 -1.529195 0
M  V30 18 N -3.341767 0.644114 -2.728819 0
M  V30 19 C -2.974417 -0.286026 -3.657209 0
M  V30 20 C -3.048473 -1.639951 -3.391494 0
M  V30 21 C -3.493666 -2.088781 -2.184799 0
M  V30 22 N -3.577533 -3.453072 -1.807864 0
M  V30 23 C -3.201440 -4.648512 -2.455810 0
M  V30 24 C -3.909772 -5.756297 -2.858546 0
M  V30 25 C -3.289376 -6.814983 -3.473846 0
M  V30 26 C -1.934594 -6.829045 -3.721863 0
M  V30 27 C -1.187536 -5.718209 -3.325093 0
M  V30 28 C -1.821504 -4.639151 -2.697137 0
M  V30 29 Cl -0.667300 -3.361162 -2.285777 0
M  V30 30 N -3.856359 -1.172653 -1.270180 0
M  V30 31 C -3.299971 1.650852 1.815420 0
M  V30 32 C -2.334577 1.697361 2.801306 0
M  V30 33 H 1.398565 0.114649 2.484934 0
M  V30 34 H 2.454601 1.515073 4.872260 0
M  V30 35 H 1.970913 -0.168254 5.246413 0
M  V30 36 H 3.263477 -1.121174 3.444608 0
M  V30 37 H 4.284403 -0.207868 4.586303 0
M  V30 38 H 3.677872 2.564493 3.627208 0
M  V30 39 H 5.384662 1.999382 3.404978 0
M  V30 40 H 3.331997 2.560170 1.203431 0
M  V30 41 H 4.469251 3.824603 1.751795 0
M  V30 42 H 5.459870 0.454156 -0.244073 0
M  V30 43 H 6.445389 0.584656 1.213554 0
M  V30 44 H 4.719487 -0.959468 1.614422 0
M  V30 45 H 3.510414 0.023040 0.785225 0
M  V30 46 H -0.058394 -0.190475 1.162054 0
M  V30 47 H -1.739149 -0.242449 -0.502313 0
M  V30 48 H -5.063275 1.461771 -0.142150 0
M  V30 49 H -2.625561 0.125912 -4.606434 0
M  V30 50 H -2.754303 -2.332543 -4.148872 0
M  V30 51 H -3.970281 -3.756778 -0.908048 0
M  V30 52 H -4.962608 -5.643653 -2.617109 0
M  V30 53 H -3.931780 -7.629486 -3.746196 0
M  V30 54 H -1.462972 -7.670444 -4.208263 0
M  V30 55 H -0.137259 -5.787681 -3.544414 0
M  V30 56 H -4.215043 2.184830 2.026930 0
M  V30 57 H -2.457561 2.225510 3.735404 0
M  V30 END ATOM
M  V30 BEGIN BOND
M  V30 1 2 1 2
M  V30 2 1 2 3
M  V30 3 1 3 4
M  V30 4 1 4 5
M  V30 5 1 5 6
M  V30 6 1 6 7
M  V30 7 1 7 8
M  V30 8 1 8 9
M  V30 9 1 9 10
M  V30 10 1 10 11
M  V30 11 1 2 12
M  V30 12 2 12 13
M  V30 13 1 13 14
M  V30 14 2 14 15
M  V30 15 1 15 16
M  V30 16 1 16 17
M  V30 17 2 17 18
M  V30 18 1 18 19
M  V30 19 2 19 20
M  V30 20 1 20 21
M  V30 21 1 21 22
M  V30 22 1 22 23
M  V30 23 2 23 24
M  V30 24 1 24 25
M  V30 25 2 25 26
M  V30 26 1 26 27
M  V30 27 2 27 28
M  V30 28 1 28 29
M  V30 29 2 21 30
M  V30 30 1 15 31
M  V30 31 2 31 32
M  V30 32 1 11 6
M  V30 33 1 32 12
M  V30 34 1 30 17
M  V30 35 1 28 23
M  V30 36 1 3 33
M  V30 37 1 4 34
M  V30 38 1 4 35
M  V30 39 1 5 36
M  V30 40 1 5 37
M  V30 41 1 7 38
M  V30 42 1 7 39
M  V30 43 1 8 40
M  V30 44 1 8 41
M  V30 45 1 10 42
M  V30 46 1 10 43
M  V30 47 1 11 44
M  V30 48 1 11 45
M  V30 49 1 13 46
M  V30 50 1 14 47
M  V30 51 1 16 48
M  V30 52 1 19 49
M  V30 53 1 20 50
M  V30 54 1 22 51
M  V30 55 1 24 52
M  V30 56 1 25 53
M  V30 57 1 26 54
M  V30 58 1 27 55
M  V30 59 1 31 56
M  V30 60 1 32 57
M  V30 END BOND
M  V30 END CTAB
M  END
>  <Dataset>  (30) 
ChEMBL_Kinases

>  <Ligand_Instance>  (30) 
nan

>  <PDB_ID>  (30) 
nan

>  <Standardized_SMILES>  (30) 
O=C(NCCN1CCOCC1)c1ccc(Nc2nccc(Nc3ccccc3Cl)n2)cc1

>  <Name>  (30) 
nan

>  <Pocket>  (30) 
nan

>  <ATP_Site>  (30) 
nan

>  <Peripheral>  (30) 
nan

>  <Num_H_Atoms_ProtBoundConf>  (30) 
nan

>  <Num_Resolved_Atoms>  (30) 
nan

>  <Num_Not_Resolved_Atoms>  (30) 
nan

$$$$
CHEMBL3685261
     RDKit          3D

  0  0  0  0  0  0  0  0  0  0999 V3000
M  V30 BEGIN CTAB
M  V30 COUNTS 50 53 0 0 0
M  V30 BEGIN ATOM
M  V30 1 N 7.007475 -5.938130 -3.743918 0
M  V30 2 C 6.481854 -5.046387 -3.218641 0
M  V30 3 C 5.861885 -3.947755 -2.573989 0
M  V30 4 C 4.507891 -3.744319 -2.840513 0
M  V30 5 C 3.815247 -2.704620 -2.263108 0
M  V30 6 C 4.448690 -1.832804 -1.400789 0
M  V30 7 C 3.841009 -0.689942 -0.718603 0
M  V30 8 O 4.418294 0.104489 0.067300 0
M  V30 9 N 2.452606 -0.333650 -0.879868 0
M  V30 10 C 1.885242 0.783003 -0.205596 0
M  V30 11 C 1.891737 2.032780 -0.791301 0
M  V30 12 C 1.324223 3.071373 -0.081310 0
M  V30 13 C 0.781029 2.829262 1.163804 0
M  V30 14 C 0.777840 1.557734 1.752175 0
M  V30 15 C 0.137723 1.601521 3.092914 0
M  V30 16 N -1.304172 1.453917 3.043718 0
M  V30 17 C -1.987843 0.314995 2.562743 0
M  V30 18 N -1.362472 -0.751441 2.105470 0
M  V30 19 C -2.027379 -1.824410 1.655822 0
M  V30 20 N -3.369421 -1.914231 1.628548 0
M  V30 21 C -4.072466 -0.838347 2.090458 0
M  V30 22 C -5.431772 -0.898811 2.075643 0
M  V30 23 C -6.083496 -2.090514 1.575234 0
M  V30 24 N -5.338139 -3.203670 1.096174 0
M  V30 25 O -7.321639 -2.280095 1.505413 0
M  V30 26 C -6.196620 0.148390 2.525782 0
M  V30 27 C -5.531949 1.262625 2.992980 0
M  V30 28 C -4.153088 1.281673 2.990044 0
M  V30 29 C -3.358559 0.249053 2.545843 0
M  V30 30 C 1.347543 0.527302 1.034744 0
M  V30 31 C 5.788783 -2.025167 -1.130129 0
M  V30 32 C 6.504564 -3.076355 -1.709072 0
M  V30 33 H 3.874033 -4.352057 -3.501386 0
M  V30 34 H 2.757766 -2.508205 -2.442777 0
M  V30 35 H 1.849863 -0.930506 -1.522737 0
M  V30 36 H 2.349169 2.092588 -1.774586 0
M  V30 37 H 1.344374 4.033869 -0.563632 0
M  V30 38 H 0.367382 3.749851 1.606698 0
M  V30 39 H 0.514768 0.651887 3.596361 0
M  V30 40 H 0.454268 2.484760 3.658098 0
M  V30 41 H -1.785798 2.288439 3.404384 0
M  V30 42 H -1.388529 -2.637530 1.305808 0
M  V30 43 H -4.659135 -3.438379 0.328288 0
M  V30 44 H -4.661550 -3.446311 0.334758 0
M  V30 45 H -7.265842 0.103330 2.515090 0
M  V30 46 H -6.137755 2.085129 3.346625 0
M  V30 47 H -3.737439 2.190397 3.372065 0
M  V30 48 H 1.309482 -0.398477 1.555576 0
M  V30 49 H 6.420761 -1.423564 -0.474153 0
M  V30 50 H 7.561084 -3.264128 -1.523185 0
M  V30 END ATOM
M  V30 BEGIN BOND
M  V30 1 3 1 2
M  V30 2 1 2 3
M  V30 3 2 3 4
M  V30 4 1 4 5
M  V30 5 2 5 6
M  V30 6 1 6 7
M  V30 7 2 7 8
M  V30 8 1 7 9
M  V30 9 1 9 10
M  V30 10 2 10 11
M  V30 11 1 11 12
M  V30 12 2 12 13
M  V30 13 1 13 14
M  V30 14 1 14 15
M  V30 15 1 15 16
M  V30 16 1 16 17
M  V30 17 2 17 18
M  V30 18 1 18 19
M  V30 19 2 19 20
M  V30 20 1 20 21
M  V30 21 2 21 22
M  V30 22 1 22 23
M  V30 23 1 23 24
M  V30 24 2 23 25
M  V30 25 1 22 26
M  V30 26 2 26 27
M  V30 27 1 27 28
M  V30 28 2 28 29
M  V30 29 2 14 30
M  V30 30 1 6 31
M  V30 31 2 31 32
M  V30 32 1 32 3
M  V30 33 1 30 10
M  V30 34 1 29 17
M  V30 35 1 29 21
M  V30 36 1 4 33
M  V30 37 1 5 34
M  V30 38 1 9 35
M  V30 39 1 11 36
M  V30 40 1 12 37
M  V30 41 1 13 38
M  V30 42 1 15 39
M  V30 43 1 15 40
M  V30 44 1 16 41
M  V30 45 1 19 42
M  V30 46 1 24 43
M  V30 47 1 24 44
M  V30 48 1 26 45
M  V30 49 1 27 46
M  V30 50 1 28 47
M  V30 51 1 30 48
M  V30 52 1 31 49
M  V30 53 1 32 50
M  V30 END BOND
M  V30 END CTAB
M  END
>  <Dataset>  (31) 
ChEMBL_Kinases

>  <Ligand_Instance>  (31) 
nan

>  <PDB_ID>  (31) 
nan

>  <Standardized_SMILES>  (31) 
N#Cc1ccc(C(=O)Nc2cccc(CNc3ncnc4c(C(N)=O)cccc34)c2)cc1

>  <Name>  (31) 
nan

>  <Pocket>  (31) 
nan

>  <ATP_Site>  (31) 
nan

>  <Peripheral>  (31) 
nan

>  <Num_H_Atoms_ProtBoundConf>  (31) 
nan

>  <Num_Resolved_Atoms>  (31) 
nan

>  <Num_Not_Resolved_Atoms>  (31) 
nan

$$$$
CHEMBL4294454
     RDKit          3D

  0  0  0  0  0  0  0  0  0  0999 V3000
M  V30 BEGIN CTAB
M  V30 COUNTS 24 25 0 0 0
M  V30 BEGIN ATOM
M  V30 1 C 1.396516 -0.190486 3.457341 0
M  V30 2 C 1.143945 -1.293025 2.483797 0
M  V30 3 N 1.269448 -2.623326 2.642267 0
M  V30 4 N 0.942615 -3.252735 1.520566 0
M  V30 5 C 0.584421 -2.344690 0.567990 0
M  V30 6 N 0.173529 -2.638572 -0.756015 0
M  V30 7 C 0.714766 -1.115729 1.184699 0
M  V30 8 C 0.411679 0.131368 0.461665 0
M  V30 9 C -0.869230 0.693640 0.463409 0
M  V30 10 C -1.183495 1.850808 -0.198019 0
M  V30 11 C -0.175287 2.494672 -0.904896 0
M  V30 12 Br -0.489723 4.112280 -1.865295 0
M  V30 13 C 1.113915 1.974265 -0.936203 0
M  V30 14 C 1.393768 0.803780 -0.256271 0
M  V30 15 H 0.485489 -0.043402 4.090959 0
M  V30 16 H 1.548047 0.751025 2.898987 0
M  V30 17 H 2.263654 -0.421624 4.100088 0
M  V30 18 H 1.582191 -3.079858 3.532244 0
M  V30 19 H 0.137256 -3.608002 -1.076879 0
M  V30 20 H -0.084934 -1.841426 -1.376534 0
M  V30 21 H -1.657887 0.171945 1.028047 0
M  V30 22 H -2.170372 2.256042 -0.178490 0
M  V30 23 H 1.935316 2.450501 -1.480712 0
M  V30 24 H 2.386515 0.354293 -0.248732 0
M  V30 END ATOM
M  V30 BEGIN BOND
M  V30 1 1 1 2
M  V30 2 1 2 3
M  V30 3 1 3 4
M  V30 4 2 4 5
M  V30 5 1 5 6
M  V30 6 1 5 7
M  V30 7 1 7 8
M  V30 8 2 8 9
M  V30 9 1 9 10
M  V30 10 2 10 11
M  V30 11 1 11 12
M  V30 12 1 11 13
M  V30 13 2 13 14
M  V30 14 2 7 2
M  V30 15 1 14 8
M  V30 16 1 1 15
M  V30 17 1 1 16
M  V30 18 1 1 17
M  V30 19 1 3 18
M  V30 20 1 6 19
M  V30 21 1 6 20
M  V30 22 1 9 21
M  V30 23 1 10 22
M  V30 24 1 13 23
M  V30 25 1 14 24
M  V30 END BOND
M  V30 END CTAB
M  END
>  <Dataset>  (32) 
ChEMBL_Kinases

>  <Ligand_Instance>  (32) 
nan

>  <PDB_ID>  (32) 
nan

>  <Standardized_SMILES>  (32) 
Cc1[nH]nc(N)c1-c1ccc(Br)cc1

>  <Name>  (32) 
nan

>  <Pocket>  (32) 
nan

>  <ATP_Site>  (32) 
nan

>  <Peripheral>  (32) 
nan

>  <Num_H_Atoms_ProtBoundConf>  (32) 
nan

>  <Num_Resolved_Atoms>  (32) 
nan

>  <Num_Not_Resolved_Atoms>  (32) 
nan

$$$$
CHEMBL3685735
     RDKit          3D

  0  0  0  0  0  0  0  0  0  0999 V3000
M  V30 BEGIN CTAB
M  V30 COUNTS 55 59 0 0 0
M  V30 BEGIN ATOM
M  V30 1 N 0.300027 -4.052471 1.930877 0
M  V30 2 C 1.168336 -3.340043 1.030105 0 CFG=2
M  V30 3 C 0.810934 -1.880639 1.067972 0
M  V30 4 N 1.484135 -1.139942 -0.012776 0
M  V30 5 C 2.587025 -0.289854 0.210823 0
M  V30 6 C 3.757620 -0.968190 -0.055432 0
M  V30 7 C 4.962827 -0.332781 0.159433 0
M  V30 8 N 5.075275 0.938554 0.623468 0
M  V30 9 C 3.884945 1.570923 0.871811 0
M  V30 10 C 2.618862 0.983032 0.674757 0
M  V30 11 N 1.573641 1.810892 0.978637 0
M  V30 12 C 0.416645 2.271875 1.615312 0
M  V30 13 C 0.631219 3.407519 2.425745 0
M  V30 14 C -0.339200 4.092504 3.165635 0
M  V30 15 C -1.569167 3.500480 2.997255 0
M  V30 16 C -1.886366 2.416575 2.247623 0
M  V30 17 C -3.180990 1.953849 2.168520 0
M  V30 18 N -3.373025 0.883548 1.377755 0
M  V30 19 C -2.356619 0.305982 0.708430 0
M  V30 20 C -2.924912 -0.823921 -0.055636 0
M  V30 21 C -3.253520 -0.451466 -1.356708 0
M  V30 22 F -3.086426 0.782566 -1.907137 0
M  V30 23 C -3.804178 -1.396990 -2.200367 0
M  V30 24 C -4.047478 -2.698709 -1.820394 0
M  V30 25 C -3.702187 -3.015897 -0.515923 0
M  V30 26 C -3.151506 -2.116137 0.367046 0
M  V30 27 F -2.803302 -2.360620 1.634912 0
M  V30 28 N -1.099867 0.766528 0.794761 0
M  V30 29 C -0.861997 1.826332 1.567660 0
M  V30 30 C 0.787648 -1.502834 -1.231832 0
M  V30 31 C 0.321789 -2.930880 -1.226388 0
M  V30 32 C 1.140048 -3.839282 -0.366821 0 CFG=2
M  V30 33 O 0.511140 -5.087574 -0.344809 0
M  V30 34 H 0.453537 -5.090624 1.803912 0
M  V30 35 H 0.640420 -3.838763 2.897258 0
M  V30 36 H 2.201722 -3.433298 1.421368 0
M  V30 37 H 1.193522 -1.439349 2.008971 0
M  V30 38 H -0.264968 -1.767170 1.011826 0
M  V30 39 H 3.885323 -1.975482 -0.426695 0
M  V30 40 H 5.915931 -0.773238 -0.015130 0
M  V30 41 H 3.983511 2.602873 1.248135 0
M  V30 42 H 1.666912 2.606463 0.254719 0
M  V30 43 H 1.644772 3.834333 2.518289 0
M  V30 44 H -0.080091 4.948214 3.754835 0
M  V30 45 H -2.391836 3.963137 3.537480 0
M  V30 46 H -3.962710 2.472604 2.741455 0
M  V30 47 H -4.078722 -1.156212 -3.227040 0
M  V30 48 H -4.474756 -3.453589 -2.457057 0
M  V30 49 H -3.860114 -4.020324 -0.133485 0
M  V30 50 H 1.497226 -1.339887 -2.068764 0
M  V30 51 H -0.130500 -0.906096 -1.414196 0
M  V30 52 H -0.741252 -3.042628 -0.932533 0
M  V30 53 H 0.384537 -3.307322 -2.270144 0
M  V30 54 H 2.163968 -4.001512 -0.748059 0
M  V30 55 H -0.292726 -5.105996 -0.922214 0
M  V30 END ATOM
M  V30 BEGIN BOND
M  V30 1 1 1 2
M  V30 2 1 2 3
M  V30 3 1 3 4
M  V30 4 1 4 5
M  V30 5 2 5 6
M  V30 6 1 6 7
M  V30 7 2 7 8
M  V30 8 1 8 9
M  V30 9 2 9 10
M  V30 10 1 10 11
M  V30 11 1 11 12
M  V30 12 2 12 13
M  V30 13 1 13 14
M  V30 14 2 14 15
M  V30 15 1 15 16
M  V30 16 2 16 17
M  V30 17 1 17 18
M  V30 18 2 18 19
M  V30 19 1 19 20
M  V30 20 2 20 21
M  V30 21 1 21 22
M  V30 22 1 21 23
M  V30 23 2 23 24
M  V30 24 1 24 25
M  V30 25 2 25 26
M  V30 26 1 26 27
M  V30 27 1 19 28
M  V30 28 2 28 29
M  V30 29 1 4 30
M  V30 30 1 30 31
M  V30 31 1 31 32
M  V30 32 1 32 33
M  V30 33 1 32 2
M  V30 34 1 10 5
M  V30 35 1 29 12
M  V30 36 1 29 16
M  V30 37 1 26 20
M  V30 38 1 1 34
M  V30 39 1 1 35
M  V30 40 1 2 36 CFG=1
M  V30 41 1 3 37
M  V30 42 1 3 38
M  V30 43 1 6 39
M  V30 44 1 7 40
M  V30 45 1 9 41
M  V30 46 1 11 42
M  V30 47 1 13 43
M  V30 48 1 14 44
M  V30 49 1 15 45
M  V30 50 1 17 46
M  V30 51 1 23 47
M  V30 52 1 24 48
M  V30 53 1 25 49
M  V30 54 1 30 50
M  V30 55 1 30 51
M  V30 56 1 31 52
M  V30 57 1 31 53
M  V30 58 1 32 54 CFG=3
M  V30 59 1 33 55
M  V30 END BOND
M  V30 END CTAB
M  END
>  <Dataset>  (33) 
ChEMBL_Kinases

>  <Ligand_Instance>  (33) 
nan

>  <PDB_ID>  (33) 
nan

>  <Standardized_SMILES>  (33) 
N[C@@H]1CN(c2ccncc2Nc2cccc3cnc(-c4c(F)cccc4F)nc23)CC[C@@H]1O

>  <Name>  (33) 
nan

>  <Pocket>  (33) 
nan

>  <ATP_Site>  (33) 
nan

>  <Peripheral>  (33) 
nan

>  <Num_H_Atoms_ProtBoundConf>  (33) 
nan

>  <Num_Resolved_Atoms>  (33) 
nan

>  <Num_Not_Resolved_Atoms>  (33) 
nan

$$$$
CHEMBL272946
     RDKit          3D

  0  0  0  0  0  0  0  0  0  0999 V3000
M  V30 BEGIN CTAB
M  V30 COUNTS 61 66 0 0 0
M  V30 BEGIN ATOM
M  V30 1 O 5.027314 1.932362 3.507880 0
M  V30 2 C 4.349738 1.376183 2.610649 0
M  V30 3 N 4.785380 0.406620 1.642852 0
M  V30 4 C 3.679290 0.059721 0.831130 0
M  V30 5 O 3.904857 -0.774850 -0.055746 0
M  V30 6 C 2.502789 0.784085 1.239909 0
M  V30 7 C 2.926959 1.553759 2.292406 0
M  V30 8 C 2.029570 2.396290 2.942747 0
M  V30 9 C 2.456783 3.227390 4.061186 0
M  V30 10 C 2.431238 2.803084 5.372026 0
M  V30 11 C 2.861079 3.648068 6.395307 0
M  V30 12 C 3.305204 4.906196 6.043884 0
M  V30 13 C 3.336998 5.347352 4.734062 0
M  V30 14 C 2.909737 4.498345 3.747713 0
M  V30 15 Cl 2.961493 5.085804 2.091930 0
M  V30 16 C 0.719843 2.445568 2.517289 0
M  V30 17 C 0.326677 1.658338 1.454588 0
M  V30 18 N -0.865775 1.517798 0.846625 0
M  V30 19 C -0.717590 0.623351 -0.142314 0
M  V30 20 C -1.690851 0.166126 -1.043149 0
M  V30 21 C -1.378739 -0.778097 -2.034173 0
M  V30 22 C -2.417029 -1.210365 -2.949854 0
M  V30 23 C -2.981717 -2.599338 -2.695523 0
M  V30 24 C -3.580227 -2.744475 -1.358099 0
M  V30 25 C -4.209851 -4.067177 -1.100270 0
M  V30 26 N -3.505828 -5.251493 -1.175227 0
M  V30 27 C -3.065584 -5.841347 -2.364005 0
M  V30 28 C -1.584082 -6.074652 -2.224936 0
M  V30 29 C -1.294476 -5.769662 -0.791548 0
M  V30 30 C -2.637460 -5.645124 -0.126388 0
M  V30 31 C -0.071931 -1.203226 -2.041258 0
M  V30 32 O 0.205748 -2.135645 -3.028839 0
M  V30 33 C 0.855427 -0.745919 -1.157431 0
M  V30 34 C 0.580046 0.167222 -0.191640 0
M  V30 35 C 1.220407 0.826661 0.815475 0
M  V30 36 H 5.797654 0.096938 1.657045 0
M  V30 37 H 2.079236 1.813350 5.617519 0
M  V30 38 H 2.864821 3.371767 7.440977 0
M  V30 39 H 3.649032 5.591125 6.836328 0
M  V30 40 H 3.686119 6.325550 4.488869 0
M  V30 41 H 0.010661 3.088729 3.006400 0
M  V30 42 H -1.746300 2.028929 1.115997 0
M  V30 43 H -2.698694 0.538222 -0.984345 0
M  V30 44 H -3.286727 -0.526885 -2.878369 0
M  V30 45 H -2.098182 -1.182420 -4.008043 0
M  V30 46 H -2.143230 -3.332365 -2.892292 0
M  V30 47 H -3.732402 -2.784258 -3.476911 0
M  V30 48 H -2.906512 -2.421330 -0.523926 0
M  V30 49 H -4.420990 -1.977498 -1.296402 0
M  V30 50 H -4.777983 -4.026254 -0.095639 0
M  V30 51 H -5.085135 -4.140431 -1.844916 0
M  V30 52 H -3.584711 -6.874136 -2.493808 0
M  V30 53 H -3.278874 -5.276027 -3.304798 0
M  V30 54 H -1.311743 -7.126826 -2.498481 0
M  V30 55 H -1.043169 -5.405107 -2.938709 0
M  V30 56 H -0.654682 -6.549210 -0.309805 0
M  V30 57 H -0.802148 -4.767890 -0.763130 0
M  V30 58 H -2.989300 -6.637149 0.252638 0
M  V30 59 H -2.637866 -4.888848 0.687109 0
M  V30 60 H 0.901415 -2.035558 -3.749217 0
M  V30 61 H 1.806456 -1.151988 -1.275919 0
M  V30 END ATOM
M  V30 BEGIN BOND
M  V30 1 2 1 2
M  V30 2 1 2 3
M  V30 3 1 3 4
M  V30 4 2 4 5
M  V30 5 1 4 6
M  V30 6 2 6 7
M  V30 7 1 7 8
M  V30 8 1 8 9
M  V30 9 2 9 10
M  V30 10 1 10 11
M  V30 11 2 11 12
M  V30 12 1 12 13
M  V30 13 2 13 14
M  V30 14 1 14 15
M  V30 15 2 8 16
M  V30 16 1 16 17
M  V30 17 1 17 18
M  V30 18 1 18 19
M  V30 19 2 19 20
M  V30 20 1 20 21
M  V30 21 1 21 22
M  V30 22 1 22 23
M  V30 23 1 23 24
M  V30 24 1 24 25
M  V30 25 1 25 26
M  V30 26 1 26 27
M  V30 27 1 27 28
M  V30 28 1 28 29
M  V30 29 1 29 30
M  V30 30 2 21 31
M  V30 31 1 31 32
M  V30 32 1 31 33
M  V30 33 2 33 34
M  V30 34 1 34 35
M  V30 35 1 7 2
M  V30 36 1 14 9
M  V30 37 2 35 17
M  V30 38 1 35 6
M  V30 39 1 34 19
M  V30 40 1 30 26
M  V30 41 1 3 36
M  V30 42 1 10 37
M  V30 43 1 11 38
M  V30 44 1 12 39
M  V30 45 1 13 40
M  V30 46 1 16 41
M  V30 47 1 18 42
M  V30 48 1 20 43
M  V30 49 1 22 44
M  V30 50 1 22 45
M  V30 51 1 23 46
M  V30 52 1 23 47
M  V30 53 1 24 48
M  V30 54 1 24 49
M  V30 55 1 25 50
M  V30 56 1 25 51
M  V30 57 1 27 52
M  V30 58 1 27 53
M  V30 59 1 28 54
M  V30 60 1 28 55
M  V30 61 1 29 56
M  V30 62 1 29 57
M  V30 63 1 30 58
M  V30 64 1 30 59
M  V30 65 1 32 60
M  V30 66 1 33 61
M  V30 END BOND
M  V30 END CTAB
M  END
>  <Dataset>  (34) 
ChEMBL_Kinases

>  <Ligand_Instance>  (34) 
nan

>  <PDB_ID>  (34) 
nan

>  <Standardized_SMILES>  (34) 
O=C1NC(=O)c2c1c(-c1ccccc1Cl)cc1[nH]c3cc(CCCCN4CCCC4)c(O)cc3c21

>  <Name>  (34) 
nan

>  <Pocket>  (34) 
nan

>  <ATP_Site>  (34) 
nan

>  <Peripheral>  (34) 
nan

>  <Num_H_Atoms_ProtBoundConf>  (34) 
nan

>  <Num_Resolved_Atoms>  (34) 
nan

>  <Num_Not_Resolved_Atoms>  (34) 
nan

$$$$
CHEMBL3685734
     RDKit          3D

  0  0  0  0  0  0  0  0  0  0999 V3000
M  V30 BEGIN CTAB
M  V30 COUNTS 53 57 0 0 0
M  V30 BEGIN ATOM
M  V30 1 N 0.169854 -5.555752 -2.399166 0
M  V30 2 C 0.872249 -4.314831 -2.435657 0
M  V30 3 C 0.993135 -3.737871 -1.058283 0
M  V30 4 C 1.378168 -2.473895 -0.778878 0
M  V30 5 C 1.428923 -2.110820 0.619724 0
M  V30 6 C 1.305333 -3.099310 1.549027 0
M  V30 7 C 1.327048 -2.818964 2.892203 0
M  V30 8 N 1.473204 -1.546325 3.320670 0
M  V30 9 C 1.599863 -0.524996 2.437233 0
M  V30 10 C 1.572819 -0.836191 1.100968 0
M  V30 11 N 1.650723 0.243564 0.220435 0
M  V30 12 C 1.708415 1.567140 0.783252 0
M  V30 13 C 2.740761 2.491801 0.727391 0
M  V30 14 C 2.618229 3.735493 1.309783 0
M  V30 15 C 1.465636 4.106252 1.968437 0
M  V30 16 C 0.429446 3.192142 2.029509 0
M  V30 17 C -0.682206 3.659433 2.702725 0
M  V30 18 N -1.742994 2.812533 2.793946 0
M  V30 19 C -1.632432 1.583401 2.222757 0
M  V30 20 C -2.808231 0.698085 2.346334 0
M  V30 21 C -2.881612 -0.138551 3.446800 0
M  V30 22 F -1.940003 -0.196220 4.420017 0
M  V30 23 C -3.990513 -0.977242 3.568566 0
M  V30 24 C -5.017256 -1.012176 2.644168 0
M  V30 25 C -4.874469 -0.146904 1.569447 0
M  V30 26 C -3.799574 0.702027 1.401124 0
M  V30 27 F -3.670388 1.539042 0.353028 0
M  V30 28 N -0.564253 1.104068 1.563193 0
M  V30 29 C 0.522638 1.921601 1.448639 0
M  V30 30 C 1.677020 -1.888893 -2.098558 0
M  V30 31 C 0.391591 -1.921267 -2.918208 0
M  V30 32 C 0.113426 -3.355505 -3.344690 0
M  V30 33 H -0.571861 -5.537807 -1.656274 0
M  V30 34 H -0.275849 -5.809013 -3.307286 0
M  V30 35 H 1.872664 -4.485881 -2.817666 0
M  V30 36 H 0.710838 -4.512972 -0.323718 0
M  V30 37 H 1.190191 -4.162641 1.440776 0
M  V30 38 H 1.235022 -3.545688 3.695154 0
M  V30 39 H 1.721459 0.423992 2.918263 0
M  V30 40 H 1.683259 0.662856 -0.719642 0
M  V30 41 H 3.598436 2.099150 0.187152 0
M  V30 42 H 3.499728 4.350466 1.188343 0
M  V30 43 H 1.421763 5.090649 2.406584 0
M  V30 44 H -0.745713 4.630975 3.144025 0
M  V30 45 H -4.042049 -1.639972 4.446534 0
M  V30 46 H -5.860055 -1.672150 2.768235 0
M  V30 47 H -5.666831 -0.154844 0.829474 0
M  V30 48 H 2.084993 -0.893859 -2.129655 0
M  V30 49 H 2.387279 -2.557310 -2.689626 0
M  V30 50 H 0.502774 -1.321849 -3.838772 0
M  V30 51 H -0.426564 -1.567410 -2.297010 0
M  V30 52 H 0.397300 -3.569569 -4.369540 0
M  V30 53 H -0.965265 -3.541974 -3.213682 0
M  V30 END ATOM
M  V30 BEGIN BOND
M  V30 1 1 1 2
M  V30 2 1 2 3
M  V30 3 2 3 4
M  V30 4 1 4 5
M  V30 5 2 5 6
M  V30 6 1 6 7
M  V30 7 2 7 8
M  V30 8 1 8 9
M  V30 9 2 9 10
M  V30 10 1 10 11
M  V30 11 1 11 12
M  V30 12 2 12 13
M  V30 13 1 13 14
M  V30 14 2 14 15
M  V30 15 1 15 16
M  V30 16 2 16 17
M  V30 17 1 17 18
M  V30 18 2 18 19
M  V30 19 1 19 20
M  V30 20 2 20 21
M  V30 21 1 21 22
M  V30 22 1 21 23
M  V30 23 2 23 24
M  V30 24 1 24 25
M  V30 25 2 25 26
M  V30 26 1 26 27
M  V30 27 1 19 28
M  V30 28 2 28 29
M  V30 29 1 4 30
M  V30 30 1 30 31
M  V30 31 1 31 32
M  V30 32 1 32 2
M  V30 33 1 10 5
M  V30 34 1 29 12
M  V30 35 1 29 16
M  V30 36 1 26 20
M  V30 37 1 1 33
M  V30 38 1 1 34
M  V30 39 1 2 35
M  V30 40 1 3 36
M  V30 41 1 6 37
M  V30 42 1 7 38
M  V30 43 1 9 39
M  V30 44 1 11 40
M  V30 45 1 13 41
M  V30 46 1 14 42
M  V30 47 1 15 43
M  V30 48 1 17 44
M  V30 49 1 23 45
M  V30 50 1 24 46
M  V30 51 1 25 47
M  V30 52 1 30 48
M  V30 53 1 30 49
M  V30 54 1 31 50
M  V30 55 1 31 51
M  V30 56 1 32 52
M  V30 57 1 32 53
M  V30 END BOND
M  V30 END CTAB
M  END
>  <Dataset>  (35) 
ChEMBL_Kinases

>  <Ligand_Instance>  (35) 
nan

>  <PDB_ID>  (35) 
nan

>  <Standardized_SMILES>  (35) 
NC1C=C(c2ccncc2Nc2cccc3cnc(-c4c(F)cccc4F)nc23)CCC1

>  <Name>  (35) 
nan

>  <Pocket>  (35) 
nan

>  <ATP_Site>  (35) 
nan

>  <Peripheral>  (35) 
nan

>  <Num_H_Atoms_ProtBoundConf>  (35) 
nan

>  <Num_Resolved_Atoms>  (35) 
nan

>  <Num_Not_Resolved_Atoms>  (35) 
nan

$$$$
CHEMBL3685329
     RDKit          3D

  0  0  0  0  0  0  0  0  0  0999 V3000
M  V30 BEGIN CTAB
M  V30 COUNTS 43 45 0 0 0
M  V30 BEGIN ATOM
M  V30 1 C -3.174019 -3.834210 2.220326 0
M  V30 2 N -2.018528 -3.054360 1.759226 0
M  V30 3 C -2.260650 -2.492717 0.450473 0
M  V30 4 C -1.106908 -1.677085 -0.084938 0 CFG=1
M  V30 5 N -0.862172 -0.589425 0.824825 0
M  V30 6 C 0.206997 0.309501 0.495250 0
M  V30 7 N 0.936540 0.124230 -0.621846 0
M  V30 8 C 1.926444 0.980779 -0.899881 0
M  V30 9 N 2.275354 2.051368 -0.139152 0
M  V30 10 C 1.561972 2.269760 0.994778 0
M  V30 11 C 1.874471 3.335668 1.795680 0
M  V30 12 C 2.966088 4.232330 1.435614 0
M  V30 13 N 3.754139 4.062554 0.263015 0
M  V30 14 O 3.279932 5.220388 2.147776 0
M  V30 15 C 1.176900 3.584351 2.943707 0
M  V30 16 C 0.131773 2.716614 3.278133 0
M  V30 17 C -0.141136 1.658663 2.436731 0
M  V30 18 C 0.539642 1.390989 1.288444 0
M  V30 19 C 0.060731 -2.545604 -0.309163 0
M  V30 20 C 0.474325 -2.997179 -1.547924 0
M  V30 21 C 1.582879 -3.816784 -1.721034 0
M  V30 22 C 2.283760 -4.177954 -0.565809 0
M  V30 23 C 1.913297 -3.752739 0.710752 0
M  V30 24 F 2.628270 -4.132541 1.797574 0
M  V30 25 C 0.799203 -2.940968 0.788653 0
M  V30 26 H -3.784322 -4.134973 1.349177 0
M  V30 27 H -2.763253 -4.783471 2.669361 0
M  V30 28 H -3.731007 -3.314170 3.016301 0
M  V30 29 H -1.830990 -2.324800 2.478474 0
M  V30 30 H -2.610339 -3.267651 -0.241031 0
M  V30 31 H -3.140381 -1.798086 0.591871 0
M  V30 32 H -1.481827 -1.221388 -1.033076 0
M  V30 33 H -1.456089 -0.493339 1.672228 0
M  V30 34 H 2.555044 0.884985 -1.791081 0
M  V30 35 H 3.327970 4.476266 -0.610474 0
M  V30 36 H 4.626938 3.539100 0.535214 0
M  V30 37 H 1.389412 4.419269 3.611298 0
M  V30 38 H -0.413480 2.924433 4.190488 0
M  V30 39 H -0.951036 1.056200 2.774080 0
M  V30 40 H -0.111229 -2.684542 -2.425287 0
M  V30 41 H 1.902251 -4.167417 -2.693204 0
M  V30 42 H 3.132503 -4.809033 -0.727076 0
M  V30 43 H 0.505501 -2.606390 1.780315 0
M  V30 END ATOM
M  V30 BEGIN BOND
M  V30 1 1 1 2
M  V30 2 1 2 3
M  V30 3 1 3 4
M  V30 4 1 4 5
M  V30 5 1 5 6
M  V30 6 2 6 7
M  V30 7 1 7 8
M  V30 8 2 8 9
M  V30 9 1 9 10
M  V30 10 2 10 11
M  V30 11 1 11 12
M  V30 12 1 12 13
M  V30 13 2 12 14
M  V30 14 1 11 15
M  V30 15 2 15 16
M  V30 16 1 16 17
M  V30 17 2 17 18
M  V30 18 1 4 19
M  V30 19 2 19 20
M  V30 20 1 20 21
M  V30 21 2 21 22
M  V30 22 1 22 23
M  V30 23 1 23 24
M  V30 24 2 23 25
M  V30 25 1 18 6
M  V30 26 1 25 19
M  V30 27 1 18 10
M  V30 28 1 1 26
M  V30 29 1 1 27
M  V30 30 1 1 28
M  V30 31 1 2 29
M  V30 32 1 3 30
M  V30 33 1 3 31
M  V30 34 1 4 32 CFG=3
M  V30 35 1 5 33
M  V30 36 1 8 34
M  V30 37 1 13 35
M  V30 38 1 13 36
M  V30 39 1 15 37
M  V30 40 1 16 38
M  V30 41 1 17 39
M  V30 42 1 20 40
M  V30 43 1 21 41
M  V30 44 1 22 42
M  V30 45 1 25 43
M  V30 END BOND
M  V30 END CTAB
M  END
>  <Dataset>  (36) 
ChEMBL_Kinases

>  <Ligand_Instance>  (36) 
nan

>  <PDB_ID>  (36) 
nan

>  <Standardized_SMILES>  (36) 
CNC[C@@H](Nc1ncnc2c(C(N)=O)cccc12)c1cccc(F)c1

>  <Name>  (36) 
nan

>  <Pocket>  (36) 
nan

>  <ATP_Site>  (36) 
nan

>  <Peripheral>  (36) 
nan

>  <Num_H_Atoms_ProtBoundConf>  (36) 
nan

>  <Num_Resolved_Atoms>  (36) 
nan

>  <Num_Not_Resolved_Atoms>  (36) 
nan

$$$$
CHEMBL272989
     RDKit          3D

  0  0  0  0  0  0  0  0  0  0999 V3000
M  V30 BEGIN CTAB
M  V30 COUNTS 53 57 0 0 0
M  V30 BEGIN ATOM
M  V30 1 C 4.368904 -0.507108 3.581623 0
M  V30 2 C 3.127106 -1.265618 3.224125 0
M  V30 3 C 2.780674 -2.287884 4.260824 0
M  V30 4 C 3.295293 -1.916926 1.845215 0
M  V30 5 N 3.526329 -0.788299 0.937024 0
M  V30 6 C 4.701982 -0.235868 0.594082 0
M  V30 7 N 4.440700 0.770325 -0.259944 0
M  V30 8 C 3.104706 0.827672 -0.434768 0
M  V30 9 C 2.317179 1.664183 -1.199329 0
M  V30 10 C 0.947915 1.508121 -1.201599 0
M  V30 11 C 0.373091 0.518651 -0.441190 0
M  V30 12 C -1.031618 0.161119 -0.280982 0
M  V30 13 N -2.037436 0.911815 0.202204 0
M  V30 14 C -3.210133 0.259243 0.206233 0
M  V30 15 C -4.530911 0.693232 0.638810 0
M  V30 16 C -4.798888 1.941407 1.151936 0
M  V30 17 F -3.802949 2.846156 1.277454 0
M  V30 18 C -6.041303 2.371361 1.566822 0
M  V30 19 C -7.106725 1.502812 1.468950 0
M  V30 20 C -6.869918 0.247288 0.959595 0
M  V30 21 C -5.610360 -0.158492 0.550040 0
M  V30 22 F -5.416270 -1.405172 0.052812 0
M  V30 23 N -2.923950 -0.953059 -0.296862 0
M  V30 24 C -1.620128 -1.044849 -0.600549 0
M  V30 25 C -0.952404 -2.217215 -1.168027 0
M  V30 26 C -0.423924 -1.942084 -2.426089 0
M  V30 27 C 0.250539 -2.903847 -3.148987 0
M  V30 28 C 0.402440 -4.163885 -2.610332 0
M  V30 29 C -0.124724 -4.436510 -1.356678 0
M  V30 30 C -0.800331 -3.476975 -0.629928 0
M  V30 31 N 1.186799 -0.284354 0.298271 0
M  V30 32 C 2.512293 -0.155987 0.319179 0
M  V30 33 H 4.267052 -0.177045 4.646383 0
M  V30 34 H 5.293485 -1.093471 3.435844 0
M  V30 35 H 4.440881 0.441880 2.987733 0
M  V30 36 H 2.319436 -0.508842 3.101056 0
M  V30 37 H 1.807210 -2.110625 4.742684 0
M  V30 38 H 2.768750 -3.284545 3.779613 0
M  V30 39 H 3.605109 -2.293527 5.024069 0
M  V30 40 H 4.153148 -2.591948 1.848120 0
M  V30 41 H 2.371825 -2.457713 1.563602 0
M  V30 42 H 5.646938 -0.601142 0.985220 0
M  V30 43 H 2.710564 2.459203 -1.816866 0
M  V30 44 H 0.217607 2.090533 -1.751351 0
M  V30 45 H -1.876683 1.889163 0.526609 0
M  V30 46 H -6.200922 3.368697 1.965601 0
M  V30 47 H -8.079247 1.854689 1.799418 0
M  V30 48 H -7.729814 -0.404312 0.898770 0
M  V30 49 H -0.480318 -0.986515 -2.954051 0
M  V30 50 H 0.681801 -2.743341 -4.132342 0
M  V30 51 H 0.923084 -4.950165 -3.139051 0
M  V30 52 H -0.043858 -5.415425 -0.862851 0
M  V30 53 H -1.243962 -3.578786 0.339456 0
M  V30 END ATOM
M  V30 BEGIN BOND
M  V30 1 1 1 2
M  V30 2 1 2 3
M  V30 3 1 2 4
M  V30 4 1 4 5
M  V30 5 1 5 6
M  V30 6 2 6 7
M  V30 7 1 7 8
M  V30 8 2 8 9
M  V30 9 1 9 10
M  V30 10 2 10 11
M  V30 11 1 11 12
M  V30 12 1 12 13
M  V30 13 1 13 14
M  V30 14 1 14 15
M  V30 15 2 15 16
M  V30 16 1 16 17
M  V30 17 1 16 18
M  V30 18 2 18 19
M  V30 19 1 19 20
M  V30 20 2 20 21
M  V30 21 1 21 22
M  V30 22 2 14 23
M  V30 23 1 23 24
M  V30 24 1 24 25
M  V30 25 2 25 26
M  V30 26 1 26 27
M  V30 27 2 27 28
M  V30 28 1 28 29
M  V30 29 2 29 30
M  V30 30 1 11 31
M  V30 31 2 31 32
M  V30 32 1 32 5
M  V30 33 1 32 8
M  V30 34 2 24 12
M  V30 35 1 30 25
M  V30 36 1 21 15
M  V30 37 1 1 33
M  V30 38 1 1 34
M  V30 39 1 1 35
M  V30 40 1 2 36
M  V30 41 1 3 37
M  V30 42 1 3 38
M  V30 43 1 3 39
M  V30 44 1 4 40
M  V30 45 1 4 41
M  V30 46 1 6 42
M  V30 47 1 9 43
M  V30 48 1 10 44
M  V30 49 1 13 45
M  V30 50 1 18 46
M  V30 51 1 19 47
M  V30 52 1 20 48
M  V30 53 1 26 49
M  V30 54 1 27 50
M  V30 55 1 28 51
M  V30 56 1 29 52
M  V30 57 1 30 53
M  V30 END BOND
M  V30 END CTAB
M  END
>  <Dataset>  (37) 
ChEMBL_Kinases

>  <Ligand_Instance>  (37) 
nan

>  <PDB_ID>  (37) 
nan

>  <Standardized_SMILES>  (37) 
CC(C)Cn1cnc2ccc(-c3[nH]c(-c4c(F)cccc4F)nc3-c3ccccc3)nc21

>  <Name>  (37) 
nan

>  <Pocket>  (37) 
nan

>  <ATP_Site>  (37) 
nan

>  <Peripheral>  (37) 
nan

>  <Num_H_Atoms_ProtBoundConf>  (37) 
nan

>  <Num_Resolved_Atoms>  (37) 
nan

>  <Num_Not_Resolved_Atoms>  (37) 
nan

$$$$
CHEMBL3701769
     RDKit          3D

  0  0  0  0  0  0  0  0  0  0999 V3000
M  V30 BEGIN CTAB
M  V30 COUNTS 67 72 0 0 0
M  V30 BEGIN ATOM
M  V30 1 C 6.586226 -4.877286 3.614438 0
M  V30 2 C 6.340074 -4.523212 2.158741 0
M  V30 3 N 5.474633 -3.340361 2.156975 0
M  V30 4 C 5.957527 -2.163770 2.792817 0
M  V30 5 O 7.093717 -2.166197 3.330028 0
M  V30 6 C 5.190910 -0.922891 2.859255 0
M  V30 7 C 5.772857 0.150621 3.504032 0
M  V30 8 C 5.110880 1.379083 3.616534 0
M  V30 9 C 3.851510 1.527599 3.074904 0
M  V30 10 C 3.310777 0.426445 2.440161 0
M  V30 11 C 3.930908 -0.784847 2.313718 0
M  V30 12 C 1.974975 0.532737 1.850102 0
M  V30 13 N 1.166382 -0.311844 1.181511 0
M  V30 14 C 0.009404 0.293741 0.849668 0
M  V30 15 C -1.032986 -0.425615 0.118851 0
M  V30 16 C -0.827535 -0.804030 -1.214024 0
M  V30 17 C -1.810362 -1.489045 -1.912200 0
M  V30 18 C -3.018779 -1.821317 -1.324760 0
M  V30 19 C -3.929029 -2.551156 -2.242795 0
M  V30 20 N -3.250254 -3.449052 -3.162631 0
M  V30 21 C -4.842764 -1.612096 -3.040970 0
M  V30 22 C -5.935020 -2.645364 -2.865382 0
M  V30 23 C -5.959962 -3.588896 -4.034415 0
M  V30 24 O -7.156062 -2.081264 -2.513940 0
M  V30 25 C -5.150421 -3.161241 -1.651319 0
M  V30 26 C -3.227590 -1.451960 -0.013194 0
M  V30 27 C -2.248091 -0.770109 0.680657 0
M  V30 28 C 0.097799 1.584362 1.335487 0
M  V30 29 C -0.938754 2.560378 1.185852 0
M  V30 30 C -2.218620 2.637815 1.692503 0
M  V30 31 C -3.053849 3.693823 1.402063 0
M  V30 32 C -2.621482 4.711616 0.586346 0
M  V30 33 C -1.353320 4.679917 0.056722 0
M  V30 34 C -0.519174 3.608685 0.356911 0
M  V30 35 N 1.297413 1.692753 1.933177 0
M  V30 36 C 1.816217 2.856499 2.576412 0
M  V30 37 O 3.105967 2.695150 3.127142 0
M  V30 38 H 6.153105 -5.876023 3.864371 0
M  V30 39 H 7.649887 -4.886106 3.895778 0
M  V30 40 H 6.088565 -4.170438 4.316361 0
M  V30 41 H 7.343457 -4.271616 1.745277 0
M  V30 42 H 5.880242 -5.368108 1.642723 0
M  V30 43 H 4.536381 -3.347426 1.709537 0
M  V30 44 H 6.764249 0.133779 3.965052 0
M  V30 45 H 5.534516 2.243257 4.114490 0
M  V30 46 H 3.468664 -1.617181 1.808689 0
M  V30 47 H 0.115505 -0.533327 -1.640378 0
M  V30 48 H -1.521934 -1.722674 -2.939901 0
M  V30 49 H -2.255599 -3.643495 -2.870444 0
M  V30 50 H -3.184412 -2.992562 -4.093947 0
M  V30 51 H -4.959955 -0.676202 -2.456543 0
M  V30 52 H -4.473276 -1.486690 -4.087864 0
M  V30 53 H -6.975405 -4.009384 -4.220130 0
M  V30 54 H -5.641064 -3.120106 -4.997685 0
M  V30 55 H -5.294162 -4.464248 -3.875095 0
M  V30 56 H -7.420497 -2.358414 -1.603285 0
M  V30 57 H -5.088576 -4.286050 -1.703642 0
M  V30 58 H -5.535623 -2.794813 -0.702322 0
M  V30 59 H -4.187806 -1.739349 0.387450 0
M  V30 60 H -2.462126 -0.507466 1.706623 0
M  V30 61 H -2.452383 1.793619 2.319061 0
M  V30 62 H -4.010830 3.568012 1.893724 0
M  V30 63 H -3.374075 5.475744 0.440459 0
M  V30 64 H -1.066978 5.504007 -0.575721 0
M  V30 65 H 0.461356 3.708450 -0.129774 0
M  V30 66 H 1.804318 3.762195 1.943066 0
M  V30 67 H 1.121094 3.092727 3.429468 0
M  V30 END ATOM
M  V30 BEGIN BOND
M  V30 1 1 1 2
M  V30 2 1 2 3
M  V30 3 1 3 4
M  V30 4 2 4 5
M  V30 5 1 4 6
M  V30 6 2 6 7
M  V30 7 1 7 8
M  V30 8 2 8 9
M  V30 9 1 9 10
M  V30 10 2 10 11
M  V30 11 1 10 12
M  V30 12 2 12 13
M  V30 13 1 13 14
M  V30 14 1 14 15
M  V30 15 2 15 16
M  V30 16 1 16 17
M  V30 17 2 17 18
M  V30 18 1 18 19
M  V30 19 1 19 20
M  V30 20 1 19 21
M  V30 21 1 21 22
M  V30 22 1 22 23
M  V30 23 1 22 24
M  V30 24 1 22 25
M  V30 25 1 18 26
M  V30 26 2 26 27
M  V30 27 2 14 28
M  V30 28 1 28 29
M  V30 29 2 29 30
M  V30 30 1 30 31
M  V30 31 2 31 32
M  V30 32 1 32 33
M  V30 33 2 33 34
M  V30 34 1 28 35
M  V30 35 1 35 36
M  V30 36 1 36 37
M  V30 37 1 11 6
M  V30 38 1 35 12
M  V30 39 1 37 9
M  V30 40 1 27 15
M  V30 41 1 34 29
M  V30 42 1 25 19
M  V30 43 1 1 38
M  V30 44 1 1 39
M  V30 45 1 1 40
M  V30 46 1 2 41
M  V30 47 1 2 42
M  V30 48 1 3 43
M  V30 49 1 7 44
M  V30 50 1 8 45
M  V30 51 1 11 46
M  V30 52 1 16 47
M  V30 53 1 17 48
M  V30 54 1 20 49
M  V30 55 1 20 50
M  V30 56 1 21 51
M  V30 57 1 21 52
M  V30 58 1 23 53
M  V30 59 1 23 54
M  V30 60 1 23 55
M  V30 61 1 24 56
M  V30 62 1 25 57
M  V30 63 1 25 58
M  V30 64 1 26 59
M  V30 65 1 27 60
M  V30 66 1 30 61
M  V30 67 1 31 62
M  V30 68 1 32 63
M  V30 69 1 33 64
M  V30 70 1 34 65
M  V30 71 1 36 66
M  V30 72 1 36 67
M  V30 END BOND
M  V30 END CTAB
M  END
>  <Dataset>  (38) 
ChEMBL_Kinases

>  <Ligand_Instance>  (38) 
nan

>  <PDB_ID>  (38) 
nan

>  <Standardized_SMILES>  (38) 
CCNC(=O)c1ccc2c(c1)-c1nc(-c3ccc(C4(N)CC(C)(O)C4)cc3)c(-c3ccccc3)n1CO2

>  <Name>  (38) 
nan

>  <Pocket>  (38) 
nan

>  <ATP_Site>  (38) 
nan

>  <Peripheral>  (38) 
nan

>  <Num_H_Atoms_ProtBoundConf>  (38) 
nan

>  <Num_Resolved_Atoms>  (38) 
nan

>  <Num_Not_Resolved_Atoms>  (38) 
nan

$$$$
CHEMBL3685327
     RDKit          3D

  0  0  0  0  0  0  0  0  0  0999 V3000
M  V30 BEGIN CTAB
M  V30 COUNTS 51 54 0 0 0
M  V30 BEGIN ATOM
M  V30 1 C -2.412355 -3.769083 2.174891 0
M  V30 2 C -1.374370 -4.272159 1.195013 0
M  V30 3 C -0.099241 -3.506309 1.358761 0
M  V30 4 N -0.204796 -2.090423 1.139153 0
M  V30 5 C 0.934173 -1.276094 1.269031 0
M  V30 6 N 2.116020 -1.814907 1.598246 0
M  V30 7 C 3.208928 -1.052002 1.726396 0
M  V30 8 N 3.218728 0.288591 1.541066 0
M  V30 9 C 2.059741 0.884051 1.208836 0
M  V30 10 C 1.984492 2.243241 1.002327 0
M  V30 11 C 3.190057 3.048168 1.149069 0
M  V30 12 N 3.189926 4.455934 0.951624 0
M  V30 13 O 4.321716 2.609190 1.454357 0
M  V30 14 C 0.817569 2.887748 0.661151 0
M  V30 15 C -0.317048 2.092077 0.528651 0
M  V30 16 C -1.603562 2.715768 0.164161 0
M  V30 17 C -1.908329 3.812231 -0.614678 0
M  V30 18 N -3.262002 3.926929 -0.603091 0
M  V30 19 N -3.796543 2.969256 0.133579 0
M  V30 20 C -5.203750 2.763070 0.382880 0
M  V30 21 C -2.806904 2.203369 0.622885 0
M  V30 22 C -0.229527 0.736507 0.737338 0
M  V30 23 C 0.936998 0.089778 1.078698 0
M  V30 24 C 0.942139 -4.133514 0.477848 0
M  V30 25 C 1.899109 -5.061755 0.882841 0
M  V30 26 C 2.792581 -5.549432 -0.045525 0
M  V30 27 C 2.760101 -5.137194 -1.371825 0
M  V30 28 C 1.807719 -4.217624 -1.760143 0
M  V30 29 F 1.847936 -3.870485 -3.073556 0
M  V30 30 C 0.906558 -3.721408 -0.838935 0
M  V30 31 H -3.189318 -4.528226 2.390509 0
M  V30 32 H -2.885315 -2.852049 1.719955 0
M  V30 33 H -1.914233 -3.523533 3.136596 0
M  V30 34 H -1.154429 -5.321765 1.475184 0
M  V30 35 H -1.752212 -4.287972 0.159671 0
M  V30 36 H 0.240865 -3.660039 2.406328 0
M  V30 37 H -1.171278 -1.794709 0.891604 0
M  V30 38 H 4.169513 -1.509972 1.996657 0
M  V30 39 H 3.193754 5.237032 1.643302 0
M  V30 40 H 3.186234 5.012485 0.068587 0
M  V30 41 H 0.773037 3.956226 0.502000 0
M  V30 42 H -1.139590 4.403789 -1.100491 0
M  V30 43 H -5.693449 3.708074 0.721197 0
M  V30 44 H -5.717371 2.411484 -0.516987 0
M  V30 45 H -5.359857 2.029579 1.194647 0
M  V30 46 H -2.977939 1.334854 1.268772 0
M  V30 47 H -1.145562 0.190230 0.616897 0
M  V30 48 H 1.865001 -5.336461 1.929733 0
M  V30 49 H 3.504921 -6.266859 0.346904 0
M  V30 50 H 3.503201 -5.577611 -2.024311 0
M  V30 51 H 0.195669 -3.004784 -1.233142 0
M  V30 END ATOM
M  V30 BEGIN BOND
M  V30 1 1 1 2
M  V30 2 1 2 3
M  V30 3 1 3 4
M  V30 4 1 4 5
M  V30 5 2 5 6
M  V30 6 1 6 7
M  V30 7 2 7 8
M  V30 8 1 8 9
M  V30 9 2 9 10
M  V30 10 1 10 11
M  V30 11 1 11 12
M  V30 12 2 11 13
M  V30 13 1 10 14
M  V30 14 2 14 15
M  V30 15 1 15 16
M  V30 16 1 16 17
M  V30 17 2 17 18
M  V30 18 1 18 19
M  V30 19 1 19 20
M  V30 20 1 19 21
M  V30 21 1 15 22
M  V30 22 2 22 23
M  V30 23 1 3 24
M  V30 24 2 24 25
M  V30 25 1 25 26
M  V30 26 2 26 27
M  V30 27 1 27 28
M  V30 28 1 28 29
M  V30 29 2 28 30
M  V30 30 1 23 5
M  V30 31 1 30 24
M  V30 32 1 23 9
M  V30 33 2 21 16
M  V30 34 1 1 31
M  V30 35 1 1 32
M  V30 36 1 1 33
M  V30 37 1 2 34
M  V30 38 1 2 35
M  V30 39 1 3 36
M  V30 40 1 4 37
M  V30 41 1 7 38
M  V30 42 1 12 39
M  V30 43 1 12 40
M  V30 44 1 14 41
M  V30 45 1 17 42
M  V30 46 1 20 43
M  V30 47 1 20 44
M  V30 48 1 20 45
M  V30 49 1 21 46
M  V30 50 1 22 47
M  V30 51 1 25 48
M  V30 52 1 26 49
M  V30 53 1 27 50
M  V30 54 1 30 51
M  V30 END BOND
M  V30 END CTAB
M  END
>  <Dataset>  (39) 
ChEMBL_Kinases

>  <Ligand_Instance>  (39) 
nan

>  <PDB_ID>  (39) 
nan

>  <Standardized_SMILES>  (39) 
CCC(Nc1ncnc2c(C(N)=O)cc(-c3cnn(C)c3)cc12)c1cccc(F)c1

>  <Name>  (39) 
nan

>  <Pocket>  (39) 
nan

>  <ATP_Site>  (39) 
nan

>  <Peripheral>  (39) 
nan

>  <Num_H_Atoms_ProtBoundConf>  (39) 
nan

>  <Num_Resolved_Atoms>  (39) 
nan

>  <Num_Not_Resolved_Atoms>  (39) 
nan

$$$$
CHEMBL4292538
     RDKit          3D

  0  0  0  0  0  0  0  0  0  0999 V3000
M  V30 BEGIN CTAB
M  V30 COUNTS 27 28 0 0 0
M  V30 BEGIN ATOM
M  V30 1 C -0.452877 -4.730376 1.993989 0
M  V30 2 N 0.789292 -3.987091 2.087351 0
M  V30 3 C 0.674517 -2.589208 2.368724 0
M  V30 4 N 0.667063 -2.044117 3.606906 0
M  V30 5 C 0.551451 -0.700458 3.746892 0
M  V30 6 C 0.439007 0.143613 2.641136 0
M  V30 7 C 0.449554 -0.439141 1.392279 0
M  V30 8 C 0.340925 0.318139 0.149795 0
M  V30 9 C 0.363507 -0.373961 -1.042028 0
M  V30 10 N 0.274389 0.180995 -2.263463 0
M  V30 11 C 0.153375 1.520453 -2.326145 0
M  V30 12 O 0.065160 2.108247 -3.431956 0
M  V30 13 C 0.124835 2.266772 -1.169012 0
M  V30 14 N -0.002229 3.691834 -1.198456 0
M  V30 15 C 0.216961 1.690075 0.085899 0
M  V30 16 N 0.566223 -1.775699 1.305678 0
M  V30 17 H -1.153262 -4.449426 2.795196 0
M  V30 18 H -0.937690 -4.396875 1.029590 0
M  V30 19 H -0.302047 -5.819938 1.919186 0
M  V30 20 H 1.718194 -4.455445 1.954632 0
M  V30 21 H 0.548166 -0.288295 4.749530 0
M  V30 22 H 0.346596 1.215351 2.738008 0
M  V30 23 H 0.459477 -1.464774 -1.070030 0
M  V30 24 H 0.295150 -0.375735 -3.145861 0
M  V30 25 H 0.501999 4.617270 -1.182661 0
M  V30 26 H -1.048072 3.732670 -1.261210 0
M  V30 27 H 0.195998 2.260759 1.004266 0
M  V30 END ATOM
M  V30 BEGIN BOND
M  V30 1 1 1 2
M  V30 2 1 2 3
M  V30 3 2 3 4
M  V30 4 1 4 5
M  V30 5 2 5 6
M  V30 6 1 6 7
M  V30 7 1 7 8
M  V30 8 2 8 9
M  V30 9 1 9 10
M  V30 10 1 10 11
M  V30 11 2 11 12
M  V30 12 1 11 13
M  V30 13 1 13 14
M  V30 14 2 13 15
M  V30 15 2 7 16
M  V30 16 1 16 3
M  V30 17 1 15 8
M  V30 18 1 1 17
M  V30 19 1 1 18
M  V30 20 1 1 19
M  V30 21 1 2 20
M  V30 22 1 5 21
M  V30 23 1 6 22
M  V30 24 1 9 23
M  V30 25 1 10 24
M  V30 26 1 14 25
M  V30 27 1 14 26
M  V30 28 1 15 27
M  V30 END BOND
M  V30 END CTAB
M  END
>  <Dataset>  (40) 
ChEMBL_Kinases

>  <Ligand_Instance>  (40) 
nan

>  <PDB_ID>  (40) 
nan

>  <Standardized_SMILES>  (40) 
CNc1nccc(-c2c[nH]c(=O)c(N)c2)n1

>  <Name>  (40) 
nan

>  <Pocket>  (40) 
nan

>  <ATP_Site>  (40) 
nan

>  <Peripheral>  (40) 
nan

>  <Num_H_Atoms_ProtBoundConf>  (40) 
nan

>  <Num_Resolved_Atoms>  (40) 
nan

>  <Num_Not_Resolved_Atoms>  (40) 
nan

$$$$
CHEMBL429422
     RDKit          3D

  0  0  0  0  0  0  0  0  0  0999 V3000
M  V30 BEGIN CTAB
M  V30 COUNTS 53 57 0 0 0
M  V30 BEGIN ATOM
M  V30 1 C 1.518528 -1.424016 3.548228 0
M  V30 2 C 2.537684 -2.496854 3.332167 0
M  V30 3 C 3.777930 -2.202548 4.135830 0
M  V30 4 C 2.906178 -2.657990 1.867985 0
M  V30 5 N 3.452645 -1.457314 1.316986 0
M  V30 6 C 4.709517 -0.970455 1.218052 0
M  V30 7 N 4.704516 0.243228 0.592901 0
M  V30 8 C 3.425718 0.551732 0.279905 0
M  V30 9 C 2.864194 1.635024 -0.345532 0
M  V30 10 C 1.497811 1.681761 -0.534539 0
M  V30 11 C 0.749594 0.626067 -0.081415 0
M  V30 12 C -0.695247 0.435308 -0.158082 0
M  V30 13 N -1.662364 1.195975 0.372848 0
M  V30 14 C -2.890279 0.737650 0.114817 0
M  V30 15 C -4.231887 1.173939 0.444635 0
M  V30 16 C -4.553922 2.288676 1.173724 0
M  V30 17 Cl -3.304433 3.330507 1.792720 0
M  V30 18 C -5.833240 2.692849 1.483727 0
M  V30 19 C -6.896262 1.936981 1.039826 0
M  V30 20 C -6.617039 0.808093 0.303383 0
M  V30 21 C -5.321319 0.445645 0.019458 0
M  V30 22 Cl -5.085336 -1.022550 -0.932667 0
M  V30 23 N -2.652909 -0.365726 -0.615574 0
M  V30 24 C -1.355293 -0.585979 -0.804087 0
M  V30 25 C -0.719238 -1.676462 -1.539423 0
M  V30 26 C 0.057946 -1.433717 -2.658118 0
M  V30 27 C 0.636959 -2.511719 -3.316256 0
M  V30 28 C 0.468779 -3.817132 -2.899514 0
M  V30 29 C -0.314612 -4.067608 -1.771069 0
M  V30 30 C -0.886874 -2.983393 -1.123341 0
M  V30 31 N 1.355821 -0.411129 0.525701 0
M  V30 32 C 2.680713 -0.498511 0.730562 0
M  V30 33 H 0.607940 -1.612918 2.941627 0
M  V30 34 H 1.184402 -1.528634 4.622005 0
M  V30 35 H 1.949631 -0.417980 3.391975 0
M  V30 36 H 2.118651 -3.442467 3.731103 0
M  V30 37 H 4.458671 -3.096759 4.080652 0
M  V30 38 H 3.534693 -2.068929 5.200672 0
M  V30 39 H 4.364625 -1.367834 3.702139 0
M  V30 40 H 1.977289 -2.934382 1.331631 0
M  V30 41 H 3.581978 -3.524239 1.758122 0
M  V30 42 H 5.559937 -1.518718 1.602732 0
M  V30 43 H 3.430127 2.472220 -0.708437 0
M  V30 44 H 0.927728 2.459135 -1.003605 0
M  V30 45 H -1.441974 2.034606 0.914448 0
M  V30 46 H -6.054718 3.577590 2.061164 0
M  V30 47 H -7.915204 2.218142 1.260475 0
M  V30 48 H -7.433639 0.199299 -0.055655 0
M  V30 49 H 0.211532 -0.410177 -3.014421 0
M  V30 50 H 1.249004 -2.284858 -4.203052 0
M  V30 51 H 0.923607 -4.658030 -3.416694 0
M  V30 52 H -0.485253 -5.087446 -1.390733 0
M  V30 53 H -1.487238 -3.221933 -0.252383 0
M  V30 END ATOM
M  V30 BEGIN BOND
M  V30 1 1 1 2
M  V30 2 1 2 3
M  V30 3 1 2 4
M  V30 4 1 4 5
M  V30 5 1 5 6
M  V30 6 2 6 7
M  V30 7 1 7 8
M  V30 8 2 8 9
M  V30 9 1 9 10
M  V30 10 2 10 11
M  V30 11 1 11 12
M  V30 12 1 12 13
M  V30 13 1 13 14
M  V30 14 1 14 15
M  V30 15 2 15 16
M  V30 16 1 16 17
M  V30 17 1 16 18
M  V30 18 2 18 19
M  V30 19 1 19 20
M  V30 20 2 20 21
M  V30 21 1 21 22
M  V30 22 2 14 23
M  V30 23 1 23 24
M  V30 24 1 24 25
M  V30 25 2 25 26
M  V30 26 1 26 27
M  V30 27 2 27 28
M  V30 28 1 28 29
M  V30 29 2 29 30
M  V30 30 1 11 31
M  V30 31 2 31 32
M  V30 32 1 32 5
M  V30 33 1 32 8
M  V30 34 2 24 12
M  V30 35 1 30 25
M  V30 36 1 21 15
M  V30 37 1 1 33
M  V30 38 1 1 34
M  V30 39 1 1 35
M  V30 40 1 2 36
M  V30 41 1 3 37
M  V30 42 1 3 38
M  V30 43 1 3 39
M  V30 44 1 4 40
M  V30 45 1 4 41
M  V30 46 1 6 42
M  V30 47 1 9 43
M  V30 48 1 10 44
M  V30 49 1 13 45
M  V30 50 1 18 46
M  V30 51 1 19 47
M  V30 52 1 20 48
M  V30 53 1 26 49
M  V30 54 1 27 50
M  V30 55 1 28 51
M  V30 56 1 29 52
M  V30 57 1 30 53
M  V30 END BOND
M  V30 END CTAB
M  END
>  <Dataset>  (41) 
ChEMBL_Kinases

>  <Ligand_Instance>  (41) 
nan

>  <PDB_ID>  (41) 
nan

>  <Standardized_SMILES>  (41) 
CC(C)Cn1cnc2ccc(-c3[nH]c(-c4c(Cl)cccc4Cl)nc3-c3ccccc3)nc21

>  <Name>  (41) 
nan

>  <Pocket>  (41) 
nan

>  <ATP_Site>  (41) 
nan

>  <Peripheral>  (41) 
nan

>  <Num_H_Atoms_ProtBoundConf>  (41) 
nan

>  <Num_Resolved_Atoms>  (41) 
nan

>  <Num_Not_Resolved_Atoms>  (41) 
nan

$$$$
CHEMBL4294161
     RDKit          3D

  0  0  0  0  0  0  0  0  0  0999 V3000
M  V30 BEGIN CTAB
M  V30 COUNTS 37 40 0 0 0
M  V30 BEGIN ATOM
M  V30 1 C 2.838037 -5.701523 3.067476 0
M  V30 2 S 3.348592 -3.997861 3.282671 0
M  V30 3 C 2.283802 -2.869473 2.399959 0
M  V30 4 N 1.213427 -3.286615 1.655528 0
M  V30 5 C 0.414418 -2.423283 0.995424 0
M  V30 6 C 0.768367 -1.101049 1.140829 0
M  V30 7 C 1.844749 -0.670959 1.880820 0
M  V30 8 N 2.644056 -1.559895 2.543843 0
M  V30 9 N 2.373723 0.671885 1.994627 0
M  V30 10 C 2.271508 1.565078 0.849281 0
M  V30 11 N 3.238175 2.467506 0.534688 0
M  V30 12 N 2.843491 3.098990 -0.579127 0
M  V30 13 C 1.639851 2.631113 -1.000981 0
M  V30 14 C 0.848205 3.049331 -2.182139 0
M  V30 15 C 1.251718 1.659886 -0.115579 0
M  V30 16 N 0.054221 0.896837 -0.071825 0
M  V30 17 C -0.204194 -0.275456 0.452384 0
M  V30 18 C -1.585563 -0.663901 0.307353 0
M  V30 19 C -2.363947 0.113937 -0.561174 0
M  V30 20 C -3.716052 -0.020048 -0.776205 0
M  V30 21 C -4.410951 -0.992629 -0.099233 0
M  V30 22 C -3.730024 -1.804819 0.777570 0
M  V30 23 C -2.385580 -1.588845 0.920865 0
M  V30 24 H 1.736199 -5.832360 3.042042 0
M  V30 25 H 3.204840 -6.349762 3.889525 0
M  V30 26 H 3.255587 -6.101650 2.102302 0
M  V30 27 H -0.392385 -2.703905 0.356867 0
M  V30 28 H 2.832922 0.965200 2.868986 0
M  V30 29 H 3.424459 3.840160 -1.015132 0
M  V30 30 H -0.171665 3.310478 -1.842261 0
M  V30 31 H 1.260401 3.953778 -2.669662 0
M  V30 32 H 0.784854 2.181402 -2.880209 0
M  V30 33 H -1.946189 0.917736 -1.159754 0
M  V30 34 H -4.289988 0.583380 -1.443230 0
M  V30 35 H -5.468502 -1.139284 -0.232454 0
M  V30 36 H -4.215542 -2.587075 1.340432 0
M  V30 37 H -1.897376 -2.192729 1.668465 0
M  V30 END ATOM
M  V30 BEGIN BOND
M  V30 1 1 1 2
M  V30 2 1 2 3
M  V30 3 2 3 4
M  V30 4 1 4 5
M  V30 5 2 5 6
M  V30 6 1 6 7
M  V30 7 2 7 8
M  V30 8 1 7 9
M  V30 9 1 9 10
M  V30 10 2 10 11
M  V30 11 1 11 12
M  V30 12 1 12 13
M  V30 13 1 13 14
M  V30 14 2 13 15
M  V30 15 1 15 16
M  V30 16 2 16 17
M  V30 17 1 17 18
M  V30 18 2 18 19
M  V30 19 1 19 20
M  V30 20 2 20 21
M  V30 21 1 21 22
M  V30 22 2 22 23
M  V30 23 1 8 3
M  V30 24 1 15 10
M  V30 25 1 23 18
M  V30 26 1 17 6
M  V30 27 1 1 24
M  V30 28 1 1 25
M  V30 29 1 1 26
M  V30 30 1 5 27
M  V30 31 1 9 28
M  V30 32 1 12 29
M  V30 33 1 14 30
M  V30 34 1 14 31
M  V30 35 1 14 32
M  V30 36 1 19 33
M  V30 37 1 20 34
M  V30 38 1 21 35
M  V30 39 1 22 36
M  V30 40 1 23 37
M  V30 END BOND
M  V30 END CTAB
M  END
>  <Dataset>  (42) 
ChEMBL_Kinases

>  <Ligand_Instance>  (42) 
nan

>  <PDB_ID>  (42) 
nan

>  <Standardized_SMILES>  (42) 
CSc1ncc2c(n1)Nc1n[nH]c(C)c1N=C2c1ccccc1

>  <Name>  (42) 
nan

>  <Pocket>  (42) 
nan

>  <ATP_Site>  (42) 
nan

>  <Peripheral>  (42) 
nan

>  <Num_H_Atoms_ProtBoundConf>  (42) 
nan

>  <Num_Resolved_Atoms>  (42) 
nan

>  <Num_Not_Resolved_Atoms>  (42) 
nan

$$$$
CHEMBL3685326
     RDKit          3D

  0  0  0  0  0  0  0  0  0  0999 V3000
M  V30 BEGIN CTAB
M  V30 COUNTS 45 48 0 0 0
M  V30 BEGIN ATOM
M  V30 1 C -4.740503 -4.644522 0.071998 0
M  V30 2 N -3.512670 -4.100952 -0.506118 0
M  V30 3 C -2.957229 -2.887516 -0.227172 0
M  V30 4 C -1.807812 -2.823715 -1.017004 0
M  V30 5 C -0.852152 -1.712345 -1.082166 0
M  V30 6 C -0.201194 -1.494660 -2.287671 0
M  V30 7 C 0.695725 -0.448162 -2.340455 0
M  V30 8 C 1.400086 -0.193595 -3.604006 0
M  V30 9 N 2.329872 0.875613 -3.696269 0
M  V30 10 O 1.187295 -0.913821 -4.605186 0
M  V30 11 C 0.945254 0.356244 -1.249418 0
M  V30 12 N 1.842384 1.378603 -1.354039 0
M  V30 13 C 2.055419 2.146336 -0.247661 0
M  V30 14 N 1.415093 1.918490 0.908499 0
M  V30 15 C 0.530851 0.938500 1.071339 0
M  V30 16 N -0.133970 0.722153 2.305444 0
M  V30 17 C 0.055121 1.501964 3.504938 0
M  V30 18 C 1.421957 1.454038 4.048249 0
M  V30 19 C 2.528039 2.256855 3.886422 0
M  V30 20 C 3.710316 1.968106 4.516745 0
M  V30 21 C 3.854227 0.864871 5.341983 0
M  V30 22 C 2.759503 0.038399 5.524946 0
M  V30 23 F 2.963680 -1.007065 6.331993 0
M  V30 24 C 1.558005 0.337700 4.880042 0
M  V30 25 C 0.310162 0.157868 -0.043119 0
M  V30 26 C -0.569919 -0.881451 -0.018285 0
M  V30 27 C -1.704989 -4.009753 -1.753417 0
M  V30 28 N -2.775194 -4.747077 -1.396730 0
M  V30 29 H -4.878858 -4.195593 1.099052 0
M  V30 30 H -4.670175 -5.737163 0.180954 0
M  V30 31 H -5.568709 -4.271046 -0.530796 0
M  V30 32 H -3.328131 -2.131311 0.461572 0
M  V30 33 H -0.345712 -2.082593 -3.183460 0
M  V30 34 H 3.256312 0.482199 -3.951322 0
M  V30 35 H 2.513664 1.891042 -3.624341 0
M  V30 36 H 2.787039 2.955636 -0.386156 0
M  V30 37 H -0.828543 -0.037415 2.448582 0
M  V30 38 H -0.083858 2.581032 3.172500 0
M  V30 39 H -0.723998 1.335217 4.258038 0
M  V30 40 H 2.314959 3.090829 3.234060 0
M  V30 41 H 4.470941 2.717071 4.267504 0
M  V30 42 H 4.844765 0.769407 5.767585 0
M  V30 43 H 0.800038 -0.413901 5.132264 0
M  V30 44 H -1.134125 -1.145774 0.863005 0
M  V30 45 H -0.904132 -4.231746 -2.452772 0
M  V30 END ATOM
M  V30 BEGIN BOND
M  V30 1 1 1 2
M  V30 2 1 2 3
M  V30 3 2 3 4
M  V30 4 1 4 5
M  V30 5 2 5 6
M  V30 6 1 6 7
M  V30 7 1 7 8
M  V30 8 1 8 9
M  V30 9 2 8 10
M  V30 10 2 7 11
M  V30 11 1 11 12
M  V30 12 2 12 13
M  V30 13 1 13 14
M  V30 14 2 14 15
M  V30 15 1 15 16
M  V30 16 1 16 17
M  V30 17 1 17 18
M  V30 18 2 18 19
M  V30 19 1 19 20
M  V30 20 2 20 21
M  V30 21 1 21 22
M  V30 22 1 22 23
M  V30 23 2 22 24
M  V30 24 1 15 25
M  V30 25 2 25 26
M  V30 26 1 4 27
M  V30 27 2 27 28
M  V30 28 1 28 2
M  V30 29 1 26 5
M  V30 30 1 25 11
M  V30 31 1 24 18
M  V30 32 1 1 29
M  V30 33 1 1 30
M  V30 34 1 1 31
M  V30 35 1 3 32
M  V30 36 1 6 33
M  V30 37 1 9 34
M  V30 38 1 9 35
M  V30 39 1 13 36
M  V30 40 1 16 37
M  V30 41 1 17 38
M  V30 42 1 17 39
M  V30 43 1 19 40
M  V30 44 1 20 41
M  V30 45 1 21 42
M  V30 46 1 24 43
M  V30 47 1 26 44
M  V30 48 1 27 45
M  V30 END BOND
M  V30 END CTAB
M  END
>  <Dataset>  (43) 
ChEMBL_Kinases

>  <Ligand_Instance>  (43) 
nan

>  <PDB_ID>  (43) 
nan

>  <Standardized_SMILES>  (43) 
Cn1cc(-c2cc(C(N)=O)c3ncnc(NCc4cccc(F)c4)c3c2)cn1

>  <Name>  (43) 
nan

>  <Pocket>  (43) 
nan

>  <ATP_Site>  (43) 
nan

>  <Peripheral>  (43) 
nan

>  <Num_H_Atoms_ProtBoundConf>  (43) 
nan

>  <Num_Resolved_Atoms>  (43) 
nan

>  <Num_Not_Resolved_Atoms>  (43) 
nan

$$$$
CHEMBL3685325
     RDKit          3D

  0  0  0  0  0  0  0  0  0  0999 V3000
M  V30 BEGIN CTAB
M  V30 COUNTS 51 54 0 0 0
M  V30 BEGIN ATOM
M  V30 1 N 0.178049 -3.564521 5.579961 0
M  V30 2 C 1.072595 -2.566730 5.127605 0
M  V30 3 O 2.024257 -2.208653 5.837136 0
M  V30 4 C 0.899920 -1.936349 3.821759 0
M  V30 5 C 1.802676 -0.970359 3.434700 0
M  V30 6 C 1.710117 -0.319265 2.204563 0
M  V30 7 C 2.693362 0.690456 1.854928 0
M  V30 8 C 2.754551 1.393575 0.749703 0
M  V30 9 C 3.743545 2.410631 0.395568 0
M  V30 10 C 3.697473 3.079847 -0.800328 0
M  V30 11 C 4.618507 4.035912 -1.145215 0
M  V30 12 C 5.647454 4.377191 -0.300840 0
M  V30 13 C 5.719256 3.720312 0.909744 0
M  V30 14 C 4.768467 2.763336 1.215053 0
M  V30 15 C 0.659061 -0.710594 1.413781 0
M  V30 16 C -0.270941 -1.663851 1.741620 0
M  V30 17 C -1.289553 -1.988768 0.883418 0
M  V30 18 N -1.464231 -1.381114 -0.388591 0
M  V30 19 C -2.572059 -1.795348 -1.215606 0 CFG=1
M  V30 20 C -3.923678 -1.559771 -0.574965 0
M  V30 21 C -4.832934 -2.622064 -1.206581 0
M  V30 22 C -4.450239 -2.765889 -2.674502 0
M  V30 23 N -3.830161 -1.592876 -3.216839 0
M  V30 24 C -2.617398 -1.181737 -2.568974 0
M  V30 25 N -2.127922 -2.922627 1.305253 0
M  V30 26 C -1.996322 -3.516760 2.492958 0
M  V30 27 N -0.991338 -3.209896 3.362888 0
M  V30 28 C -0.116334 -2.262330 2.968496 0
M  V30 29 H -0.543681 -3.539048 6.332936 0
M  V30 30 H 0.258740 -4.476660 5.070959 0
M  V30 31 H 2.628512 -0.688515 4.099387 0
M  V30 32 H 3.481517 0.918839 2.557822 0
M  V30 33 H 1.968807 1.190594 0.007160 0
M  V30 34 H 2.907416 2.859521 -1.519226 0
M  V30 35 H 4.561525 4.550728 -2.094930 0
M  V30 36 H 6.383382 5.126767 -0.552142 0
M  V30 37 H 6.533407 3.981306 1.593153 0
M  V30 38 H 4.908491 2.309482 2.176408 0
M  V30 39 H 0.581584 -0.210643 0.460380 0
M  V30 40 H -0.884598 -0.643831 -0.838504 0
M  V30 41 H -2.417323 -2.903524 -1.374068 0
M  V30 42 H -4.343456 -0.591331 -0.977606 0
M  V30 43 H -3.924608 -1.583369 0.513205 0
M  V30 44 H -5.889914 -2.349520 -1.095683 0
M  V30 45 H -4.600911 -3.568804 -0.661048 0
M  V30 46 H -5.403808 -2.897774 -3.227029 0
M  V30 47 H -3.887704 -3.713701 -2.861212 0
M  V30 48 H -4.531499 -0.846441 -3.302052 0
M  V30 49 H -1.697262 -1.446164 -3.119524 0
M  V30 50 H -2.643652 -0.060004 -2.471658 0
M  V30 51 H -2.703442 -4.276370 2.801238 0
M  V30 END ATOM
M  V30 BEGIN BOND
M  V30 1 1 1 2
M  V30 2 2 2 3
M  V30 3 1 2 4
M  V30 4 2 4 5
M  V30 5 1 5 6
M  V30 6 1 6 7
M  V30 7 2 7 8
M  V30 8 1 8 9
M  V30 9 2 9 10
M  V30 10 1 10 11
M  V30 11 2 11 12
M  V30 12 1 12 13
M  V30 13 2 13 14
M  V30 14 2 6 15
M  V30 15 1 15 16
M  V30 16 2 16 17
M  V30 17 1 17 18
M  V30 18 1 18 19
M  V30 19 1 19 20
M  V30 20 1 20 21
M  V30 21 1 21 22
M  V30 22 1 22 23
M  V30 23 1 23 24
M  V30 24 1 17 25
M  V30 25 2 25 26
M  V30 26 1 26 27
M  V30 27 2 27 28
M  V30 28 1 28 4
M  V30 29 1 14 9
M  V30 30 1 28 16
M  V30 31 1 24 19
M  V30 32 1 1 29
M  V30 33 1 1 30
M  V30 34 1 5 31
M  V30 35 1 7 32
M  V30 36 1 8 33
M  V30 37 1 10 34
M  V30 38 1 11 35
M  V30 39 1 12 36
M  V30 40 1 13 37
M  V30 41 1 14 38
M  V30 42 1 15 39
M  V30 43 1 18 40
M  V30 44 1 19 41 CFG=3
M  V30 45 1 20 42
M  V30 46 1 20 43
M  V30 47 1 21 44
M  V30 48 1 21 45
M  V30 49 1 22 46
M  V30 50 1 22 47
M  V30 51 1 23 48
M  V30 52 1 24 49
M  V30 53 1 24 50
M  V30 54 1 26 51
M  V30 END BOND
M  V30 END CTAB
M  END
>  <Dataset>  (44) 
ChEMBL_Kinases

>  <Ligand_Instance>  (44) 
nan

>  <PDB_ID>  (44) 
nan

>  <Standardized_SMILES>  (44) 
NC(=O)c1cc(/C=C/c2ccccc2)cc2c(N[C@H]3CCCNC3)ncnc12

>  <Name>  (44) 
nan

>  <Pocket>  (44) 
nan

>  <ATP_Site>  (44) 
nan

>  <Peripheral>  (44) 
nan

>  <Num_H_Atoms_ProtBoundConf>  (44) 
nan

>  <Num_Resolved_Atoms>  (44) 
nan

>  <Num_Not_Resolved_Atoms>  (44) 
nan

$$$$
CHEMBL274201
     RDKit          3D

  0  0  0  0  0  0  0  0  0  0999 V3000
M  V30 BEGIN CTAB
M  V30 COUNTS 56 60 0 0 0
M  V30 BEGIN ATOM
M  V30 1 C 3.577546 -0.427098 4.611251 0
M  V30 2 C 3.516132 -0.738756 3.132142 0
M  V30 3 C 2.223919 -1.507853 2.903703 0
M  V30 4 C 4.711336 -1.546231 2.719719 0
M  V30 5 C 3.481149 0.548665 2.318091 0
M  V30 6 N 3.422968 0.243048 0.921226 0
M  V30 7 C 4.546265 0.087696 0.174743 0
M  V30 8 N 4.245811 -0.198455 -1.117556 0
M  V30 9 C 2.883257 -0.214417 -1.142652 0
M  V30 10 C 2.043277 -0.455036 -2.207650 0
M  V30 11 C 0.687276 -0.410973 -1.958007 0
M  V30 12 C 0.193279 -0.133642 -0.677735 0
M  V30 13 C -1.263026 -0.139097 -0.635782 0
M  V30 14 N -2.114259 0.849104 -0.365261 0
M  V30 15 C -3.393676 0.476249 -0.421203 0
M  V30 16 C -4.673300 1.128235 -0.223585 0
M  V30 17 C -5.860790 0.436267 -0.361101 0
M  V30 18 Cl -5.804497 -1.282201 -0.787542 0
M  V30 19 C -7.095859 0.982785 -0.191123 0
M  V30 20 C -7.226723 2.305026 0.139583 0
M  V30 21 C -6.074314 3.027955 0.285961 0
M  V30 22 C -4.847541 2.434772 0.104575 0
M  V30 23 Cl -3.495874 3.497991 0.329337 0
M  V30 24 N -3.309686 -0.824771 -0.747236 0
M  V30 25 C -2.049035 -1.240748 -0.887157 0
M  V30 26 C -1.542571 -2.566718 -1.231828 0
M  V30 27 C -0.766668 -3.109936 -0.214393 0
M  V30 28 C -0.195565 -4.375483 -0.362153 0
M  V30 29 C -0.429548 -5.065359 -1.552955 0
M  V30 30 F 0.101770 -6.307057 -1.754763 0
M  V30 31 C -1.202274 -4.520665 -2.562333 0
M  V30 32 C -1.760804 -3.270835 -2.405456 0
M  V30 33 N 1.066134 0.092679 0.320990 0
M  V30 34 C 2.384632 0.059106 0.120502 0
M  V30 35 H 4.552070 0.075205 4.852168 0
M  V30 36 H 2.704557 0.188234 4.893699 0
M  V30 37 H 3.534184 -1.386461 5.162567 0
M  V30 38 H 1.349139 -0.827305 2.949545 0
M  V30 39 H 2.065370 -2.253775 3.727284 0
M  V30 40 H 2.294250 -2.061453 1.963429 0
M  V30 41 H 4.931891 -2.357477 3.444366 0
M  V30 42 H 5.593178 -0.878605 2.637669 0
M  V30 43 H 4.546755 -2.019979 1.731029 0
M  V30 44 H 4.421213 1.075295 2.589646 0
M  V30 45 H 2.667858 1.210540 2.622690 0
M  V30 46 H 5.605964 0.154214 0.439474 0
M  V30 47 H 2.449941 -0.669271 -3.195071 0
M  V30 48 H 0.063366 -0.608982 -2.837077 0
M  V30 49 H -1.804868 1.805775 -0.136261 0
M  V30 50 H -7.985829 0.385027 -0.314072 0
M  V30 51 H -8.218987 2.700980 0.266204 0
M  V30 52 H -6.203367 4.068651 0.547336 0
M  V30 53 H -0.545178 -2.632411 0.732954 0
M  V30 54 H 0.420079 -4.844483 0.406322 0
M  V30 55 H -1.408597 -5.026842 -3.505680 0
M  V30 56 H -2.388224 -2.736990 -3.129728 0
M  V30 END ATOM
M  V30 BEGIN BOND
M  V30 1 1 1 2
M  V30 2 1 2 3
M  V30 3 1 2 4
M  V30 4 1 2 5
M  V30 5 1 5 6
M  V30 6 1 6 7
M  V30 7 2 7 8
M  V30 8 1 8 9
M  V30 9 2 9 10
M  V30 10 1 10 11
M  V30 11 2 11 12
M  V30 12 1 12 13
M  V30 13 1 13 14
M  V30 14 1 14 15
M  V30 15 1 15 16
M  V30 16 2 16 17
M  V30 17 1 17 18
M  V30 18 1 17 19
M  V30 19 2 19 20
M  V30 20 1 20 21
M  V30 21 2 21 22
M  V30 22 1 22 23
M  V30 23 2 15 24
M  V30 24 1 24 25
M  V30 25 1 25 26
M  V30 26 2 26 27
M  V30 27 1 27 28
M  V30 28 2 28 29
M  V30 29 1 29 30
M  V30 30 1 29 31
M  V30 31 2 31 32
M  V30 32 1 12 33
M  V30 33 2 33 34
M  V30 34 1 34 6
M  V30 35 1 34 9
M  V30 36 2 25 13
M  V30 37 1 32 26
M  V30 38 1 22 16
M  V30 39 1 1 35
M  V30 40 1 1 36
M  V30 41 1 1 37
M  V30 42 1 3 38
M  V30 43 1 3 39
M  V30 44 1 3 40
M  V30 45 1 4 41
M  V30 46 1 4 42
M  V30 47 1 4 43
M  V30 48 1 5 44
M  V30 49 1 5 45
M  V30 50 1 7 46
M  V30 51 1 10 47
M  V30 52 1 11 48
M  V30 53 1 14 49
M  V30 54 1 19 50
M  V30 55 1 20 51
M  V30 56 1 21 52
M  V30 57 1 27 53
M  V30 58 1 28 54
M  V30 59 1 31 55
M  V30 60 1 32 56
M  V30 END BOND
M  V30 END CTAB
M  END
>  <Dataset>  (45) 
ChEMBL_Kinases

>  <Ligand_Instance>  (45) 
nan

>  <PDB_ID>  (45) 
nan

>  <Standardized_SMILES>  (45) 
CC(C)(C)Cn1cnc2ccc(-c3[nH]c(-c4c(Cl)cccc4Cl)nc3-c3ccc(F)cc3)nc21

>  <Name>  (45) 
nan

>  <Pocket>  (45) 
nan

>  <ATP_Site>  (45) 
nan

>  <Peripheral>  (45) 
nan

>  <Num_H_Atoms_ProtBoundConf>  (45) 
nan

>  <Num_Resolved_Atoms>  (45) 
nan

>  <Num_Not_Resolved_Atoms>  (45) 
nan

$$$$
CHEMBL274389
     RDKit          3D

  0  0  0  0  0  0  0  0  0  0999 V3000
M  V30 BEGIN CTAB
M  V30 COUNTS 55 56 0 0 0
M  V30 BEGIN ATOM
M  V30 1 C 2.618975 -4.545173 2.279762 0
M  V30 2 C 3.318031 -3.195441 2.334805 0
M  V30 3 C 3.260294 -2.677248 3.764294 0
M  V30 4 C 2.602939 -2.218783 1.410335 0 CFG=1
M  V30 5 C 3.294073 -0.872588 1.466159 0
M  V30 6 O 4.637429 -1.014905 1.075614 0
M  V30 7 N 2.625827 -2.783473 0.089074 0
M  V30 8 C 1.975206 -2.120752 -1.015963 0
M  V30 9 N 1.334126 -0.963931 -0.776207 0
M  V30 10 C 0.676509 -0.234080 -1.695008 0
M  V30 11 C 0.020415 1.010435 -1.285873 0
M  V30 12 O -0.599171 1.662165 -2.193982 0
M  V30 13 N 0.087100 1.444659 0.060225 0
M  V30 14 C -0.524849 2.650279 0.571746 0
M  V30 15 C -1.988641 2.463975 0.753830 0
M  V30 16 C -2.996602 2.711790 -0.164213 0
M  V30 17 C -4.304268 2.451462 0.239868 0
M  V30 18 C -4.611580 1.967399 1.494684 0
M  V30 19 S -6.271283 1.649499 1.957537 0
M  V30 20 C -6.705129 -0.050237 1.580290 0
M  V30 21 O -7.237637 2.495700 1.149693 0
M  V30 22 O -6.538737 1.885951 3.396098 0
M  V30 23 C -3.604926 1.718682 2.415463 0
M  V30 24 C -2.301303 1.976176 2.017853 0
M  V30 25 C 0.638206 -0.681515 -2.999280 0
M  V30 26 C 1.289361 -1.866804 -3.269807 0
M  V30 27 N 1.294461 -2.397951 -4.606495 0
M  V30 28 C 1.961153 -2.607997 -2.319322 0
M  V30 29 C 2.644954 -3.842593 -2.578872 0
M  V30 30 N 3.190315 -4.826120 -2.793763 0
M  V30 31 H 2.612610 -5.000434 1.281909 0
M  V30 32 H 3.125569 -5.258026 2.960044 0
M  V30 33 H 1.569142 -4.432030 2.672375 0
M  V30 34 H 4.364213 -3.371074 2.067817 0
M  V30 35 H 2.501628 -1.841891 3.794610 0
M  V30 36 H 4.239897 -2.284195 4.100476 0
M  V30 37 H 2.917776 -3.459523 4.479102 0
M  V30 38 H 1.579379 -2.091850 1.805071 0
M  V30 39 H 2.803694 -0.094937 0.866651 0
M  V30 40 H 3.320138 -0.488481 2.505950 0
M  V30 41 H 4.717712 -1.591323 0.266078 0
M  V30 42 H 3.084144 -3.662179 -0.170884 0
M  V30 43 H 0.612651 0.879093 0.785668 0
M  V30 44 H -0.050571 3.029459 1.476014 0
M  V30 45 H -0.341717 3.440024 -0.214087 0
M  V30 46 H -2.671507 3.085305 -1.106628 0
M  V30 47 H -5.065423 2.650153 -0.485323 0
M  V30 48 H -7.770300 -0.201721 1.754454 0
M  V30 49 H -6.153232 -0.743870 2.264587 0
M  V30 50 H -6.497776 -0.278002 0.519996 0
M  V30 51 H -3.872256 1.340755 3.388258 0
M  V30 52 H -1.581122 1.755465 2.794293 0
M  V30 53 H 0.119762 -0.121758 -3.765647 0
M  V30 54 H 1.308275 -3.437778 -4.764574 0
M  V30 55 H 1.287149 -1.950696 -5.527512 0
M  V30 END ATOM
M  V30 BEGIN BOND
M  V30 1 1 1 2
M  V30 2 1 2 3
M  V30 3 1 2 4
M  V30 4 1 4 5
M  V30 5 1 5 6
M  V30 6 1 4 7
M  V30 7 1 7 8
M  V30 8 2 8 9
M  V30 9 1 9 10
M  V30 10 1 10 11
M  V30 11 2 11 12
M  V30 12 1 11 13
M  V30 13 1 13 14
M  V30 14 1 14 15
M  V30 15 2 15 16
M  V30 16 1 16 17
M  V30 17 2 17 18
M  V30 18 1 18 19
M  V30 19 1 19 20
M  V30 20 2 19 21
M  V30 21 2 19 22
M  V30 22 1 18 23
M  V30 23 2 23 24
M  V30 24 2 10 25
M  V30 25 1 25 26
M  V30 26 1 26 27
M  V30 27 2 26 28
M  V30 28 1 28 29
M  V30 29 3 29 30
M  V30 30 1 28 8
M  V30 31 1 24 15
M  V30 32 1 1 31
M  V30 33 1 1 32
M  V30 34 1 1 33
M  V30 35 1 2 34
M  V30 36 1 3 35
M  V30 37 1 3 36
M  V30 38 1 3 37
M  V30 39 1 4 38 CFG=1
M  V30 40 1 5 39
M  V30 41 1 5 40
M  V30 42 1 6 41
M  V30 43 1 7 42
M  V30 44 1 13 43
M  V30 45 1 14 44
M  V30 46 1 14 45
M  V30 47 1 16 46
M  V30 48 1 17 47
M  V30 49 1 20 48
M  V30 50 1 20 49
M  V30 51 1 20 50
M  V30 52 1 23 51
M  V30 53 1 24 52
M  V30 54 1 25 53
M  V30 55 1 27 54
M  V30 56 1 27 55
M  V30 END BOND
M  V30 END CTAB
M  END
>  <Dataset>  (46) 
ChEMBL_Kinases

>  <Ligand_Instance>  (46) 
nan

>  <PDB_ID>  (46) 
nan

>  <Standardized_SMILES>  (46) 
CC(C)[C@@H](CO)Nc1nc(C(=O)NCc2ccc(S(C)(=O)=O)cc2)cc(N)c1C#N

>  <Name>  (46) 
nan

>  <Pocket>  (46) 
nan

>  <ATP_Site>  (46) 
nan

>  <Peripheral>  (46) 
nan

>  <Num_H_Atoms_ProtBoundConf>  (46) 
nan

>  <Num_Resolved_Atoms>  (46) 
nan

>  <Num_Not_Resolved_Atoms>  (46) 
nan

$$$$
CHEMBL4294080
     RDKit          3D

  0  0  0  0  0  0  0  0  0  0999 V3000
M  V30 BEGIN CTAB
M  V30 COUNTS 41 44 0 0 0
M  V30 BEGIN ATOM
M  V30 1 O 1.997832 -3.346829 2.475813 0
M  V30 2 C 1.040919 -3.152439 3.291023 0
M  V30 3 N -0.304705 -2.989054 2.864551 0
M  V30 4 C -0.540380 -3.053591 1.457144 0
M  V30 5 C -0.828250 -4.273298 0.834981 0
M  V30 6 N -1.059337 -4.391015 -0.491157 0
M  V30 7 C -1.016747 -3.284339 -1.287953 0
M  V30 8 C -0.734244 -2.077515 -0.686756 0
M  V30 9 C -0.688601 -0.864155 -1.563259 0
M  V30 10 C -0.444655 0.417824 -1.269280 0
M  V30 11 C -0.459994 1.343021 -2.246036 0
M  V30 12 C -0.203576 2.778876 -2.023505 0
M  V30 13 C -0.808220 3.739986 -2.804531 0
M  V30 14 C -0.585923 5.089690 -2.617918 0
M  V30 15 C 0.284016 5.429245 -1.595979 0
M  V30 16 N 0.882780 4.503783 -0.824146 0
M  V30 17 C 0.653578 3.179275 -1.020430 0
M  V30 18 C -0.737274 0.889981 -3.537333 0
M  V30 19 S -0.979304 -0.969687 -3.269434 0
M  V30 20 C -0.493868 -1.910797 0.650055 0
M  V30 21 C 1.271762 -3.081969 4.772736 0
M  V30 22 C 2.746109 -3.274362 5.074330 0
M  V30 23 C 2.910220 -1.787060 4.825056 0
M  V30 24 C 1.460377 -1.633580 5.234265 0
M  V30 25 H -1.089757 -2.828236 3.552514 0
M  V30 26 H -0.857359 -5.146043 1.491216 0
M  V30 27 H -1.207491 -3.427420 -2.338945 0
M  V30 28 H -0.242382 0.642641 -0.226518 0
M  V30 29 H -1.467940 3.386526 -3.573958 0
M  V30 30 H -1.091752 5.798624 -3.265697 0
M  V30 31 H 0.449551 6.489636 -1.460294 0
M  V30 32 H 1.142635 2.423241 -0.390082 0
M  V30 33 H -0.786063 1.551113 -4.471827 0
M  V30 34 H -0.273571 -0.968679 1.118002 0
M  V30 35 H 0.571362 -3.639663 5.391938 0
M  V30 36 H 3.298980 -3.869905 4.347156 0
M  V30 37 H 2.901945 -3.520100 6.160688 0
M  V30 38 H 3.024274 -1.577686 3.732545 0
M  V30 39 H 3.658461 -1.266233 5.419427 0
M  V30 40 H 0.898922 -0.971456 4.530810 0
M  V30 41 H 1.260505 -1.454400 6.295869 0
M  V30 END ATOM
M  V30 BEGIN BOND
M  V30 1 2 1 2
M  V30 2 1 2 3
M  V30 3 1 3 4
M  V30 4 2 4 5
M  V30 5 1 5 6
M  V30 6 2 6 7
M  V30 7 1 7 8
M  V30 8 1 8 9
M  V30 9 2 9 10
M  V30 10 1 10 11
M  V30 11 1 11 12
M  V30 12 2 12 13
M  V30 13 1 13 14
M  V30 14 2 14 15
M  V30 15 1 15 16
M  V30 16 2 16 17
M  V30 17 2 11 18
M  V30 18 1 18 19
M  V30 19 2 8 20
M  V30 20 1 2 21
M  V30 21 1 21 22
M  V30 22 1 22 23
M  V30 23 1 23 24
M  V30 24 1 20 4
M  V30 25 1 24 21
M  V30 26 1 19 9
M  V30 27 1 17 12
M  V30 28 1 3 25
M  V30 29 1 5 26
M  V30 30 1 7 27
M  V30 31 1 10 28
M  V30 32 1 13 29
M  V30 33 1 14 30
M  V30 34 1 15 31
M  V30 35 1 17 32
M  V30 36 1 18 33
M  V30 37 1 20 34
M  V30 38 1 21 35
M  V30 39 1 22 36
M  V30 40 1 22 37
M  V30 41 1 23 38
M  V30 42 1 23 39
M  V30 43 1 24 40
M  V30 44 1 24 41
M  V30 END BOND
M  V30 END CTAB
M  END
>  <Dataset>  (47) 
ChEMBL_Kinases

>  <Ligand_Instance>  (47) 
nan

>  <PDB_ID>  (47) 
nan

>  <Standardized_SMILES>  (47) 
O=C(Nc1cncc(-c2cc(-c3cccnc3)cs2)c1)C1CCC1

>  <Name>  (47) 
nan

>  <Pocket>  (47) 
nan

>  <ATP_Site>  (47) 
nan

>  <Peripheral>  (47) 
nan

>  <Num_H_Atoms_ProtBoundConf>  (47) 
nan

>  <Num_Resolved_Atoms>  (47) 
nan

>  <Num_Not_Resolved_Atoms>  (47) 
nan

$$$$
CHEMBL3701768
     RDKit          3D

  0  0  0  0  0  0  0  0  0  0999 V3000
M  V30 BEGIN CTAB
M  V30 COUNTS 67 72 0 0 0
M  V30 BEGIN ATOM
M  V30 1 C 6.379654 -4.328127 3.323421 0
M  V30 2 N 5.364292 -3.461921 2.780705 0
M  V30 3 C 4.274915 -3.986760 1.989070 0
M  V30 4 C 5.738772 -2.168136 3.206719 0
M  V30 5 O 6.779697 -2.294253 3.877818 0
M  V30 6 C 5.145087 -0.867013 2.992053 0
M  V30 7 C 5.805221 0.262679 3.389908 0
M  V30 8 C 5.283980 1.530372 3.194954 0
M  V30 9 C 4.053250 1.685172 2.577748 0
M  V30 10 C 3.348845 0.570799 2.158942 0
M  V30 11 C 3.942906 -0.635836 2.394327 0
M  V30 12 C 2.085639 0.834332 1.515396 0
M  V30 13 N 1.184152 -0.076163 1.019785 0
M  V30 14 C 0.128383 0.638832 0.513771 0
M  V30 15 C -0.925656 -0.205985 -0.062027 0
M  V30 16 C -1.208011 -0.314538 -1.430155 0
M  V30 17 C -2.248374 -1.179437 -1.744095 0
M  V30 18 C -2.996343 -1.911168 -0.851109 0
M  V30 19 C -4.027242 -2.747974 -1.498458 0
M  V30 20 N -3.561451 -3.427509 -2.705633 0
M  V30 21 C -5.398576 -2.150658 -1.676865 0
M  V30 22 C -5.955745 -3.520377 -1.349761 0
M  V30 23 C -6.026143 -4.436688 -2.530394 0
M  V30 24 O -7.073416 -3.534995 -0.517355 0
M  V30 25 C -4.645832 -3.772294 -0.582914 0
M  V30 26 C -2.656070 -1.746959 0.470098 0
M  V30 27 C -1.648345 -0.922069 0.912591 0
M  V30 28 C 0.423469 1.964975 0.717462 0
M  V30 29 C -0.537129 2.927679 0.256230 0
M  V30 30 C -1.858196 3.122136 0.593826 0
M  V30 31 C -2.603786 4.120882 0.012615 0
M  V30 32 C -2.028932 4.965529 -0.940521 0
M  V30 33 C -0.712118 4.791016 -1.293350 0
M  V30 34 C 0.042199 3.771232 -0.697459 0
M  V30 35 N 1.611903 2.072647 1.325470 0
M  V30 36 C 2.358893 3.237297 1.740356 0
M  V30 37 O 3.555672 2.959227 2.394242 0
M  V30 38 H 6.190900 -5.365548 2.968893 0
M  V30 39 H 7.410827 -4.029789 3.011389 0
M  V30 40 H 6.353027 -4.336144 4.416739 0
M  V30 41 H 4.474516 -5.070301 1.852622 0
M  V30 42 H 4.254873 -3.464545 0.987505 0
M  V30 43 H 3.333607 -3.828846 2.539912 0
M  V30 44 H 6.771984 0.193604 3.877818 0
M  V30 45 H 5.850617 2.395848 3.532890 0
M  V30 46 H 3.352871 -1.494043 2.044891 0
M  V30 47 H -0.615131 0.260105 -2.094755 0
M  V30 48 H -2.386219 -1.195177 -2.835284 0
M  V30 49 H -3.820574 -2.813426 -3.521966 0
M  V30 50 H -2.517353 -3.422313 -2.648748 0
M  V30 51 H -5.658882 -1.336497 -1.007615 0
M  V30 52 H -5.637178 -1.951597 -2.760072 0
M  V30 53 H -5.961010 -3.889584 -3.502388 0
M  V30 54 H -5.276184 -5.264861 -2.504498 0
M  V30 55 H -7.014373 -4.967269 -2.590822 0
M  V30 56 H -7.311940 -4.498841 -0.415791 0
M  V30 57 H -4.244580 -4.794712 -0.743625 0
M  V30 58 H -4.749720 -3.445079 0.456718 0
M  V30 59 H -3.254177 -2.327047 1.160771 0
M  V30 60 H -1.447320 -0.852170 1.968590 0
M  V30 61 H -2.184576 2.408092 1.339202 0
M  V30 62 H -3.618298 4.157844 0.369054 0
M  V30 63 H -2.718091 5.700127 -1.315564 0
M  V30 64 H -0.319291 5.471939 -2.034967 0
M  V30 65 H 1.046882 3.756962 -1.069118 0
M  V30 66 H 2.631826 3.843978 0.821822 0
M  V30 67 H 1.678162 3.893129 2.323762 0
M  V30 END ATOM
M  V30 BEGIN BOND
M  V30 1 1 1 2
M  V30 2 1 2 3
M  V30 3 1 2 4
M  V30 4 2 4 5
M  V30 5 1 4 6
M  V30 6 2 6 7
M  V30 7 1 7 8
M  V30 8 2 8 9
M  V30 9 1 9 10
M  V30 10 2 10 11
M  V30 11 1 10 12
M  V30 12 2 12 13
M  V30 13 1 13 14
M  V30 14 1 14 15
M  V30 15 2 15 16
M  V30 16 1 16 17
M  V30 17 2 17 18
M  V30 18 1 18 19
M  V30 19 1 19 20
M  V30 20 1 19 21
M  V30 21 1 21 22
M  V30 22 1 22 23
M  V30 23 1 22 24
M  V30 24 1 22 25
M  V30 25 1 18 26
M  V30 26 2 26 27
M  V30 27 2 14 28
M  V30 28 1 28 29
M  V30 29 2 29 30
M  V30 30 1 30 31
M  V30 31 2 31 32
M  V30 32 1 32 33
M  V30 33 2 33 34
M  V30 34 1 28 35
M  V30 35 1 35 36
M  V30 36 1 36 37
M  V30 37 1 11 6
M  V30 38 1 35 12
M  V30 39 1 37 9
M  V30 40 1 27 15
M  V30 41 1 34 29
M  V30 42 1 25 19
M  V30 43 1 1 38
M  V30 44 1 1 39
M  V30 45 1 1 40
M  V30 46 1 3 41
M  V30 47 1 3 42
M  V30 48 1 3 43
M  V30 49 1 7 44
M  V30 50 1 8 45
M  V30 51 1 11 46
M  V30 52 1 16 47
M  V30 53 1 17 48
M  V30 54 1 20 49
M  V30 55 1 20 50
M  V30 56 1 21 51
M  V30 57 1 21 52
M  V30 58 1 23 53
M  V30 59 1 23 54
M  V30 60 1 23 55
M  V30 61 1 24 56
M  V30 62 1 25 57
M  V30 63 1 25 58
M  V30 64 1 26 59
M  V30 65 1 27 60
M  V30 66 1 30 61
M  V30 67 1 31 62
M  V30 68 1 32 63
M  V30 69 1 33 64
M  V30 70 1 34 65
M  V30 71 1 36 66
M  V30 72 1 36 67
M  V30 END BOND
M  V30 END CTAB
M  END
>  <Dataset>  (48) 
ChEMBL_Kinases

>  <Ligand_Instance>  (48) 
nan

>  <PDB_ID>  (48) 
nan

>  <Standardized_SMILES>  (48) 
CN(C)C(=O)c1ccc2c(c1)-c1nc(-c3ccc(C4(N)CC(C)(O)C4)cc3)c(-c3ccccc3)n1CO2

>  <Name>  (48) 
nan

>  <Pocket>  (48) 
nan

>  <ATP_Site>  (48) 
nan

>  <Peripheral>  (48) 
nan

>  <Num_H_Atoms_ProtBoundConf>  (48) 
nan

>  <Num_Resolved_Atoms>  (48) 
nan

>  <Num_Not_Resolved_Atoms>  (48) 
nan

$$$$
CHEMBL3685324
     RDKit          3D

  0  0  0  0  0  0  0  0  0  0999 V3000
M  V30 BEGIN CTAB
M  V30 COUNTS 48 51 0 0 0
M  V30 BEGIN ATOM
M  V30 1 C -2.377574 -3.557477 2.402545 0
M  V30 2 C -0.844121 -3.326933 2.307850 0
M  V30 3 N -0.644959 -2.206559 1.502438 0
M  V30 4 C 0.621739 -1.664196 1.249949 0
M  V30 5 N 1.697513 -2.208234 1.868124 0
M  V30 6 C 2.941889 -1.735034 1.710163 0
M  V30 7 N 3.184636 -0.656986 0.898098 0
M  V30 8 C 2.171107 -0.052213 0.241235 0
M  V30 9 C 2.327530 1.016436 -0.610905 0
M  V30 10 C 3.667173 1.561177 -0.798645 0
M  V30 11 N 3.910055 2.671400 -1.685184 0
M  V30 12 O 4.744962 1.199944 -0.274835 0
M  V30 13 C 1.292812 1.613208 -1.300785 0
M  V30 14 C 0.030284 1.091805 -1.110617 0
M  V30 15 C -1.150011 1.631917 -1.826131 0
M  V30 16 C -2.456242 1.679737 -1.367733 0
M  V30 17 N -3.142042 2.232092 -2.414553 0
M  V30 18 N -2.309262 2.486697 -3.402723 0
M  V30 19 C -2.643484 3.056715 -4.703593 0
M  V30 20 C -1.031076 2.133689 -3.100391 0
M  V30 21 C -0.117003 0.010989 -0.242463 0
M  V30 22 C 0.919319 -0.583920 0.445042 0
M  V30 23 C -0.385348 -3.294452 3.713666 0
M  V30 24 C -0.857317 -2.089438 4.269644 0
M  V30 25 C -0.516950 -1.849204 5.606564 0
M  V30 26 C 0.228617 -2.716490 6.351716 0
M  V30 27 C 0.695567 -3.899941 5.814119 0
M  V30 28 F 1.435060 -4.835672 6.440745 0
M  V30 29 C 0.358559 -4.136763 4.495963 0
M  V30 30 H -2.884809 -3.234638 1.470954 0
M  V30 31 H -2.781506 -2.912757 3.230973 0
M  V30 32 H -2.599786 -4.602629 2.597211 0
M  V30 33 H -0.401149 -4.279020 1.891112 0
M  V30 34 H -1.484166 -1.744554 1.065548 0
M  V30 35 H 3.834831 -2.126146 2.176713 0
M  V30 36 H 3.540405 2.331127 -2.620995 0
M  V30 37 H 3.590732 2.475414 -2.660651 0
M  V30 38 H 1.427496 2.455515 -1.968807 0
M  V30 39 H -2.752177 1.332889 -0.387272 0
M  V30 40 H -1.744167 3.192314 -5.343960 0
M  V30 41 H -3.145977 4.032214 -4.645141 0
M  V30 42 H -3.281184 2.321425 -5.278809 0
M  V30 43 H -0.131229 2.217107 -3.694422 0
M  V30 44 H -1.117931 -0.323160 -0.158676 0
M  V30 45 H -1.449326 -1.290472 3.843142 0
M  V30 46 H -0.789276 -0.972925 6.200281 0
M  V30 47 H 0.531502 -2.599517 7.388337 0
M  V30 48 H 0.630308 -5.011691 3.909885 0
M  V30 END ATOM
M  V30 BEGIN BOND
M  V30 1 1 1 2
M  V30 2 1 2 3
M  V30 3 1 3 4
M  V30 4 2 4 5
M  V30 5 1 5 6
M  V30 6 2 6 7
M  V30 7 1 7 8
M  V30 8 2 8 9
M  V30 9 1 9 10
M  V30 10 1 10 11
M  V30 11 2 10 12
M  V30 12 1 9 13
M  V30 13 2 13 14
M  V30 14 1 14 15
M  V30 15 1 15 16
M  V30 16 2 16 17
M  V30 17 1 17 18
M  V30 18 1 18 19
M  V30 19 1 18 20
M  V30 20 1 14 21
M  V30 21 2 21 22
M  V30 22 1 2 23
M  V30 23 2 23 24
M  V30 24 1 24 25
M  V30 25 2 25 26
M  V30 26 1 26 27
M  V30 27 1 27 28
M  V30 28 2 27 29
M  V30 29 1 22 4
M  V30 30 1 29 23
M  V30 31 1 22 8
M  V30 32 2 20 15
M  V30 33 1 1 30
M  V30 34 1 1 31
M  V30 35 1 1 32
M  V30 36 1 2 33
M  V30 37 1 3 34
M  V30 38 1 6 35
M  V30 39 1 11 36
M  V30 40 1 11 37
M  V30 41 1 13 38
M  V30 42 1 16 39
M  V30 43 1 19 40
M  V30 44 1 19 41
M  V30 45 1 19 42
M  V30 46 1 20 43
M  V30 47 1 21 44
M  V30 48 1 24 45
M  V30 49 1 25 46
M  V30 50 1 26 47
M  V30 51 1 29 48
M  V30 END BOND
M  V30 END CTAB
M  END
>  <Dataset>  (49) 
ChEMBL_Kinases

>  <Ligand_Instance>  (49) 
nan

>  <PDB_ID>  (49) 
nan

>  <Standardized_SMILES>  (49) 
CC(Nc1ncnc2c(C(N)=O)cc(-c3cnn(C)c3)cc12)c1cccc(F)c1

>  <Name>  (49) 
nan

>  <Pocket>  (49) 
nan

>  <ATP_Site>  (49) 
nan

>  <Peripheral>  (49) 
nan

>  <Num_H_Atoms_ProtBoundConf>  (49) 
nan

>  <Num_Resolved_Atoms>  (49) 
nan

>  <Num_Not_Resolved_Atoms>  (49) 
nan

$$$$
CHEMBL274056
     RDKit          3D

  0  0  0  0  0  0  0  0  0  0999 V3000
M  V30 BEGIN CTAB
M  V30 COUNTS 20 21 0 0 0
M  V30 BEGIN ATOM
M  V30 1 O -1.647742 -1.878953 1.573680 0
M  V30 2 C -0.485117 -1.392480 1.685399 0
M  V30 3 C 0.402960 -1.649338 2.813166 0
M  V30 4 C 1.615702 -1.124750 2.901226 0
M  V30 5 C 2.124858 -0.243237 1.841305 0
M  V30 6 O 3.265631 0.248736 1.926602 0
M  V30 7 C 1.218359 0.005068 0.713177 0
M  V30 8 C 1.683077 0.822916 -0.276239 0
M  V30 9 O 2.943478 1.409829 -0.253902 0
M  V30 10 C 0.952428 1.152524 -1.400280 0
M  V30 11 C -0.329315 0.613328 -1.518632 0
M  V30 12 C -0.802905 -0.208986 -0.528819 0
M  V30 13 O -2.062619 -0.817509 -0.514788 0
M  V30 14 C -0.046385 -0.520296 0.585316 0
M  V30 15 H 0.033194 -2.293427 3.589416 0
M  V30 16 H 2.229959 -1.342033 3.746994 0
M  V30 17 H 3.045203 2.225839 0.365832 0
M  V30 18 H 1.301111 1.801729 -2.201642 0
M  V30 19 H -0.998604 0.784480 -2.331367 0
M  V30 20 H -2.883180 -0.264561 -0.323009 0
M  V30 END ATOM
M  V30 BEGIN BOND
M  V30 1 2 1 2
M  V30 2 1 2 3
M  V30 3 2 3 4
M  V30 4 1 4 5
M  V30 5 2 5 6
M  V30 6 1 5 7
M  V30 7 2 7 8
M  V30 8 1 8 9
M  V30 9 1 8 10
M  V30 10 2 10 11
M  V30 11 1 11 12
M  V30 12 1 12 13
M  V30 13 2 12 14
M  V30 14 1 14 2
M  V30 15 1 14 7
M  V30 16 1 3 15
M  V30 17 1 4 16
M  V30 18 1 9 17
M  V30 19 1 10 18
M  V30 20 1 11 19
M  V30 21 1 13 20
M  V30 END BOND
M  V30 END CTAB
M  END
>  <Dataset>  (50) 
ChEMBL_Kinases

>  <Ligand_Instance>  (50) 
nan

>  <PDB_ID>  (50) 
nan

>  <Standardized_SMILES>  (50) 
O=C1C=CC(=O)c2c(O)ccc(O)c21

>  <Name>  (50) 
NAPHTHAZALIN

>  <Pocket>  (50) 
nan

>  <ATP_Site>  (50) 
nan

>  <Peripheral>  (50) 
nan

>  <Num_H_Atoms_ProtBoundConf>  (50) 
nan

>  <Num_Resolved_Atoms>  (50) 
nan

>  <Num_Not_Resolved_Atoms>  (50) 
nan

$$$$
CHEMBL4295066
     RDKit          3D

  0  0  0  0  0  0  0  0  0  0999 V3000
M  V30 BEGIN CTAB
M  V30 COUNTS 19 19 0 0 0
M  V30 BEGIN ATOM
M  V30 1 C -0.692022 0.467880 3.142509 0
M  V30 2 C 0.713846 0.451084 2.729739 0
M  V30 3 O 1.607617 0.745190 3.597471 0
M  V30 4 N 1.193151 0.133411 1.432762 0
M  V30 5 N 2.493497 0.144393 1.159056 0
M  V30 6 C 2.698066 -0.191646 -0.141273 0
M  V30 7 N 3.932541 -0.299312 -0.840644 0
M  V30 8 C 1.476947 -0.428640 -0.728114 0
M  V30 9 Br 1.030050 -0.940056 -2.523638 0
M  V30 10 C 0.556541 -0.211670 0.302053 0
M  V30 11 C -0.892396 -0.346646 0.147344 0
M  V30 12 H -1.196007 1.411182 2.780412 0
M  V30 13 H -0.742178 0.580184 4.263408 0
M  V30 14 H -1.268613 -0.399640 2.800165 0
M  V30 15 H 4.541908 -1.160065 -0.790404 0
M  V30 16 H 4.249135 0.515964 -1.432747 0
M  V30 17 H -1.432882 0.494776 0.591474 0
M  V30 18 H -1.163075 -0.378569 -0.951391 0
M  V30 19 H -1.307627 -1.296194 0.592747 0
M  V30 END ATOM
M  V30 BEGIN BOND
M  V30 1 1 1 2
M  V30 2 2 2 3
M  V30 3 1 2 4
M  V30 4 1 4 5
M  V30 5 2 5 6
M  V30 6 1 6 7
M  V30 7 1 6 8
M  V30 8 1 8 9
M  V30 9 2 8 10
M  V30 10 1 10 11
M  V30 11 1 10 4
M  V30 12 1 1 12
M  V30 13 1 1 13
M  V30 14 1 1 14
M  V30 15 1 7 15
M  V30 16 1 7 16
M  V30 17 1 11 17
M  V30 18 1 11 18
M  V30 19 1 11 19
M  V30 END BOND
M  V30 END CTAB
M  END
>  <Dataset>  (51) 
ChEMBL_Kinases

>  <Ligand_Instance>  (51) 
nan

>  <PDB_ID>  (51) 
nan

>  <Standardized_SMILES>  (51) 
CC(=O)n1nc(N)c(Br)c1C

>  <Name>  (51) 
nan

>  <Pocket>  (51) 
nan

>  <ATP_Site>  (51) 
nan

>  <Peripheral>  (51) 
nan

>  <Num_H_Atoms_ProtBoundConf>  (51) 
nan

>  <Num_Resolved_Atoms>  (51) 
nan

>  <Num_Not_Resolved_Atoms>  (51) 
nan

$$$$
CHEMBL3701773
     RDKit          3D

  0  0  0  0  0  0  0  0  0  0999 V3000
M  V30 BEGIN CTAB
M  V30 COUNTS 68 73 0 0 0
M  V30 BEGIN ATOM
M  V30 1 C 0.838615 4.214241 10.625190 0
M  V30 2 C 0.831021 4.176878 9.091901 0
M  V30 3 O 1.827192 3.247061 8.754911 0
M  V30 4 N 1.911588 3.100901 7.438616 0
M  V30 5 C 2.364685 3.370748 6.127371 0
M  V30 6 O 3.193437 4.305836 6.139562 0
M  V30 7 C 1.835224 2.573577 5.027454 0
M  V30 8 C 0.934351 1.531689 5.047200 0
M  V30 9 C 0.595998 0.944514 3.846809 0
M  V30 10 C 1.132485 1.373200 2.651344 0
M  V30 11 C 2.035659 2.416476 2.622502 0
M  V30 12 C 2.376304 3.008294 3.835890 0
M  V30 13 O 2.549283 2.814802 1.403035 0
M  V30 14 C 2.233049 2.261264 0.164418 0
M  V30 15 N 1.288137 1.171916 0.233064 0
M  V30 16 C 0.754633 0.735641 1.391332 0
M  V30 17 N -0.083253 -0.285314 1.103631 0
M  V30 18 C -0.081709 -0.497356 -0.236573 0
M  V30 19 C -0.858787 -1.516722 -0.953474 0
M  V30 20 C -1.845397 -1.323044 -1.907459 0
M  V30 21 C -2.453703 -2.430159 -2.459618 0
M  V30 22 C -2.132619 -3.727049 -2.112648 0
M  V30 23 C -2.931902 -4.735028 -2.853765 0
M  V30 24 N -4.325649 -4.339342 -2.925987 0
M  V30 25 C -2.681756 -6.170313 -2.557916 0
M  V30 26 C -1.915123 -6.359773 -3.872423 0
M  V30 27 C -2.421276 -7.512180 -4.711986 0
M  V30 28 O -0.533037 -6.378076 -3.646711 0
M  V30 29 C -2.421572 -4.992993 -4.267839 0
M  V30 30 C -1.150028 -3.917491 -1.162502 0
M  V30 31 C -0.523931 -2.828120 -0.592934 0
M  V30 32 C 0.796411 0.439694 -0.769798 0
M  V30 33 C 1.033862 0.485780 -2.220158 0
M  V30 34 C 0.629206 1.698741 -2.739519 0
M  V30 35 C 0.753772 1.979773 -4.092354 0
M  V30 36 C 1.295277 1.009146 -4.906079 0
M  V30 37 C 1.700330 -0.203784 -4.388833 0
M  V30 38 C 1.575423 -0.481302 -3.042007 0
M  V30 39 H 0.423443 3.267480 11.028545 0
M  V30 40 H 0.146259 5.028612 10.922820 0
M  V30 41 H 1.847905 4.442106 10.983950 0
M  V30 42 H -0.156997 3.845386 8.726440 0
M  V30 43 H 1.098182 5.194332 8.732654 0
M  V30 44 H 1.201308 2.339118 7.658359 0
M  V30 45 H 0.582477 1.284084 6.036658 0
M  V30 46 H -0.113215 0.130546 3.904222 0
M  V30 47 H 3.100876 3.830679 3.723575 0
M  V30 48 H 3.133811 1.962263 -0.425325 0
M  V30 49 H 1.739686 3.063944 -0.436615 0
M  V30 50 H -2.042150 -0.290078 -2.126951 0
M  V30 51 H -3.212686 -2.126792 -3.197694 0
M  V30 52 H -4.991009 -5.147209 -2.823136 0
M  V30 53 H -4.489806 -3.861457 -3.829202 0
M  V30 54 H -3.593264 -6.805449 -2.589721 0
M  V30 55 H -2.096736 -6.419057 -1.667043 0
M  V30 56 H -1.605766 -8.176774 -5.053891 0
M  V30 57 H -3.227453 -8.076712 -4.205238 0
M  V30 58 H -2.906204 -7.060373 -5.610017 0
M  V30 59 H -0.330189 -6.627783 -2.693606 0
M  V30 60 H -1.593611 -4.290079 -4.562506 0
M  V30 61 H -3.196597 -5.024449 -5.043075 0
M  V30 62 H -0.942806 -4.932161 -0.933971 0
M  V30 63 H 0.227050 -3.099081 0.136431 0
M  V30 64 H 0.188096 2.538950 -2.189633 0
M  V30 65 H 0.453743 2.907318 -4.545639 0
M  V30 66 H 1.423723 1.162668 -5.984225 0
M  V30 67 H 2.137676 -1.020078 -4.972686 0
M  V30 68 H 1.850829 -1.382941 -2.512357 0
M  V30 END ATOM
M  V30 BEGIN BOND
M  V30 1 1 1 2
M  V30 2 1 2 3
M  V30 3 1 3 4
M  V30 4 1 4 5
M  V30 5 2 5 6
M  V30 6 1 5 7
M  V30 7 2 7 8
M  V30 8 1 8 9
M  V30 9 2 9 10
M  V30 10 1 10 11
M  V30 11 2 11 12
M  V30 12 1 11 13
M  V30 13 1 13 14
M  V30 14 1 14 15
M  V30 15 1 15 16
M  V30 16 2 16 17
M  V30 17 1 17 18
M  V30 18 1 18 19
M  V30 19 2 19 20
M  V30 20 1 20 21
M  V30 21 2 21 22
M  V30 22 1 22 23
M  V30 23 1 23 24
M  V30 24 1 23 25
M  V30 25 1 25 26
M  V30 26 1 26 27
M  V30 27 1 26 28
M  V30 28 1 26 29
M  V30 29 1 22 30
M  V30 30 2 30 31
M  V30 31 2 18 32
M  V30 32 1 32 33
M  V30 33 2 33 34
M  V30 34 1 34 35
M  V30 35 2 35 36
M  V30 36 1 36 37
M  V30 37 2 37 38
M  V30 38 1 12 7
M  V30 39 1 32 15
M  V30 40 1 38 33
M  V30 41 1 16 10
M  V30 42 1 31 19
M  V30 43 1 29 23
M  V30 44 1 1 39
M  V30 45 1 1 40
M  V30 46 1 1 41
M  V30 47 1 2 42
M  V30 48 1 2 43
M  V30 49 1 4 44
M  V30 50 1 8 45
M  V30 51 1 9 46
M  V30 52 1 12 47
M  V30 53 1 14 48
M  V30 54 1 14 49
M  V30 55 1 20 50
M  V30 56 1 21 51
M  V30 57 1 24 52
M  V30 58 1 24 53
M  V30 59 1 25 54
M  V30 60 1 25 55
M  V30 61 1 27 56
M  V30 62 1 27 57
M  V30 63 1 27 58
M  V30 64 1 28 59
M  V30 65 1 29 60
M  V30 66 1 29 61
M  V30 67 1 30 62
M  V30 68 1 31 63
M  V30 69 1 34 64
M  V30 70 1 35 65
M  V30 71 1 36 66
M  V30 72 1 37 67
M  V30 73 1 38 68
M  V30 END BOND
M  V30 END CTAB
M  END
>  <Dataset>  (52) 
ChEMBL_Kinases

>  <Ligand_Instance>  (52) 
nan

>  <PDB_ID>  (52) 
nan

>  <Standardized_SMILES>  (52) 
CCONC(=O)c1ccc2c(c1)OCn1c-2nc(-c2ccc(C3(N)CC(C)(O)C3)cc2)c1-c1ccccc1

>  <Name>  (52) 
nan

>  <Pocket>  (52) 
nan

>  <ATP_Site>  (52) 
nan

>  <Peripheral>  (52) 
nan

>  <Num_H_Atoms_ProtBoundConf>  (52) 
nan

>  <Num_Resolved_Atoms>  (52) 
nan

>  <Num_Not_Resolved_Atoms>  (52) 
nan

$$$$
CHEMBL272292
     RDKit          3D

  0  0  0  0  0  0  0  0  0  0999 V3000
M  V30 BEGIN CTAB
M  V30 COUNTS 71 77 0 0 0
M  V30 BEGIN ATOM
M  V30 1 O 8.156168 -1.853248 2.782771 0
M  V30 2 C 7.681992 -2.252677 1.690234 0
M  V30 3 O 8.541791 -3.132408 1.003570 0
M  V30 4 C 6.392390 -1.901242 1.109050 0
M  V30 5 C 5.857392 -2.338230 -0.084659 0
M  V30 6 C 4.612777 -1.902985 -0.491145 0
M  V30 7 C 3.916374 -1.025890 0.315568 0
M  V30 8 N 2.720501 -0.599945 -0.064141 0
M  V30 9 C 1.969046 0.268783 0.677818 0
M  V30 10 C 0.660156 0.803953 0.372204 0
M  V30 11 C -0.357854 0.523213 1.257227 0
M  V30 12 C -1.651343 0.964719 1.093072 0
M  V30 13 C -2.003688 1.732744 0.002508 0
M  V30 14 C -3.359665 2.259057 -0.259045 0
M  V30 15 N -4.141904 1.350205 -0.991118 0
M  V30 16 C -3.729624 0.907357 -2.253822 0
M  V30 17 C -4.188248 -0.531328 -2.546856 0
M  V30 18 C -3.678378 -1.323429 -1.353985 0
M  V30 19 N -3.761722 -2.739458 -1.648291 0
M  V30 20 C -4.852886 -3.300776 -2.204138 0
M  V30 21 O -5.958928 -2.842203 -2.579563 0
M  V30 22 N -4.569821 -4.631042 -2.329860 0
M  V30 23 C -3.335353 -4.842395 -1.855522 0
M  V30 24 C -2.532122 -5.983151 -1.730450 0
M  V30 25 C -1.261604 -5.933399 -1.193844 0
M  V30 26 C -0.738945 -4.715843 -0.754337 0
M  V30 27 C -1.531990 -3.574104 -0.874904 0
M  V30 28 C -2.809998 -3.663843 -1.421925 0
M  V30 29 C -4.467122 -0.927413 -0.157063 0
M  V30 30 C -5.012483 0.472438 -0.323929 0
M  V30 31 C -0.981715 2.017098 -0.889713 0
M  V30 32 C 0.317936 1.582324 -0.739054 0
M  V30 33 C 2.499804 0.709495 1.873369 0
M  V30 34 C 1.867647 1.638358 2.821336 0
M  V30 35 C 1.588338 2.925050 2.405579 0
M  V30 36 C 0.987703 3.779770 3.335166 0
M  V30 37 C 0.702901 3.321739 4.599217 0
M  V30 38 C 0.989106 2.024615 5.005097 0
M  V30 39 C 1.578985 1.181754 4.095438 0
M  V30 40 N 3.711639 0.299453 2.293348 0
M  V30 41 C 4.412755 -0.560806 1.520178 0
M  V30 42 C 5.660736 -1.015725 1.897845 0
M  V30 43 H 9.540510 -3.079620 1.088572 0
M  V30 44 H 6.485276 -3.023245 -0.639326 0
M  V30 45 H 4.238996 -2.276819 -1.436732 0
M  V30 46 H -0.162176 -0.081991 2.151487 0
M  V30 47 H -2.401875 0.722038 1.803089 0
M  V30 48 H -3.849074 2.416199 0.736702 0
M  V30 49 H -3.276843 3.270835 -0.764183 0
M  V30 50 H -4.116439 1.484172 -3.117948 0
M  V30 51 H -2.613862 0.821923 -2.280332 0
M  V30 52 H -5.270899 -0.593935 -2.691155 0
M  V30 53 H -3.669122 -0.857632 -3.462563 0
M  V30 54 H -2.619161 -0.986976 -1.181618 0
M  V30 55 H -5.147047 -5.427649 -2.715138 0
M  V30 56 H -2.911731 -6.960983 -2.066718 0
M  V30 57 H -0.616638 -6.780491 -1.080462 0
M  V30 58 H 0.238583 -4.539424 -0.316351 0
M  V30 59 H -1.160479 -2.602979 -0.543013 0
M  V30 60 H -5.325821 -1.617824 0.038156 0
M  V30 61 H -3.810672 -0.917584 0.744312 0
M  V30 62 H -5.310556 0.801552 0.698362 0
M  V30 63 H -5.958469 0.372840 -0.904025 0
M  V30 64 H -1.109783 2.615180 -1.797583 0
M  V30 65 H 1.124109 1.794692 -1.424151 0
M  V30 66 H 1.803639 3.306414 1.415757 0
M  V30 67 H 0.749182 4.786340 3.067664 0
M  V30 68 H 0.231898 3.933775 5.383232 0
M  V30 69 H 0.798655 1.598510 5.965031 0
M  V30 70 H 1.837483 0.145049 4.333794 0
M  V30 71 H 6.018846 -0.622382 2.861509 0
M  V30 END ATOM
M  V30 BEGIN BOND
M  V30 1 2 1 2
M  V30 2 1 2 3
M  V30 3 1 2 4
M  V30 4 2 4 5
M  V30 5 1 5 6
M  V30 6 2 6 7
M  V30 7 1 7 8
M  V30 8 2 8 9
M  V30 9 1 9 10
M  V30 10 2 10 11
M  V30 11 1 11 12
M  V30 12 2 12 13
M  V30 13 1 13 14
M  V30 14 1 14 15
M  V30 15 1 15 16
M  V30 16 1 16 17
M  V30 17 1 17 18
M  V30 18 1 18 19
M  V30 19 1 19 20
M  V30 20 2 20 21
M  V30 21 1 20 22
M  V30 22 1 22 23
M  V30 23 2 23 24
M  V30 24 1 24 25
M  V30 25 2 25 26
M  V30 26 1 26 27
M  V30 27 2 27 28
M  V30 28 1 18 29
M  V30 29 1 29 30
M  V30 30 1 13 31
M  V30 31 2 31 32
M  V30 32 1 9 33
M  V30 33 1 33 34
M  V30 34 2 34 35
M  V30 35 1 35 36
M  V30 36 2 36 37
M  V30 37 1 37 38
M  V30 38 2 38 39
M  V30 39 2 33 40
M  V30 40 1 40 41
M  V30 41 2 41 42
M  V30 42 1 42 4
M  V30 43 1 41 7
M  V30 44 1 32 10
M  V30 45 1 39 34
M  V30 46 1 30 15
M  V30 47 1 28 19
M  V30 48 1 28 23
M  V30 49 1 3 43
M  V30 50 1 5 44
M  V30 51 1 6 45
M  V30 52 1 11 46
M  V30 53 1 12 47
M  V30 54 1 14 48
M  V30 55 1 14 49
M  V30 56 1 16 50
M  V30 57 1 16 51
M  V30 58 1 17 52
M  V30 59 1 17 53
M  V30 60 1 18 54
M  V30 61 1 22 55
M  V30 62 1 24 56
M  V30 63 1 25 57
M  V30 64 1 26 58
M  V30 65 1 27 59
M  V30 66 1 29 60
M  V30 67 1 29 61
M  V30 68 1 30 62
M  V30 69 1 30 63
M  V30 70 1 31 64
M  V30 71 1 32 65
M  V30 72 1 35 66
M  V30 73 1 36 67
M  V30 74 1 37 68
M  V30 75 1 38 69
M  V30 76 1 39 70
M  V30 77 1 42 71
M  V30 END BOND
M  V30 END CTAB
M  END
>  <Dataset>  (53) 
ChEMBL_Kinases

>  <Ligand_Instance>  (53) 
nan

>  <PDB_ID>  (53) 
nan

>  <Standardized_SMILES>  (53) 
O=C(O)c1ccc2nc(-c3ccc(CN4CCC(n5c(=O)[nH]c6ccccc65)CC4)cc3)c(-c3ccccc3)nc2c1

>  <Name>  (53) 
nan

>  <Pocket>  (53) 
nan

>  <ATP_Site>  (53) 
nan

>  <Peripheral>  (53) 
nan

>  <Num_H_Atoms_ProtBoundConf>  (53) 
nan

>  <Num_Resolved_Atoms>  (53) 
nan

>  <Num_Not_Resolved_Atoms>  (53) 
nan

$$$$
CHEMBL4295050
     RDKit          3D

  0  0  0  0  0  0  0  0  0  0999 V3000
M  V30 BEGIN CTAB
M  V30 COUNTS 42 44 0 0 0
M  V30 BEGIN ATOM
M  V30 1 C 0.247719 -6.148429 1.876451 0
M  V30 2 C 1.166936 -5.140827 1.141482 0
M  V30 3 C 1.516483 -4.070855 2.122528 0
M  V30 4 C 0.408705 -4.725655 -0.059609 0
M  V30 5 C 1.030314 -3.768542 -0.997426 0
M  V30 6 C 1.397301 -2.443095 -0.471577 0
M  V30 7 C 2.607631 -1.994953 0.043324 0
M  V30 8 C 2.784428 -0.708349 0.499824 0
M  V30 9 C 1.760949 0.214206 0.470792 0
M  V30 10 O 1.959435 1.427009 0.910965 0
M  V30 11 C 1.010730 2.350483 0.905388 0
M  V30 12 N 1.252603 3.591548 1.367830 0
M  V30 13 C 0.290208 4.555436 1.370636 0
M  V30 14 N 0.535942 5.874747 1.858694 0
M  V30 15 C -0.943879 4.190009 0.874209 0
M  V30 16 C -1.969323 5.226864 0.880299 0
M  V30 17 O -1.737257 6.384820 1.313755 0
M  V30 18 O -3.268105 5.050462 0.422881 0
M  V30 19 C -1.273925 2.943639 0.382792 0
M  V30 20 C -0.252481 2.009544 0.407580 0
M  V30 21 C -0.501291 0.727718 -0.069736 0
M  V30 22 O -1.621918 0.392296 -0.521650 0
M  V30 23 C 0.538060 -0.178627 -0.030728 0
M  V30 24 C 0.399323 -1.459435 -0.473626 0
M  V30 25 H 0.646397 -6.204545 2.903556 0
M  V30 26 H -0.774885 -5.729800 1.803566 0
M  V30 27 H 0.274418 -7.121907 1.351222 0
M  V30 28 H 2.106246 -5.671290 0.872089 0
M  V30 29 H 2.617110 -3.867512 2.189250 0
M  V30 30 H 1.287647 -4.472061 3.160708 0
M  V30 31 H 0.944621 -3.147106 2.063248 0
M  V30 32 H -0.629478 -4.419968 0.231960 0
M  V30 33 H 0.222247 -5.672955 -0.657084 0
M  V30 34 H 1.960040 -4.190728 -1.490799 0
M  V30 35 H 0.368558 -3.557984 -1.893539 0
M  V30 36 H 3.379537 -2.780195 0.037295 0
M  V30 37 H 3.760012 -0.442585 0.885063 0
M  V30 38 H 0.570735 6.814345 1.433482 0
M  V30 39 H 0.729962 5.920387 2.898039 0
M  V30 40 H -4.090944 5.435858 0.866487 0
M  V30 41 H -2.264021 2.721900 0.006819 0
M  V30 42 H -0.581897 -1.706413 -0.854726 0
M  V30 END ATOM
M  V30 BEGIN BOND
M  V30 1 1 1 2
M  V30 2 1 2 3
M  V30 3 1 2 4
M  V30 4 1 4 5
M  V30 5 1 5 6
M  V30 6 2 6 7
M  V30 7 1 7 8
M  V30 8 2 8 9
M  V30 9 1 9 10
M  V30 10 1 10 11
M  V30 11 2 11 12
M  V30 12 1 12 13
M  V30 13 1 13 14
M  V30 14 2 13 15
M  V30 15 1 15 16
M  V30 16 2 16 17
M  V30 17 1 16 18
M  V30 18 1 15 19
M  V30 19 2 19 20
M  V30 20 1 20 21
M  V30 21 2 21 22
M  V30 22 1 21 23
M  V30 23 2 23 24
M  V30 24 1 24 6
M  V30 25 1 23 9
M  V30 26 1 20 11
M  V30 27 1 1 25
M  V30 28 1 1 26
M  V30 29 1 1 27
M  V30 30 1 2 28
M  V30 31 1 3 29
M  V30 32 1 3 30
M  V30 33 1 3 31
M  V30 34 1 4 32
M  V30 35 1 4 33
M  V30 36 1 5 34
M  V30 37 1 5 35
M  V30 38 1 7 36
M  V30 39 1 8 37
M  V30 40 1 14 38
M  V30 41 1 14 39
M  V30 42 1 18 40
M  V30 43 1 19 41
M  V30 44 1 24 42
M  V30 END BOND
M  V30 END CTAB
M  END
>  <Dataset>  (54) 
ChEMBL_Kinases

>  <Ligand_Instance>  (54) 
nan

>  <PDB_ID>  (54) 
nan

>  <Standardized_SMILES>  (54) 
CC(C)CCc1ccc2oc3nc(N)c(C(=O)O)cc3c(=O)c2c1

>  <Name>  (54) 
nan

>  <Pocket>  (54) 
nan

>  <ATP_Site>  (54) 
nan

>  <Peripheral>  (54) 
nan

>  <Num_H_Atoms_ProtBoundConf>  (54) 
nan

>  <Num_Resolved_Atoms>  (54) 
nan

>  <Num_Not_Resolved_Atoms>  (54) 
nan

$$$$
CHEMBL4295011
     RDKit          3D

  0  0  0  0  0  0  0  0  0  0999 V3000
M  V30 BEGIN CTAB
M  V30 COUNTS 22 23 0 0 0
M  V30 BEGIN ATOM
M  V30 1 N 0.112555 1.307850 3.309182 0
M  V30 2 C 0.025615 0.861300 1.952949 0
M  V30 3 C 0.357019 -0.451126 1.625433 0
M  V30 4 C 0.229270 -0.755557 0.277195 0
M  V30 5 C 0.561945 -2.116045 -0.127862 0
M  V30 6 C 1.519729 -2.902633 0.474669 0
M  V30 7 N 1.809675 -4.155375 0.083483 0
M  V30 8 C 1.147644 -4.713742 -0.956275 0
M  V30 9 N 0.211156 -3.980003 -1.565514 0
M  V30 10 C -0.102090 -2.728033 -1.200247 0
M  V30 11 C -0.183545 0.115969 -0.704893 0
M  V30 12 N -0.496853 1.384094 -0.345518 0
M  V30 13 C -0.383913 1.706470 0.943785 0
M  V30 14 O -0.682405 2.901632 1.263801 0
M  V30 15 H 0.076592 0.607917 4.080866 0
M  V30 16 H 0.208266 2.326848 3.450028 0
M  V30 17 H 0.682179 -1.163006 2.356049 0
M  V30 18 H 2.036933 -2.420638 1.312719 0
M  V30 19 H 1.308873 -5.696181 -1.336244 0
M  V30 20 H -0.859560 -2.134736 -1.692736 0
M  V30 21 H -0.262076 -0.185021 -1.742715 0
M  V30 22 H -0.805652 2.026779 -1.096824 0
M  V30 END ATOM
M  V30 BEGIN BOND
M  V30 1 1 1 2
M  V30 2 2 2 3
M  V30 3 1 3 4
M  V30 4 1 4 5
M  V30 5 2 5 6
M  V30 6 1 6 7
M  V30 7 2 7 8
M  V30 8 1 8 9
M  V30 9 2 9 10
M  V30 10 2 4 11
M  V30 11 1 11 12
M  V30 12 1 12 13
M  V30 13 2 13 14
M  V30 14 1 13 2
M  V30 15 1 10 5
M  V30 16 1 1 15
M  V30 17 1 1 16
M  V30 18 1 3 17
M  V30 19 1 6 18
M  V30 20 1 8 19
M  V30 21 1 10 20
M  V30 22 1 11 21
M  V30 23 1 12 22
M  V30 END BOND
M  V30 END CTAB
M  END
>  <Dataset>  (55) 
ChEMBL_Kinases

>  <Ligand_Instance>  (55) 
nan

>  <PDB_ID>  (55) 
nan

>  <Standardized_SMILES>  (55) 
Nc1cc(-c2cncnc2)c[nH]c1=O

>  <Name>  (55) 
nan

>  <Pocket>  (55) 
nan

>  <ATP_Site>  (55) 
nan

>  <Peripheral>  (55) 
nan

>  <Num_H_Atoms_ProtBoundConf>  (55) 
nan

>  <Num_Resolved_Atoms>  (55) 
nan

>  <Num_Not_Resolved_Atoms>  (55) 
nan

$$$$
CHEMBL3685745
     RDKit          3D

  0  0  0  0  0  0  0  0  0  0999 V3000
M  V30 BEGIN CTAB
M  V30 COUNTS 57 61 0 0 0
M  V30 BEGIN ATOM
M  V30 1 N 1.663272 -2.050528 2.942787 0
M  V30 2 C 1.293387 -0.647414 2.782891 0 CFG=1
M  V30 3 C 2.511284 0.180968 3.050336 0
M  V30 4 C 3.479161 0.001297 1.908985 0 CFG=1
M  V30 5 C 4.447013 -1.154864 2.201640 0
M  V30 6 F 5.148687 -0.864504 3.355783 0
M  V30 7 C 2.830140 -0.114300 0.599016 0
M  V30 8 N 1.448844 0.407016 0.545251 0
M  V30 9 C 1.196206 1.569449 -0.255590 0
M  V30 10 C 2.216335 2.500374 -0.188459 0
M  V30 11 C 2.132980 3.703484 -0.831448 0
M  V30 12 N 1.034957 3.994202 -1.548334 0
M  V30 13 C 0.070544 3.081438 -1.597089 0
M  V30 14 C 0.040919 1.848099 -0.998427 0
M  V30 15 N -0.955967 0.879343 -1.012576 0
M  V30 16 C -2.274550 0.714146 -1.454097 0
M  V30 17 C -3.034622 1.675194 -2.043369 0
M  V30 18 C -4.323350 1.519442 -2.493644 0
M  V30 19 C -4.909919 0.283259 -2.339821 0
M  V30 20 C -4.209416 -0.719382 -1.760269 0
M  V30 21 C -4.803480 -1.950682 -1.610655 0
M  V30 22 N -4.106543 -2.949546 -1.033655 0
M  V30 23 C -2.838492 -2.768412 -0.599339 0
M  V30 24 C -2.009927 -3.787129 0.034736 0
M  V30 25 C -1.157312 -4.669945 -0.592342 0
M  V30 26 F -1.096449 -4.563132 -1.951460 0
M  V30 27 C -0.429625 -5.586700 0.136275 0
M  V30 28 C -0.571211 -5.606280 1.526579 0
M  V30 29 C -1.428679 -4.719145 2.162660 0
M  V30 30 C -2.144212 -3.812922 1.409248 0
M  V30 31 F -2.951551 -2.993805 2.133265 0
M  V30 32 N -2.302487 -1.556162 -0.765548 0
M  V30 33 C -2.922105 -0.506387 -1.328352 0
M  V30 34 C 0.680463 -0.448142 1.411977 0
M  V30 35 H 1.364719 -2.453714 3.853450 0
M  V30 36 H 1.299185 -2.635836 2.140873 0
M  V30 37 H 0.585383 -0.437129 3.608344 0
M  V30 38 H 2.315896 1.255302 3.207145 0
M  V30 39 H 3.027596 -0.206495 3.951569 0
M  V30 40 H 4.144828 0.888144 1.918078 0
M  V30 41 H 3.954962 -2.113789 2.334943 0
M  V30 42 H 5.185162 -1.133539 1.374997 0
M  V30 43 H 2.785328 -1.172134 0.245559 0
M  V30 44 H 3.395402 0.420027 -0.190503 0
M  V30 45 H 3.128507 2.348962 0.363676 0
M  V30 46 H 2.936811 4.422569 -0.770792 0
M  V30 47 H -0.730591 3.425525 -2.204601 0
M  V30 48 H -0.630646 -0.015420 -0.593585 0
M  V30 49 H -2.732735 2.671973 -2.219905 0
M  V30 50 H -4.938079 2.272156 -2.962424 0
M  V30 51 H -5.920665 0.084408 -2.669441 0
M  V30 52 H -5.814763 -2.099408 -1.955761 0
M  V30 53 H 0.229486 -6.263404 -0.392917 0
M  V30 54 H 0.024071 -6.348045 2.059265 0
M  V30 55 H -1.488917 -4.791258 3.247846 0
M  V30 56 H 0.551451 -1.421061 0.883654 0
M  V30 57 H -0.334675 -0.099914 1.664665 0
M  V30 END ATOM
M  V30 BEGIN BOND
M  V30 1 1 1 2
M  V30 2 1 2 3
M  V30 3 1 3 4
M  V30 4 1 4 5
M  V30 5 1 5 6
M  V30 6 1 4 7
M  V30 7 1 7 8
M  V30 8 1 8 9
M  V30 9 2 9 10
M  V30 10 1 10 11
M  V30 11 2 11 12
M  V30 12 1 12 13
M  V30 13 2 13 14
M  V30 14 1 14 15
M  V30 15 1 15 16
M  V30 16 2 16 17
M  V30 17 1 17 18
M  V30 18 2 18 19
M  V30 19 1 19 20
M  V30 20 2 20 21
M  V30 21 1 21 22
M  V30 22 2 22 23
M  V30 23 1 23 24
M  V30 24 2 24 25
M  V30 25 1 25 26
M  V30 26 1 25 27
M  V30 27 2 27 28
M  V30 28 1 28 29
M  V30 29 2 29 30
M  V30 30 1 30 31
M  V30 31 1 23 32
M  V30 32 2 32 33
M  V30 33 1 8 34
M  V30 34 1 34 2
M  V30 35 1 14 9
M  V30 36 1 33 16
M  V30 37 1 33 20
M  V30 38 1 30 24
M  V30 39 1 1 35
M  V30 40 1 1 36
M  V30 41 1 2 37 CFG=1
M  V30 42 1 3 38
M  V30 43 1 3 39
M  V30 44 1 4 40 CFG=3
M  V30 45 1 5 41
M  V30 46 1 5 42
M  V30 47 1 7 43
M  V30 48 1 7 44
M  V30 49 1 10 45
M  V30 50 1 11 46
M  V30 51 1 13 47
M  V30 52 1 15 48
M  V30 53 1 17 49
M  V30 54 1 18 50
M  V30 55 1 19 51
M  V30 56 1 21 52
M  V30 57 1 27 53
M  V30 58 1 28 54
M  V30 59 1 29 55
M  V30 60 1 34 56
M  V30 61 1 34 57
M  V30 END BOND
M  V30 END CTAB
M  END
>  <Dataset>  (56) 
ChEMBL_Kinases

>  <Ligand_Instance>  (56) 
nan

>  <PDB_ID>  (56) 
nan

>  <Standardized_SMILES>  (56) 
N[C@H]1C[C@@H](CF)CN(c2ccncc2Nc2cccc3cnc(-c4c(F)cccc4F)nc23)C1

>  <Name>  (56) 
nan

>  <Pocket>  (56) 
nan

>  <ATP_Site>  (56) 
nan

>  <Peripheral>  (56) 
nan

>  <Num_H_Atoms_ProtBoundConf>  (56) 
nan

>  <Num_Resolved_Atoms>  (56) 
nan

>  <Num_Not_Resolved_Atoms>  (56) 
nan

$$$$
CHEMBL3685742
     RDKit          3D

  0  0  0  0  0  0  0  0  0  0999 V3000
M  V30 BEGIN CTAB
M  V30 COUNTS 54 58 0 0 0
M  V30 BEGIN ATOM
M  V30 1 N -1.115104 -3.073770 -2.109004 0
M  V30 2 C -1.935161 -1.902044 -1.811230 0 CFG=2
M  V30 3 C -1.924751 -1.778833 -0.303569 0
M  V30 4 N -2.920396 -0.846708 0.119043 0
M  V30 5 C -2.637817 -0.052422 1.260947 0
M  V30 6 C -3.609393 -0.255070 2.247731 0
M  V30 7 C -3.563098 0.403917 3.461965 0
M  V30 8 N -2.548464 1.255605 3.674736 0
M  V30 9 C -1.588760 1.477633 2.742507 0
M  V30 10 C -1.611234 0.831324 1.518967 0
M  V30 11 N -0.689117 0.951878 0.462314 0
M  V30 12 C -0.712669 1.355024 -0.875756 0
M  V30 13 C -1.863479 1.789277 -1.489207 0
M  V30 14 C -1.851568 2.176513 -2.809679 0
M  V30 15 C -0.675154 2.135830 -3.548045 0
M  V30 16 C 0.434857 1.699428 -2.896613 0
M  V30 17 C 1.627717 1.647275 -3.608186 0
M  V30 18 N 2.761354 1.221828 -3.011420 0
M  V30 19 C 2.790432 0.832729 -1.715293 0
M  V30 20 C 3.994365 0.366527 -1.032932 0
M  V30 21 C 4.750407 1.339125 -0.405779 0
M  V30 22 F 4.392733 2.642116 -0.425714 0
M  V30 23 C 5.905787 0.933353 0.255615 0
M  V30 24 C 6.265757 -0.398629 0.272436 0
M  V30 25 C 5.506615 -1.381912 -0.358338 0
M  V30 26 C 4.346350 -0.968125 -1.021544 0
M  V30 27 F 3.582392 -1.900476 -1.647346 0
M  V30 28 N 1.638930 0.879807 -1.017338 0
M  V30 29 C 0.478603 1.297627 -1.568403 0
M  V30 30 C -4.205304 -0.636941 -0.507190 0
M  V30 31 C -4.188169 -0.962775 -1.978119 0
M  V30 32 C -3.368568 -2.212017 -2.222307 0 CFG=1
M  V30 33 F -3.444710 -2.601792 -3.523134 0
M  V30 34 H -1.543937 -3.893989 -1.654295 0
M  V30 35 H -0.935920 -3.173591 -3.130479 0
M  V30 36 H -1.571278 -1.002601 -2.319362 0
M  V30 37 H -2.222959 -2.775723 0.081602 0
M  V30 38 H -0.932890 -1.505491 0.073190 0
M  V30 39 H -4.480232 -0.926901 2.180101 0
M  V30 40 H -4.292275 0.275562 4.248625 0
M  V30 41 H -0.750344 2.151839 2.860978 0
M  V30 42 H 0.170529 0.623856 0.954979 0
M  V30 43 H -2.797262 1.847889 -0.985178 0
M  V30 44 H -2.742552 2.525155 -3.327006 0
M  V30 45 H -0.618274 2.434126 -4.600765 0
M  V30 46 H 1.690970 1.943615 -4.658930 0
M  V30 47 H 6.523986 1.667202 0.758775 0
M  V30 48 H 7.174215 -0.706147 0.794291 0
M  V30 49 H 5.821979 -2.415926 -0.322731 0
M  V30 50 H -4.581889 0.389682 -0.350708 0
M  V30 51 H -4.943667 -1.310548 0.000991 0
M  V30 52 H -3.851377 -0.132645 -2.621461 0
M  V30 53 H -5.243541 -1.187187 -2.284086 0
M  V30 54 H -3.725172 -2.974725 -1.488229 0
M  V30 END ATOM
M  V30 BEGIN BOND
M  V30 1 1 1 2
M  V30 2 1 2 3
M  V30 3 1 3 4
M  V30 4 1 4 5
M  V30 5 2 5 6
M  V30 6 1 6 7
M  V30 7 2 7 8
M  V30 8 1 8 9
M  V30 9 2 9 10
M  V30 10 1 10 11
M  V30 11 1 11 12
M  V30 12 2 12 13
M  V30 13 1 13 14
M  V30 14 2 14 15
M  V30 15 1 15 16
M  V30 16 2 16 17
M  V30 17 1 17 18
M  V30 18 2 18 19
M  V30 19 1 19 20
M  V30 20 2 20 21
M  V30 21 1 21 22
M  V30 22 1 21 23
M  V30 23 2 23 24
M  V30 24 1 24 25
M  V30 25 2 25 26
M  V30 26 1 26 27
M  V30 27 1 19 28
M  V30 28 2 28 29
M  V30 29 1 4 30
M  V30 30 1 30 31
M  V30 31 1 31 32
M  V30 32 1 32 33
M  V30 33 1 32 2
M  V30 34 1 10 5
M  V30 35 1 29 12
M  V30 36 1 29 16
M  V30 37 1 26 20
M  V30 38 1 1 34
M  V30 39 1 1 35
M  V30 40 1 2 36 CFG=3
M  V30 41 1 3 37
M  V30 42 1 3 38
M  V30 43 1 6 39
M  V30 44 1 7 40
M  V30 45 1 9 41
M  V30 46 1 11 42
M  V30 47 1 13 43
M  V30 48 1 14 44
M  V30 49 1 15 45
M  V30 50 1 17 46
M  V30 51 1 23 47
M  V30 52 1 24 48
M  V30 53 1 25 49
M  V30 54 1 30 50
M  V30 55 1 30 51
M  V30 56 1 31 52
M  V30 57 1 31 53
M  V30 58 1 32 54 CFG=1
M  V30 END BOND
M  V30 END CTAB
M  END
>  <Dataset>  (57) 
ChEMBL_Kinases

>  <Ligand_Instance>  (57) 
nan

>  <PDB_ID>  (57) 
nan

>  <Standardized_SMILES>  (57) 
N[C@@H]1CN(c2ccncc2Nc2cccc3cnc(-c4c(F)cccc4F)nc23)CC[C@H]1F

>  <Name>  (57) 
nan

>  <Pocket>  (57) 
nan

>  <ATP_Site>  (57) 
nan

>  <Peripheral>  (57) 
nan

>  <Num_H_Atoms_ProtBoundConf>  (57) 
nan

>  <Num_Resolved_Atoms>  (57) 
nan

>  <Num_Not_Resolved_Atoms>  (57) 
nan

$$$$
CHEMBL272535
     RDKit          3D

  0  0  0  0  0  0  0  0  0  0999 V3000
M  V30 BEGIN CTAB
M  V30 COUNTS 42 46 0 0 0
M  V30 BEGIN ATOM
M  V30 1 F 2.388407 -3.669415 2.975794 0
M  V30 2 C 3.527034 -2.988524 2.762301 0
M  V30 3 C 4.717292 -3.515787 3.220813 0
M  V30 4 C 5.943724 -2.917010 3.064364 0
M  V30 5 C 5.935968 -1.710213 2.399005 0
M  V30 6 C 4.746991 -1.152552 1.923887 0
M  V30 7 F 4.859656 0.050761 1.277077 0
M  V30 8 C 3.534106 -1.782093 2.098926 0
M  V30 9 C 2.317536 -1.165716 1.587721 0
M  V30 10 N 2.254088 0.006007 0.933081 0
M  V30 11 C 0.991758 0.312271 0.586281 0
M  V30 12 C 0.589586 1.514034 -0.132980 0
M  V30 13 C 0.003771 1.451284 -1.380946 0
M  V30 14 C -0.385062 2.574383 -2.080625 0
M  V30 15 C -0.156669 3.785741 -1.462597 0
M  V30 16 C 0.422483 3.941323 -0.218428 0
M  V30 17 C 0.792693 2.760489 0.435157 0
M  V30 18 C 0.202712 -0.716329 1.041854 0
M  V30 19 C -1.247009 -0.816828 0.893386 0
M  V30 20 C -2.203445 0.030882 1.413500 0
M  V30 21 C -3.525536 -0.233801 1.160462 0
M  V30 22 C -3.948383 -1.317841 0.403217 0
M  V30 23 N -5.172295 -1.756430 0.037974 0
M  V30 24 C -4.961821 -2.873722 -0.706193 0
M  V30 25 N -3.663125 -3.117864 -0.798991 0
M  V30 26 C -2.967341 -2.168290 -0.117678 0
M  V30 27 C -1.625401 -1.908959 0.133038 0
M  V30 28 N 1.044575 -1.581082 1.637117 0
M  V30 29 H 4.685307 -4.465634 3.740040 0
M  V30 30 H 6.823713 -3.388311 3.448177 0
M  V30 31 H 6.863172 -1.190529 2.244255 0
M  V30 32 H -0.175629 0.480442 -1.866557 0
M  V30 33 H -0.842173 2.499622 -3.058544 0
M  V30 34 H -0.469167 4.677688 -2.025582 0
M  V30 35 H 0.578724 4.925110 0.221799 0
M  V30 36 H 1.255233 2.859722 1.425848 0
M  V30 37 H -1.823510 0.843462 1.984797 0
M  V30 38 H -4.250892 0.453856 1.584584 0
M  V30 39 H -5.713679 -3.516199 -1.182752 0
M  V30 40 H -3.206555 -3.905423 -1.307010 0
M  V30 41 H -0.971612 -2.649220 -0.331536 0
M  V30 42 H 0.695667 -2.451850 2.067676 0
M  V30 END ATOM
M  V30 BEGIN BOND
M  V30 1 1 1 2
M  V30 2 2 2 3
M  V30 3 1 3 4
M  V30 4 2 4 5
M  V30 5 1 5 6
M  V30 6 1 6 7
M  V30 7 2 6 8
M  V30 8 1 8 9
M  V30 9 2 9 10
M  V30 10 1 10 11
M  V30 11 1 11 12
M  V30 12 2 12 13
M  V30 13 1 13 14
M  V30 14 2 14 15
M  V30 15 1 15 16
M  V30 16 2 16 17
M  V30 17 2 11 18
M  V30 18 1 18 19
M  V30 19 2 19 20
M  V30 20 1 20 21
M  V30 21 2 21 22
M  V30 22 1 22 23
M  V30 23 2 23 24
M  V30 24 1 24 25
M  V30 25 1 25 26
M  V30 26 2 26 27
M  V30 27 1 18 28
M  V30 28 1 8 2
M  V30 29 1 28 9
M  V30 30 1 17 12
M  V30 31 1 27 19
M  V30 32 1 26 22
M  V30 33 1 3 29
M  V30 34 1 4 30
M  V30 35 1 5 31
M  V30 36 1 13 32
M  V30 37 1 14 33
M  V30 38 1 15 34
M  V30 39 1 16 35
M  V30 40 1 17 36
M  V30 41 1 20 37
M  V30 42 1 21 38
M  V30 43 1 24 39
M  V30 44 1 25 40
M  V30 45 1 27 41
M  V30 46 1 28 42
M  V30 END BOND
M  V30 END CTAB
M  END
>  <Dataset>  (58) 
ChEMBL_Kinases

>  <Ligand_Instance>  (58) 
nan

>  <PDB_ID>  (58) 
nan

>  <Standardized_SMILES>  (58) 
Fc1cccc(F)c1-c1nc(-c2ccccc2)c(-c2ccc3nc[nH]c3c2)[nH]1

>  <Name>  (58) 
nan

>  <Pocket>  (58) 
nan

>  <ATP_Site>  (58) 
nan

>  <Peripheral>  (58) 
nan

>  <Num_H_Atoms_ProtBoundConf>  (58) 
nan

>  <Num_Resolved_Atoms>  (58) 
nan

>  <Num_Not_Resolved_Atoms>  (58) 
nan

$$$$
CHEMBL3701770
     RDKit          3D

  0  0  0  0  0  0  0  0  0  0999 V3000
M  V30 BEGIN CTAB
M  V30 COUNTS 64 69 0 0 0
M  V30 BEGIN ATOM
M  V30 1 C 8.896523 -0.571949 4.914421 0
M  V30 2 N 7.603880 -0.505461 4.273729 0
M  V30 3 C 7.056326 0.574698 3.530237 0
M  V30 4 O 7.820866 1.567636 3.446063 0
M  V30 5 C 5.723447 0.493845 2.936487 0
M  V30 6 C 4.899317 -0.610313 3.039482 0
M  V30 7 C 3.646425 -0.638707 2.460804 0
M  V30 8 C 3.264014 0.495784 1.774852 0
M  V30 9 C 4.057816 1.621487 1.647949 0
M  V30 10 C 5.322245 1.639907 2.236533 0
M  V30 11 O 3.565605 2.705373 0.932706 0
M  V30 12 C 2.304682 2.760331 0.316034 0
M  V30 13 N 1.526206 1.548040 0.487183 0
M  V30 14 C 1.937554 0.460408 1.165225 0
M  V30 15 N 0.929120 -0.435501 1.087818 0
M  V30 16 C -0.090418 0.088074 0.373650 0
M  V30 17 C -1.251899 -0.787354 0.212686 0
M  V30 18 C -2.495401 -0.455135 0.699635 0
M  V30 19 C -3.535558 -1.343492 0.502868 0
M  V30 20 C -3.396683 -2.568147 -0.166699 0
M  V30 21 C -4.626622 -3.354367 -0.263121 0
M  V30 22 N -5.432144 -3.224908 0.943083 0
M  V30 23 C -5.469032 -3.104202 -1.493446 0
M  V30 24 C -4.961590 -4.388615 -2.075369 0
M  V30 25 C -6.034257 -5.363517 -2.509980 0
M  V30 26 O -3.939223 -4.286309 -3.014659 0
M  V30 27 C -4.444931 -4.780093 -0.725176 0
M  V30 28 C -2.122631 -2.823702 -0.621685 0
M  V30 29 C -1.046239 -1.979520 -0.456982 0
M  V30 30 C 0.290460 1.360486 -0.012655 0
M  V30 31 C -0.649212 2.133724 -0.799289 0
M  V30 32 C -1.026133 3.316807 -0.156479 0
M  V30 33 C -1.923522 4.190257 -0.757906 0
M  V30 34 C -2.425243 3.849850 -2.003276 0
M  V30 35 C -2.066660 2.691739 -2.650567 0
M  V30 36 C -1.171652 1.829557 -2.040948 0
M  V30 37 H 9.463315 -1.396714 4.397726 0
M  V30 38 H 9.468218 0.354445 4.899279 0
M  V30 39 H 8.812094 -0.955145 5.971439 0
M  V30 40 H 7.081104 -1.395107 4.426061 0
M  V30 41 H 5.232802 -1.463507 3.576857 0
M  V30 42 H 3.036732 -1.515427 2.563498 0
M  V30 43 H 5.918322 2.520315 2.125838 0
M  V30 44 H 1.724882 3.660350 0.668837 0
M  V30 45 H 2.425404 2.902700 -0.789757 0
M  V30 46 H -2.632189 0.475843 1.216342 0
M  V30 47 H -4.491047 -1.012654 0.915822 0
M  V30 48 H -6.229196 -2.594561 0.729010 0
M  V30 49 H -5.680978 -4.136737 1.341671 0
M  V30 50 H -6.554810 -3.019663 -1.327487 0
M  V30 51 H -5.086685 -2.261090 -2.140890 0
M  V30 52 H -5.609360 -6.040521 -3.278630 0
M  V30 53 H -6.864790 -4.747823 -2.901096 0
M  V30 54 H -6.391364 -5.984807 -1.668884 0
M  V30 55 H -3.220228 -4.952249 -2.861916 0
M  V30 56 H -5.074322 -5.515417 -0.172578 0
M  V30 57 H -3.410470 -5.149925 -0.731334 0
M  V30 58 H -2.012978 -3.765053 -1.137901 0
M  V30 59 H -0.097315 -2.314001 -0.870610 0
M  V30 60 H -0.671918 3.643573 0.817660 0
M  V30 61 H -2.261767 5.125283 -0.320390 0
M  V30 62 H -3.124109 4.518144 -2.484332 0
M  V30 63 H -2.454122 2.424440 -3.617206 0
M  V30 64 H -0.820196 0.903218 -2.446521 0
M  V30 END ATOM
M  V30 BEGIN BOND
M  V30 1 1 1 2
M  V30 2 1 2 3
M  V30 3 2 3 4
M  V30 4 1 3 5
M  V30 5 2 5 6
M  V30 6 1 6 7
M  V30 7 2 7 8
M  V30 8 1 8 9
M  V30 9 2 9 10
M  V30 10 1 9 11
M  V30 11 1 11 12
M  V30 12 1 12 13
M  V30 13 1 13 14
M  V30 14 2 14 15
M  V30 15 1 15 16
M  V30 16 1 16 17
M  V30 17 2 17 18
M  V30 18 1 18 19
M  V30 19 2 19 20
M  V30 20 1 20 21
M  V30 21 1 21 22
M  V30 22 1 21 23
M  V30 23 1 23 24
M  V30 24 1 24 25
M  V30 25 1 24 26
M  V30 26 1 24 27
M  V30 27 1 20 28
M  V30 28 2 28 29
M  V30 29 2 16 30
M  V30 30 1 30 31
M  V30 31 2 31 32
M  V30 32 1 32 33
M  V30 33 2 33 34
M  V30 34 1 34 35
M  V30 35 2 35 36
M  V30 36 1 10 5
M  V30 37 1 30 13
M  V30 38 1 36 31
M  V30 39 1 14 8
M  V30 40 1 29 17
M  V30 41 1 27 21
M  V30 42 1 1 37
M  V30 43 1 1 38
M  V30 44 1 1 39
M  V30 45 1 2 40
M  V30 46 1 6 41
M  V30 47 1 7 42
M  V30 48 1 10 43
M  V30 49 1 12 44
M  V30 50 1 12 45
M  V30 51 1 18 46
M  V30 52 1 19 47
M  V30 53 1 22 48
M  V30 54 1 22 49
M  V30 55 1 23 50
M  V30 56 1 23 51
M  V30 57 1 25 52
M  V30 58 1 25 53
M  V30 59 1 25 54
M  V30 60 1 26 55
M  V30 61 1 27 56
M  V30 62 1 27 57
M  V30 63 1 28 58
M  V30 64 1 29 59
M  V30 65 1 32 60
M  V30 66 1 33 61
M  V30 67 1 34 62
M  V30 68 1 35 63
M  V30 69 1 36 64
M  V30 END BOND
M  V30 END CTAB
M  END
>  <Dataset>  (59) 
ChEMBL_Kinases

>  <Ligand_Instance>  (59) 
nan

>  <PDB_ID>  (59) 
nan

>  <Standardized_SMILES>  (59) 
CNC(=O)c1ccc2c(c1)OCn1c-2nc(-c2ccc(C3(N)CC(C)(O)C3)cc2)c1-c1ccccc1

>  <Name>  (59) 
nan

>  <Pocket>  (59) 
nan

>  <ATP_Site>  (59) 
nan

>  <Peripheral>  (59) 
nan

>  <Num_H_Atoms_ProtBoundConf>  (59) 
nan

>  <Num_Resolved_Atoms>  (59) 
nan

>  <Num_Not_Resolved_Atoms>  (59) 
nan

$$$$
CHEMBL3685740
     RDKit          3D

  0  0  0  0  0  0  0  0  0  0999 V3000
M  V30 BEGIN CTAB
M  V30 COUNTS 54 58 0 0 0
M  V30 BEGIN ATOM
M  V30 1 N 4.629186 -1.702274 2.588850 0
M  V30 2 C 3.846837 -0.510519 2.323161 0 CFG=2
M  V30 3 C 3.525390 0.257363 3.569267 0
M  V30 4 C 2.189500 0.942877 3.381956 0
M  V30 5 C 2.000419 1.413505 1.955489 0
M  V30 6 N 2.015444 0.272722 1.037916 0
M  V30 7 C 1.579790 0.446660 -0.305927 0
M  V30 8 C 2.320410 0.258114 -1.454548 0
M  V30 9 C 1.722424 0.481057 -2.677586 0
M  V30 10 N 0.443188 0.876172 -2.806596 0
M  V30 11 C -0.276386 1.058275 -1.660294 0
M  V30 12 C 0.261628 0.851785 -0.381568 0
M  V30 13 N -0.706831 1.113691 0.592594 0
M  V30 14 C -1.367739 0.455323 1.625813 0
M  V30 15 C -1.383610 0.763961 2.970119 0
M  V30 16 C -2.092596 0.006189 3.877376 0
M  V30 17 C -2.822743 -1.098267 3.493467 0
M  V30 18 C -2.816257 -1.419039 2.152181 0
M  V30 19 C -3.539416 -2.519830 1.741651 0
M  V30 20 N -3.551335 -2.856213 0.439156 0
M  V30 21 C -2.860643 -2.128589 -0.487004 0
M  V30 22 C -2.911118 -2.541504 -1.885444 0
M  V30 23 C -3.900064 -2.026886 -2.678634 0
M  V30 24 F -4.836749 -1.159244 -2.254400 0
M  V30 25 C -3.969903 -2.402105 -4.007053 0
M  V30 26 C -3.024792 -3.299987 -4.504396 0
M  V30 27 C -2.036362 -3.805221 -3.683532 0
M  V30 28 C -1.943473 -3.441686 -2.335693 0
M  V30 29 F -0.988401 -3.916934 -1.502711 0
M  V30 30 N -2.161642 -1.059219 -0.068766 0
M  V30 31 C -2.104942 -0.664315 1.219957 0
M  V30 32 C 2.508987 -0.932818 1.700471 0
M  V30 33 H 5.640153 -1.457597 2.479557 0
M  V30 34 H 4.408470 -2.367434 1.806959 0
M  V30 35 H 4.389812 0.153764 1.621176 0
M  V30 36 H 4.342652 0.918977 3.856734 0
M  V30 37 H 3.396919 -0.506855 4.382158 0
M  V30 38 H 2.246909 1.885015 3.991063 0
M  V30 39 H 1.373647 0.303239 3.722831 0
M  V30 40 H 1.104371 2.025860 1.885946 0
M  V30 41 H 2.863206 2.089457 1.755117 0
M  V30 42 H 3.342461 -0.059242 -1.299685 0
M  V30 43 H 2.391013 0.304640 -3.527352 0
M  V30 44 H -1.300449 1.379517 -1.909080 0
M  V30 45 H -1.136444 2.085728 0.648278 0
M  V30 46 H -0.815726 1.621362 3.256011 0
M  V30 47 H -2.085493 0.277872 4.942921 0
M  V30 48 H -3.384055 -1.702604 4.192276 0
M  V30 49 H -4.087539 -3.094436 2.489148 0
M  V30 50 H -4.734046 -2.017727 -4.660799 0
M  V30 51 H -3.080174 -3.599265 -5.562675 0
M  V30 52 H -1.284443 -4.513340 -4.060407 0
M  V30 53 H 1.779949 -1.243909 2.459975 0
M  V30 54 H 2.771563 -1.719517 0.963274 0
M  V30 END ATOM
M  V30 BEGIN BOND
M  V30 1 1 1 2
M  V30 2 1 2 3
M  V30 3 1 3 4
M  V30 4 1 4 5
M  V30 5 1 5 6
M  V30 6 1 6 7
M  V30 7 2 7 8
M  V30 8 1 8 9
M  V30 9 2 9 10
M  V30 10 1 10 11
M  V30 11 2 11 12
M  V30 12 1 12 13
M  V30 13 1 13 14
M  V30 14 2 14 15
M  V30 15 1 15 16
M  V30 16 2 16 17
M  V30 17 1 17 18
M  V30 18 2 18 19
M  V30 19 1 19 20
M  V30 20 2 20 21
M  V30 21 1 21 22
M  V30 22 2 22 23
M  V30 23 1 23 24
M  V30 24 1 23 25
M  V30 25 2 25 26
M  V30 26 1 26 27
M  V30 27 2 27 28
M  V30 28 1 28 29
M  V30 29 1 21 30
M  V30 30 2 30 31
M  V30 31 1 6 32
M  V30 32 1 32 2
M  V30 33 1 12 7
M  V30 34 1 31 14
M  V30 35 1 31 18
M  V30 36 1 28 22
M  V30 37 1 1 33
M  V30 38 1 1 34
M  V30 39 1 2 35 CFG=3
M  V30 40 1 3 36
M  V30 41 1 3 37
M  V30 42 1 4 38
M  V30 43 1 4 39
M  V30 44 1 5 40
M  V30 45 1 5 41
M  V30 46 1 8 42
M  V30 47 1 9 43
M  V30 48 1 11 44
M  V30 49 1 13 45
M  V30 50 1 15 46
M  V30 51 1 16 47
M  V30 52 1 17 48
M  V30 53 1 19 49
M  V30 54 1 25 50
M  V30 55 1 26 51
M  V30 56 1 27 52
M  V30 57 1 32 53
M  V30 58 1 32 54
M  V30 END BOND
M  V30 END CTAB
M  END
>  <Dataset>  (60) 
ChEMBL_Kinases

>  <Ligand_Instance>  (60) 
nan

>  <PDB_ID>  (60) 
nan

>  <Standardized_SMILES>  (60) 
N[C@@H]1CCCN(c2ccncc2Nc2cccc3cnc(-c4c(F)cccc4F)nc23)C1

>  <Name>  (60) 
nan

>  <Pocket>  (60) 
nan

>  <ATP_Site>  (60) 
nan

>  <Peripheral>  (60) 
nan

>  <Num_H_Atoms_ProtBoundConf>  (60) 
nan

>  <Num_Resolved_Atoms>  (60) 
nan

>  <Num_Not_Resolved_Atoms>  (60) 
nan

$$$$
CHEMBL3685739
     RDKit          3D

  0  0  0  0  0  0  0  0  0  0999 V3000
M  V30 BEGIN CTAB
M  V30 COUNTS 61 65 0 0 0
M  V30 BEGIN ATOM
M  V30 1 C 3.280645 -1.296110 2.018322 0
M  V30 2 C 4.071461 -0.367056 1.135588 0
M  V30 3 O 3.283866 0.311354 0.202563 0
M  V30 4 C 2.621515 -0.551787 -0.649122 0 CFG=2
M  V30 5 C 3.059373 -0.316661 -2.083760 0
M  V30 6 C 2.133587 0.738357 -2.723400 0 CFG=2
M  V30 7 N 2.845751 1.298749 -3.831043 0
M  V30 8 C 1.775647 1.787487 -1.690640 0
M  V30 9 N 0.925725 1.166127 -0.692655 0
M  V30 10 C 0.067479 2.078608 -0.029389 0
M  V30 11 C 0.307546 3.434068 -0.027655 0
M  V30 12 C -0.453612 4.357626 0.648588 0
M  V30 13 N -1.513187 3.954634 1.368884 0
M  V30 14 C -1.814885 2.633087 1.414788 0
M  V30 15 C -1.027751 1.739490 0.722682 0
M  V30 16 N -1.481866 0.408820 0.858470 0
M  V30 17 C -1.977818 -0.411496 -0.209678 0
M  V30 18 C -2.091169 0.025452 -1.506157 0
M  V30 19 C -2.576607 -0.799762 -2.510615 0
M  V30 20 C -2.948410 -2.091267 -2.169304 0
M  V30 21 C -2.847582 -2.566969 -0.869323 0
M  V30 22 C -3.222298 -3.866113 -0.527231 0
M  V30 23 N -3.085058 -4.236093 0.776125 0
M  V30 24 C -2.607972 -3.391076 1.706903 0
M  V30 25 C -2.539556 -3.980735 3.039974 0
M  V30 26 C -1.348928 -4.616456 3.337721 0
M  V30 27 F -0.312477 -4.687702 2.449894 0
M  V30 28 C -1.190417 -5.202319 4.569437 0
M  V30 29 C -2.150086 -5.207849 5.560552 0
M  V30 30 C -3.335865 -4.559622 5.228546 0
M  V30 31 C -3.531535 -3.957469 3.995944 0
M  V30 32 F -4.680458 -3.325211 3.661429 0
M  V30 33 N -2.244694 -2.131054 1.374058 0
M  V30 34 C -2.358192 -1.701433 0.087673 0
M  V30 35 C 1.123402 -0.242952 -0.525974 0
M  V30 36 H 3.025821 -2.252794 1.531357 0
M  V30 37 H 3.931653 -1.525544 2.902586 0
M  V30 38 H 2.392488 -0.777428 2.405302 0
M  V30 39 H 4.522275 0.415216 1.795281 0
M  V30 40 H 4.910364 -0.924144 0.658446 0
M  V30 41 H 2.859576 -1.594402 -0.404078 0
M  V30 42 H 4.073946 0.086189 -2.180886 0
M  V30 43 H 2.897388 -1.244439 -2.668091 0
M  V30 44 H 1.222146 0.216849 -3.064723 0
M  V30 45 H 3.458498 0.648981 -4.331521 0
M  V30 46 H 3.147534 2.271133 -3.739123 0
M  V30 47 H 2.675035 2.210952 -1.213222 0
M  V30 48 H 1.263888 2.612597 -2.228268 0
M  V30 49 H 1.152091 3.854604 -0.589001 0
M  V30 50 H -0.218830 5.414388 0.615968 0
M  V30 51 H -2.673690 2.382240 2.008428 0
M  V30 52 H -1.431213 0.043278 1.831751 0
M  V30 53 H -1.784461 1.049461 -1.720648 0
M  V30 54 H -2.663513 -0.442902 -3.540570 0
M  V30 55 H -3.335120 -2.754575 -2.958129 0
M  V30 56 H -3.606123 -4.537649 -1.290961 0
M  V30 57 H -0.258707 -5.721024 4.852072 0
M  V30 58 H -2.039360 -5.663353 6.530913 0
M  V30 59 H -4.135632 -4.528752 5.968941 0
M  V30 60 H 0.778287 -0.543902 0.495760 0
M  V30 61 H 0.652273 -0.782265 -1.344352 0
M  V30 END ATOM
M  V30 BEGIN BOND
M  V30 1 1 1 2
M  V30 2 1 2 3
M  V30 3 1 3 4
M  V30 4 1 4 5
M  V30 5 1 5 6
M  V30 6 1 6 7
M  V30 7 1 6 8
M  V30 8 1 8 9
M  V30 9 1 9 10
M  V30 10 2 10 11
M  V30 11 1 11 12
M  V30 12 2 12 13
M  V30 13 1 13 14
M  V30 14 2 14 15
M  V30 15 1 15 16
M  V30 16 1 16 17
M  V30 17 2 17 18
M  V30 18 1 18 19
M  V30 19 2 19 20
M  V30 20 1 20 21
M  V30 21 2 21 22
M  V30 22 1 22 23
M  V30 23 2 23 24
M  V30 24 1 24 25
M  V30 25 2 25 26
M  V30 26 1 26 27
M  V30 27 1 26 28
M  V30 28 2 28 29
M  V30 29 1 29 30
M  V30 30 2 30 31
M  V30 31 1 31 32
M  V30 32 1 24 33
M  V30 33 2 33 34
M  V30 34 1 9 35
M  V30 35 1 35 4
M  V30 36 1 15 10
M  V30 37 1 34 17
M  V30 38 1 34 21
M  V30 39 1 31 25
M  V30 40 1 1 36
M  V30 41 1 1 37
M  V30 42 1 1 38
M  V30 43 1 2 39
M  V30 44 1 2 40
M  V30 45 1 4 41 CFG=1
M  V30 46 1 5 42
M  V30 47 1 5 43
M  V30 48 1 6 44 CFG=3
M  V30 49 1 7 45
M  V30 50 1 7 46
M  V30 51 1 8 47
M  V30 52 1 8 48
M  V30 53 1 11 49
M  V30 54 1 12 50
M  V30 55 1 14 51
M  V30 56 1 16 52
M  V30 57 1 18 53
M  V30 58 1 19 54
M  V30 59 1 20 55
M  V30 60 1 22 56
M  V30 61 1 28 57
M  V30 62 1 29 58
M  V30 63 1 30 59
M  V30 64 1 35 60
M  V30 65 1 35 61
M  V30 END BOND
M  V30 END CTAB
M  END
>  <Dataset>  (61) 
ChEMBL_Kinases

>  <Ligand_Instance>  (61) 
nan

>  <PDB_ID>  (61) 
nan

>  <Standardized_SMILES>  (61) 
CCO[C@@H]1C[C@H](N)CN(c2ccncc2Nc2cccc3cnc(-c4c(F)cccc4F)nc23)C1

>  <Name>  (61) 
nan

>  <Pocket>  (61) 
nan

>  <ATP_Site>  (61) 
nan

>  <Peripheral>  (61) 
nan

>  <Num_H_Atoms_ProtBoundConf>  (61) 
nan

>  <Num_Resolved_Atoms>  (61) 
nan

>  <Num_Not_Resolved_Atoms>  (61) 
nan

$$$$
CHEMBL3685738
     RDKit          3D

  0  0  0  0  0  0  0  0  0  0999 V3000
M  V30 BEGIN CTAB
M  V30 COUNTS 59 63 0 0 0
M  V30 BEGIN ATOM
M  V30 1 N 4.204817 -1.753511 2.548050 0
M  V30 2 C 2.880370 -1.532748 3.047934 0 CFG=1
M  V30 3 C 2.810871 -0.323042 3.985780 0
M  V30 4 C 1.410200 0.256797 3.879663 0 CFG=1
M  V30 5 C 1.209703 1.301328 4.965830 0
M  V30 6 O 1.370029 0.716874 6.212113 0
M  V30 7 C 1.346475 0.911854 2.507313 0
M  V30 8 N 1.611653 -0.080497 1.501685 0
M  V30 9 C 1.547845 0.359378 0.151601 0
M  V30 10 C 2.572833 0.378976 -0.769311 0
M  V30 11 C 2.344212 0.849255 -2.055465 0
M  V30 12 N 1.122609 1.292319 -2.423940 0
M  V30 13 C 0.107931 1.272301 -1.510927 0
M  V30 14 C 0.293178 0.807035 -0.204374 0
M  V30 15 N -0.911263 0.893897 0.517860 0
M  V30 16 C -1.727612 -0.068939 1.168950 0
M  V30 17 C -2.093012 -0.157036 2.474444 0
M  V30 18 C -2.901855 -1.175163 2.937423 0
M  V30 19 C -3.380829 -2.156806 2.093916 0
M  V30 20 C -3.016241 -2.079230 0.760362 0
M  V30 21 C -3.519029 -3.081732 -0.040480 0
M  V30 22 C -3.200014 -3.074530 -1.383236 0
M  V30 23 C -2.390562 -2.049872 -1.828609 0
M  V30 24 C -1.977137 -1.926936 -3.229918 0
M  V30 25 C -0.783299 -2.595245 -3.527545 0
M  V30 26 F -0.074397 -3.292454 -2.604835 0
M  V30 27 C -0.243309 -2.588254 -4.793529 0
M  V30 28 C -0.893424 -1.906983 -5.792124 0
M  V30 29 C -2.074242 -1.241807 -5.512621 0
M  V30 30 C -2.624840 -1.241815 -4.248128 0
M  V30 31 F -3.758187 -0.632469 -3.873472 0
M  V30 32 N -1.909601 -1.079653 -1.029507 0
M  V30 33 C -2.196462 -1.048665 0.287787 0
M  V30 34 C 1.920190 -1.440148 1.906418 0
M  V30 35 H 4.902958 -1.103216 3.015512 0
M  V30 36 H 4.232679 -1.490971 1.539591 0
M  V30 37 H 2.542905 -2.398373 3.675452 0
M  V30 38 H 3.069004 -0.606944 5.018270 0
M  V30 39 H 3.506060 0.439062 3.544767 0
M  V30 40 H 0.615969 -0.512898 3.904352 0
M  V30 41 H 0.116441 1.568622 4.898970 0
M  V30 42 H 1.874931 2.156393 4.805174 0
M  V30 43 H 1.309558 -0.256647 6.141947 0
M  V30 44 H 0.423804 1.477534 2.389599 0
M  V30 45 H 2.173824 1.669817 2.464505 0
M  V30 46 H 3.510472 0.004493 -0.378567 0
M  V30 47 H 3.217858 0.824393 -2.707866 0
M  V30 48 H -0.802382 1.656075 -1.953458 0
M  V30 49 H -1.417240 1.815436 0.681123 0
M  V30 50 H -1.698483 0.629925 3.101394 0
M  V30 51 H -3.163480 -1.196614 3.992487 0
M  V30 52 H -4.011320 -2.943511 2.474802 0
M  V30 53 H -4.142000 -3.862503 0.325640 0
M  V30 54 H -3.514538 -3.780948 -2.117428 0
M  V30 55 H 0.674156 -3.089645 -5.068368 0
M  V30 56 H -0.487304 -1.883485 -6.810642 0
M  V30 57 H -2.605395 -0.698896 -6.276231 0
M  V30 58 H 0.932029 -1.907087 2.160866 0
M  V30 59 H 2.330763 -2.037429 1.068551 0
M  V30 END ATOM
M  V30 BEGIN BOND
M  V30 1 1 1 2
M  V30 2 1 2 3
M  V30 3 1 3 4
M  V30 4 1 4 5
M  V30 5 1 5 6
M  V30 6 1 4 7
M  V30 7 1 7 8
M  V30 8 1 8 9
M  V30 9 2 9 10
M  V30 10 1 10 11
M  V30 11 2 11 12
M  V30 12 1 12 13
M  V30 13 2 13 14
M  V30 14 1 14 15
M  V30 15 1 15 16
M  V30 16 2 16 17
M  V30 17 1 17 18
M  V30 18 2 18 19
M  V30 19 1 19 20
M  V30 20 2 20 21
M  V30 21 1 21 22
M  V30 22 2 22 23
M  V30 23 1 23 24
M  V30 24 2 24 25
M  V30 25 1 25 26
M  V30 26 1 25 27
M  V30 27 2 27 28
M  V30 28 1 28 29
M  V30 29 2 29 30
M  V30 30 1 30 31
M  V30 31 1 23 32
M  V30 32 2 32 33
M  V30 33 1 8 34
M  V30 34 1 34 2
M  V30 35 1 14 9
M  V30 36 1 33 16
M  V30 37 1 33 20
M  V30 38 1 30 24
M  V30 39 1 1 35
M  V30 40 1 1 36
M  V30 41 1 2 37 CFG=1
M  V30 42 1 3 38
M  V30 43 1 3 39
M  V30 44 1 4 40 CFG=3
M  V30 45 1 5 41
M  V30 46 1 5 42
M  V30 47 1 6 43
M  V30 48 1 7 44
M  V30 49 1 7 45
M  V30 50 1 10 46
M  V30 51 1 11 47
M  V30 52 1 13 48
M  V30 53 1 15 49
M  V30 54 1 17 50
M  V30 55 1 18 51
M  V30 56 1 19 52
M  V30 57 1 21 53
M  V30 58 1 22 54
M  V30 59 1 27 55
M  V30 60 1 28 56
M  V30 61 1 29 57
M  V30 62 1 34 58
M  V30 63 1 34 59
M  V30 END BOND
M  V30 END CTAB
M  END
>  <Dataset>  (62) 
ChEMBL_Kinases

>  <Ligand_Instance>  (62) 
nan

>  <PDB_ID>  (62) 
nan

>  <Standardized_SMILES>  (62) 
N[C@H]1C[C@@H](CO)CN(c2ccncc2Nc2cccc3ccc(-c4c(F)cccc4F)nc23)C1

>  <Name>  (62) 
nan

>  <Pocket>  (62) 
nan

>  <ATP_Site>  (62) 
nan

>  <Peripheral>  (62) 
nan

>  <Num_H_Atoms_ProtBoundConf>  (62) 
nan

>  <Num_Resolved_Atoms>  (62) 
nan

>  <Num_Not_Resolved_Atoms>  (62) 
nan

$$$$
CHEMBL3701772
     RDKit          3D

  0  0  0  0  0  0  0  0  0  0999 V3000
M  V30 BEGIN CTAB
M  V30 COUNTS 68 73 0 0 0
M  V30 BEGIN ATOM
M  V30 1 C 5.149707 2.364409 6.222021 0
M  V30 2 C 3.959662 1.481089 6.496144 0
M  V30 3 O 3.865502 1.159145 7.836545 0
M  V30 4 C 3.823323 0.280417 5.550108 0
M  V30 5 C 2.368569 0.635831 5.396526 0
M  V30 6 N 1.614751 -0.064083 6.444010 0
M  V30 7 C 1.792160 0.493737 4.048500 0
M  V30 8 C 0.445054 0.846457 3.982134 0
M  V30 9 C -0.247847 0.766397 2.773265 0
M  V30 10 C 0.456665 0.324254 1.650320 0
M  V30 11 C -0.295254 0.252771 0.406229 0
M  V30 12 N -0.398698 -1.018200 -0.086753 0
M  V30 13 C -1.104180 -0.996193 -1.229787 0
M  V30 14 N -1.444544 0.294201 -1.454528 0
M  V30 15 C -0.957282 1.065496 -0.464222 0
M  V30 16 C -0.979754 2.488669 -0.136881 0
M  V30 17 C -2.212521 3.075368 0.072320 0
M  V30 18 C -2.297107 4.406648 0.382571 0
M  V30 19 C -1.163744 5.201291 0.496012 0
M  V30 20 C 0.063289 4.590857 0.281715 0
M  V30 21 C 0.187341 3.249790 -0.033172 0
M  V30 22 C -2.211172 0.799627 -2.573865 0
M  V30 23 O -2.604187 -0.197754 -3.467328 0
M  V30 24 C -2.302713 -1.546314 -3.320253 0
M  V30 25 C -2.748586 -2.465376 -4.279723 0
M  V30 26 C -2.407671 -3.784046 -4.060639 0
M  V30 27 C -2.872770 -4.739473 -5.060482 0
M  V30 28 O -3.539944 -4.315195 -6.043678 0
M  V30 29 N -2.640937 -6.141835 -5.034162 0
M  V30 30 C -3.101010 -7.068150 -6.018703 0
M  V30 31 C -2.686694 -8.486432 -5.696183 0
M  V30 32 O -3.192305 -9.300121 -6.727478 0
M  V30 33 C -1.671845 -4.198262 -2.968843 0
M  V30 34 C -1.236242 -3.286926 -2.028105 0
M  V30 35 C -1.566897 -1.960962 -2.228599 0
M  V30 36 C 1.791449 -0.024365 1.719927 0
M  V30 37 C 2.476118 0.055443 2.917756 0
M  V30 38 C 2.690173 2.017438 5.868181 0
M  V30 39 H 4.955511 3.335326 6.723452 0
M  V30 40 H 5.237132 2.544406 5.118965 0
M  V30 41 H 6.061893 1.896651 6.628125 0
M  V30 42 H 4.008319 0.177391 8.018417 0
M  V30 43 H 4.028016 -0.642488 6.139363 0
M  V30 44 H 4.486327 0.468106 4.693795 0
M  V30 45 H 0.731511 0.418270 6.698039 0
M  V30 46 H 1.491932 -1.074313 6.214075 0
M  V30 47 H -0.134014 1.192972 4.829690 0
M  V30 48 H -1.281201 1.037696 2.725130 0
M  V30 49 H -3.162128 2.527216 0.004269 0
M  V30 50 H -3.215808 4.938360 0.560209 0
M  V30 51 H -1.127611 6.254099 0.735095 0
M  V30 52 H 1.041410 5.089436 0.336768 0
M  V30 53 H 1.132719 2.752487 -0.204510 0
M  V30 54 H -3.072500 1.440921 -2.248773 0
M  V30 55 H -1.532885 1.489639 -3.140714 0
M  V30 56 H -3.316053 -2.113499 -5.113226 0
M  V30 57 H -2.089753 -6.514853 -4.227193 0
M  V30 58 H -4.195193 -6.986208 -6.131960 0
M  V30 59 H -2.663001 -6.786328 -6.997378 0
M  V30 60 H -3.043426 -8.814547 -4.709725 0
M  V30 61 H -1.582619 -8.566807 -5.751645 0
M  V30 62 H -3.081031 -10.259711 -6.540048 0
M  V30 63 H -1.410951 -5.222034 -2.804766 0
M  V30 64 H -0.658938 -3.569583 -1.160880 0
M  V30 65 H 2.316826 -0.368715 0.816223 0
M  V30 66 H 3.499241 -0.197039 3.036931 0
M  V30 67 H 2.028025 2.436755 6.648797 0
M  V30 68 H 2.931164 2.679873 5.007342 0
M  V30 END ATOM
M  V30 BEGIN BOND
M  V30 1 1 1 2
M  V30 2 1 2 3
M  V30 3 1 2 4
M  V30 4 1 4 5
M  V30 5 1 5 6
M  V30 6 1 5 7
M  V30 7 2 7 8
M  V30 8 1 8 9
M  V30 9 2 9 10
M  V30 10 1 10 11
M  V30 11 1 11 12
M  V30 12 2 12 13
M  V30 13 1 13 14
M  V30 14 1 14 15
M  V30 15 1 15 16
M  V30 16 2 16 17
M  V30 17 1 17 18
M  V30 18 2 18 19
M  V30 19 1 19 20
M  V30 20 2 20 21
M  V30 21 1 14 22
M  V30 22 1 22 23
M  V30 23 1 23 24
M  V30 24 2 24 25
M  V30 25 1 25 26
M  V30 26 1 26 27
M  V30 27 2 27 28
M  V30 28 1 27 29
M  V30 29 1 29 30
M  V30 30 1 30 31
M  V30 31 1 31 32
M  V30 32 2 26 33
M  V30 33 1 33 34
M  V30 34 2 34 35
M  V30 35 1 10 36
M  V30 36 2 36 37
M  V30 37 1 5 38
M  V30 38 1 38 2
M  V30 39 1 37 7
M  V30 40 2 15 11
M  V30 41 1 21 16
M  V30 42 1 35 24
M  V30 43 1 35 13
M  V30 44 1 1 39
M  V30 45 1 1 40
M  V30 46 1 1 41
M  V30 47 1 3 42
M  V30 48 1 4 43
M  V30 49 1 4 44
M  V30 50 1 6 45
M  V30 51 1 6 46
M  V30 52 1 8 47
M  V30 53 1 9 48
M  V30 54 1 17 49
M  V30 55 1 18 50
M  V30 56 1 19 51
M  V30 57 1 20 52
M  V30 58 1 21 53
M  V30 59 1 22 54
M  V30 60 1 22 55
M  V30 61 1 25 56
M  V30 62 1 29 57
M  V30 63 1 30 58
M  V30 64 1 30 59
M  V30 65 1 31 60
M  V30 66 1 31 61
M  V30 67 1 32 62
M  V30 68 1 33 63
M  V30 69 1 34 64
M  V30 70 1 36 65
M  V30 71 1 37 66
M  V30 72 1 38 67
M  V30 73 1 38 68
M  V30 END BOND
M  V30 END CTAB
M  END
>  <Dataset>  (63) 
ChEMBL_Kinases

>  <Ligand_Instance>  (63) 
nan

>  <PDB_ID>  (63) 
nan

>  <Standardized_SMILES>  (63) 
CC1(O)CC(N)(c2ccc(-c3nc4n(c3-c3ccccc3)COc3cc(C(=O)NCCO)ccc3-4)cc2)C1

>  <Name>  (63) 
nan

>  <Pocket>  (63) 
nan

>  <ATP_Site>  (63) 
nan

>  <Peripheral>  (63) 
nan

>  <Num_H_Atoms_ProtBoundConf>  (63) 
nan

>  <Num_Resolved_Atoms>  (63) 
nan

>  <Num_Not_Resolved_Atoms>  (63) 
nan

$$$$
CHEMBL3685737
     RDKit          3D

  0  0  0  0  0  0  0  0  0  0999 V3000
M  V30 BEGIN CTAB
M  V30 COUNTS 56 60 0 0 0
M  V30 BEGIN ATOM
M  V30 1 N 4.232015 -0.510407 0.741563 0
M  V30 2 C 3.084887 0.200357 1.270030 0 CFG=1
M  V30 3 C 3.499827 1.337193 2.183975 0
M  V30 4 C 2.262979 1.709835 2.966859 0 CFG=1
M  V30 5 O 2.609323 2.876134 3.679359 0
M  V30 6 C 1.079787 2.018434 2.127455 0
M  V30 7 N 1.094612 1.449569 0.818277 0
M  V30 8 C -0.073399 1.508322 0.007652 0
M  V30 9 C -0.180809 2.165432 -1.203742 0
M  V30 10 C -1.344817 2.185940 -1.934302 0
M  V30 11 N -2.415652 1.529569 -1.427370 0
M  V30 12 C -2.330792 0.875035 -0.234185 0
M  V30 13 C -1.147841 0.852441 0.511178 0
M  V30 14 N -1.312890 0.112645 1.694354 0
M  V30 15 C -0.672142 -1.051344 2.202624 0
M  V30 16 C 0.040578 -1.211965 3.372869 0
M  V30 17 C 0.592828 -2.436002 3.688587 0
M  V30 18 C 0.474475 -3.553930 2.879171 0
M  V30 19 C -0.241496 -3.370275 1.715636 0
M  V30 20 C -0.342862 -4.517908 0.921010 0
M  V30 21 C -1.041304 -4.438153 -0.266476 0
M  V30 22 C -1.596937 -3.217178 -0.589971 0
M  V30 23 C -2.378105 -2.933666 -1.812611 0
M  V30 24 C -1.823335 -2.491640 -2.995930 0
M  V30 25 F -0.477223 -2.303967 -3.044293 0
M  V30 26 C -2.675095 -2.260898 -4.080651 0
M  V30 27 C -4.047165 -2.483883 -3.930498 0
M  V30 28 C -4.593106 -2.925488 -2.744880 0
M  V30 29 C -3.735099 -3.146370 -1.689274 0
M  V30 30 F -4.328566 -3.580259 -0.548249 0
M  V30 31 N -1.489497 -2.122370 0.186919 0
M  V30 32 C -0.819556 -2.152681 1.350868 0
M  V30 33 C 2.223691 0.785908 0.193730 0
M  V30 34 H 4.776466 -0.903749 1.541266 0
M  V30 35 H 3.855211 -1.338269 0.221710 0
M  V30 36 H 2.496195 -0.503308 1.915024 0
M  V30 37 H 3.895679 2.157284 1.579037 0
M  V30 38 H 4.240910 0.930822 2.908726 0
M  V30 39 H 2.129941 0.930245 3.733103 0
M  V30 40 H 2.731189 3.576641 2.966994 0
M  V30 41 H 0.172629 1.682328 2.669408 0
M  V30 42 H 0.947664 3.134813 2.006162 0
M  V30 43 H 0.708499 2.667269 -1.549129 0
M  V30 44 H -1.382570 2.718858 -2.887285 0
M  V30 45 H -3.277742 0.411000 0.010775 0
M  V30 46 H -2.052713 0.453130 2.376396 0
M  V30 47 H 0.105155 -0.331643 3.962233 0
M  V30 48 H 1.134824 -2.461364 4.630821 0
M  V30 49 H 0.917338 -4.477267 3.163680 0
M  V30 50 H 0.098652 -5.449670 1.198806 0
M  V30 51 H -1.189260 -5.234422 -0.954678 0
M  V30 52 H -2.210788 -1.914188 -4.996943 0
M  V30 53 H -4.657993 -2.282063 -4.823960 0
M  V30 54 H -5.664042 -3.087287 -2.666065 0
M  V30 55 H 1.907532 0.041344 -0.563531 0
M  V30 56 H 2.813418 1.575201 -0.329388 0
M  V30 END ATOM
M  V30 BEGIN BOND
M  V30 1 1 1 2
M  V30 2 1 2 3
M  V30 3 1 3 4
M  V30 4 1 4 5
M  V30 5 1 4 6
M  V30 6 1 6 7
M  V30 7 1 7 8
M  V30 8 2 8 9
M  V30 9 1 9 10
M  V30 10 2 10 11
M  V30 11 1 11 12
M  V30 12 2 12 13
M  V30 13 1 13 14
M  V30 14 1 14 15
M  V30 15 2 15 16
M  V30 16 1 16 17
M  V30 17 2 17 18
M  V30 18 1 18 19
M  V30 19 2 19 20
M  V30 20 1 20 21
M  V30 21 2 21 22
M  V30 22 1 22 23
M  V30 23 2 23 24
M  V30 24 1 24 25
M  V30 25 1 24 26
M  V30 26 2 26 27
M  V30 27 1 27 28
M  V30 28 2 28 29
M  V30 29 1 29 30
M  V30 30 1 22 31
M  V30 31 2 31 32
M  V30 32 1 7 33
M  V30 33 1 33 2
M  V30 34 1 13 8
M  V30 35 1 32 15
M  V30 36 1 32 19
M  V30 37 1 29 23
M  V30 38 1 1 34
M  V30 39 1 1 35
M  V30 40 1 2 36 CFG=1
M  V30 41 1 3 37
M  V30 42 1 3 38
M  V30 43 1 4 39 CFG=1
M  V30 44 1 5 40
M  V30 45 1 6 41
M  V30 46 1 6 42
M  V30 47 1 9 43
M  V30 48 1 10 44
M  V30 49 1 12 45
M  V30 50 1 14 46
M  V30 51 1 16 47
M  V30 52 1 17 48
M  V30 53 1 18 49
M  V30 54 1 20 50
M  V30 55 1 21 51
M  V30 56 1 26 52
M  V30 57 1 27 53
M  V30 58 1 28 54
M  V30 59 1 33 55
M  V30 60 1 33 56
M  V30 END BOND
M  V30 END CTAB
M  END
>  <Dataset>  (64) 
ChEMBL_Kinases

>  <Ligand_Instance>  (64) 
nan

>  <PDB_ID>  (64) 
nan

>  <Standardized_SMILES>  (64) 
N[C@H]1C[C@@H](O)CN(c2ccncc2Nc2cccc3ccc(-c4c(F)cccc4F)nc23)C1

>  <Name>  (64) 
nan

>  <Pocket>  (64) 
nan

>  <ATP_Site>  (64) 
nan

>  <Peripheral>  (64) 
nan

>  <Num_H_Atoms_ProtBoundConf>  (64) 
nan

>  <Num_Resolved_Atoms>  (64) 
nan

>  <Num_Not_Resolved_Atoms>  (64) 
nan

$$$$
CHEMBL4294551
     RDKit          3D

  0  0  0  0  0  0  0  0  0  0999 V3000
M  V30 BEGIN CTAB
M  V30 COUNTS 40 43 0 0 0
M  V30 BEGIN ATOM
M  V30 1 C 4.183329 -5.168334 2.391401 0
M  V30 2 S 4.220409 -4.450580 0.733851 0
M  V30 3 C 3.018210 -3.140011 0.643067 0
M  V30 4 N 2.225516 -2.785629 1.700719 0
M  V30 5 C 1.317852 -1.795914 1.622818 0
M  V30 6 C 1.254193 -1.177902 0.394359 0
M  V30 7 C 2.048607 -1.519307 -0.675134 0
M  V30 8 N 2.966338 -2.528626 -0.578583 0
M  V30 9 N 2.151670 -0.858152 -1.959347 0
M  V30 10 C 1.962600 0.583901 -2.018218 0
M  V30 11 N 2.682495 1.377284 -2.872199 0
M  V30 12 N 2.283802 2.642305 -2.650053 0
M  V30 13 C 1.324653 2.685735 -1.675107 0
M  V30 14 C 0.633145 3.870401 -1.140369 0
M  V30 15 C 1.101589 1.398240 -1.259321 0
M  V30 16 N 0.171265 0.902801 -0.309571 0
M  V30 17 C 0.194665 -0.186722 0.409824 0
M  V30 18 C -0.985595 -0.340084 1.225413 0
M  V30 19 C -1.829706 0.766676 1.322580 0
M  V30 20 C -3.046840 0.815718 1.965049 0
M  V30 21 C -3.516673 -0.317705 2.587052 0
M  V30 22 C -4.817041 -0.333737 3.297478 0
M  V30 23 C -2.755632 -1.457489 2.543580 0
M  V30 24 C -1.560247 -1.399485 1.876751 0
M  V30 25 H 3.918114 -4.416703 3.175404 0
M  V30 26 H 3.429686 -6.004830 2.467519 0
M  V30 27 H 5.146844 -5.636991 2.690469 0
M  V30 28 H 0.723945 -1.446243 2.428310 0
M  V30 29 H 2.378997 -1.408399 -2.800439 0
M  V30 30 H 2.693296 3.432957 -3.185763 0
M  V30 31 H 0.961566 4.009068 -0.078989 0
M  V30 32 H -0.455321 3.668282 -1.122558 0
M  V30 33 H 0.863007 4.780783 -1.717067 0
M  V30 34 H -1.584774 1.732017 0.877438 0
M  V30 35 H -3.673521 1.678328 2.024481 0
M  V30 36 H -4.601432 -0.750367 4.324639 0
M  V30 37 H -5.535807 -1.050949 2.849963 0
M  V30 38 H -5.185723 0.690475 3.377446 0
M  V30 39 H -3.073280 -2.375288 3.012979 0
M  V30 40 H -1.030722 -2.333965 1.805957 0
M  V30 END ATOM
M  V30 BEGIN BOND
M  V30 1 1 1 2
M  V30 2 1 2 3
M  V30 3 2 3 4
M  V30 4 1 4 5
M  V30 5 2 5 6
M  V30 6 1 6 7
M  V30 7 2 7 8
M  V30 8 1 7 9
M  V30 9 1 9 10
M  V30 10 2 10 11
M  V30 11 1 11 12
M  V30 12 1 12 13
M  V30 13 1 13 14
M  V30 14 2 13 15
M  V30 15 1 15 16
M  V30 16 2 16 17
M  V30 17 1 17 18
M  V30 18 2 18 19
M  V30 19 1 19 20
M  V30 20 2 20 21
M  V30 21 1 21 22
M  V30 22 1 21 23
M  V30 23 2 23 24
M  V30 24 1 8 3
M  V30 25 1 15 10
M  V30 26 1 24 18
M  V30 27 1 17 6
M  V30 28 1 1 25
M  V30 29 1 1 26
M  V30 30 1 1 27
M  V30 31 1 5 28
M  V30 32 1 9 29
M  V30 33 1 12 30
M  V30 34 1 14 31
M  V30 35 1 14 32
M  V30 36 1 14 33
M  V30 37 1 19 34
M  V30 38 1 20 35
M  V30 39 1 22 36
M  V30 40 1 22 37
M  V30 41 1 22 38
M  V30 42 1 23 39
M  V30 43 1 24 40
M  V30 END BOND
M  V30 END CTAB
M  END
>  <Dataset>  (65) 
ChEMBL_Kinases

>  <Ligand_Instance>  (65) 
nan

>  <PDB_ID>  (65) 
nan

>  <Standardized_SMILES>  (65) 
CSc1ncc2c(n1)Nc1n[nH]c(C)c1N=C2c1ccc(C)cc1

>  <Name>  (65) 
nan

>  <Pocket>  (65) 
nan

>  <ATP_Site>  (65) 
nan

>  <Peripheral>  (65) 
nan

>  <Num_H_Atoms_ProtBoundConf>  (65) 
nan

>  <Num_Resolved_Atoms>  (65) 
nan

>  <Num_Not_Resolved_Atoms>  (65) 
nan

$$$$
CHEMBL3685736
     RDKit          3D

  0  0  0  0  0  0  0  0  0  0999 V3000
M  V30 BEGIN CTAB
M  V30 COUNTS 55 59 0 0 0
M  V30 BEGIN ATOM
M  V30 1 N 0.484195 -2.896059 -2.169364 0
M  V30 2 C 1.905459 -2.713065 -2.338527 0 CFG=2
M  V30 3 C 2.624242 -2.676103 -1.005350 0
M  V30 4 N 2.472205 -1.393428 -0.325812 0
M  V30 5 C 1.933241 -1.341669 0.981290 0
M  V30 6 C 2.107117 -2.447753 1.771718 0
M  V30 7 C 1.656585 -2.466709 3.074822 0
M  V30 8 N 1.027605 -1.370553 3.591504 0
M  V30 9 C 0.838777 -0.267835 2.847009 0
M  V30 10 C 1.292971 -0.267370 1.550927 0
M  V30 11 N 1.048378 0.875390 0.785909 0
M  V30 12 C 0.317276 1.957567 1.345478 0
M  V30 13 C 0.727198 3.261000 1.604702 0
M  V30 14 C -0.112730 4.214674 2.137589 0
M  V30 15 C -1.418458 3.885290 2.433720 0
M  V30 16 C -1.832868 2.593845 2.178654 0
M  V30 17 C -3.168782 2.368909 2.504556 0
M  V30 18 N -3.645918 1.123570 2.271638 0
M  V30 19 C -2.860781 0.152864 1.749401 0
M  V30 20 C -3.401747 -1.180220 1.508615 0
M  V30 21 C -4.004647 -1.593948 0.331592 0
M  V30 22 F -4.079139 -0.648919 -0.658439 0
M  V30 23 C -4.489551 -2.852553 0.170092 0
M  V30 24 C -4.358142 -3.716296 1.235610 0
M  V30 25 C -3.769120 -3.400025 2.460095 0
M  V30 26 C -3.292986 -2.089248 2.555120 0
M  V30 27 F -2.709836 -1.760738 3.754330 0
M  V30 28 N -1.575605 0.393179 1.443342 0
M  V30 29 C -1.002663 1.617626 1.642130 0
M  V30 30 C 2.995078 -0.400325 -1.243652 0
M  V30 31 C 2.005414 -0.274353 -2.379621 0
M  V30 32 C 2.220489 -1.536655 -3.228186 0 CFG=1
M  V30 33 O 3.547987 -1.644936 -3.622273 0
M  V30 34 H 0.132207 -2.775534 -1.215017 0
M  V30 35 H -0.026386 -2.413729 -2.920398 0
M  V30 36 H 2.269204 -3.620268 -2.869594 0
M  V30 37 H 3.697389 -2.909276 -1.158934 0
M  V30 38 H 2.181013 -3.450318 -0.382106 0
M  V30 39 H 2.577666 -3.391927 1.550780 0
M  V30 40 H 1.751741 -3.308040 3.781102 0
M  V30 41 H 0.340873 0.523159 3.384578 0
M  V30 42 H 1.173910 1.338239 -0.129271 0
M  V30 43 H 1.770081 3.400636 1.331652 0
M  V30 44 H 0.337812 5.205740 2.293208 0
M  V30 45 H -2.056074 4.650508 2.850627 0
M  V30 46 H -3.813699 3.128973 2.922362 0
M  V30 47 H -4.954756 -3.165323 -0.743416 0
M  V30 48 H -4.725418 -4.737027 1.170659 0
M  V30 49 H -3.691397 -4.106702 3.256411 0
M  V30 50 H 3.998658 -0.754505 -1.647206 0
M  V30 51 H 3.249452 0.567010 -0.758722 0
M  V30 52 H 2.132379 0.638407 -2.967267 0
M  V30 53 H 0.975305 -0.381590 -1.979621 0
M  V30 54 H 1.503312 -1.513593 -4.046456 0
M  V30 55 H 3.640564 -1.370931 -4.574739 0
M  V30 END ATOM
M  V30 BEGIN BOND
M  V30 1 1 1 2
M  V30 2 1 2 3
M  V30 3 1 3 4
M  V30 4 1 4 5
M  V30 5 2 5 6
M  V30 6 1 6 7
M  V30 7 2 7 8
M  V30 8 1 8 9
M  V30 9 2 9 10
M  V30 10 1 10 11
M  V30 11 1 11 12
M  V30 12 2 12 13
M  V30 13 1 13 14
M  V30 14 2 14 15
M  V30 15 1 15 16
M  V30 16 2 16 17
M  V30 17 1 17 18
M  V30 18 2 18 19
M  V30 19 1 19 20
M  V30 20 2 20 21
M  V30 21 1 21 22
M  V30 22 1 21 23
M  V30 23 2 23 24
M  V30 24 1 24 25
M  V30 25 2 25 26
M  V30 26 1 26 27
M  V30 27 1 19 28
M  V30 28 2 28 29
M  V30 29 1 4 30
M  V30 30 1 30 31
M  V30 31 1 31 32
M  V30 32 1 32 33
M  V30 33 1 32 2
M  V30 34 1 10 5
M  V30 35 1 29 12
M  V30 36 1 29 16
M  V30 37 1 26 20
M  V30 38 1 1 34
M  V30 39 1 1 35
M  V30 40 1 2 36 CFG=3
M  V30 41 1 3 37
M  V30 42 1 3 38
M  V30 43 1 6 39
M  V30 44 1 7 40
M  V30 45 1 9 41
M  V30 46 1 11 42
M  V30 47 1 13 43
M  V30 48 1 14 44
M  V30 49 1 15 45
M  V30 50 1 17 46
M  V30 51 1 23 47
M  V30 52 1 24 48
M  V30 53 1 25 49
M  V30 54 1 30 50
M  V30 55 1 30 51
M  V30 56 1 31 52
M  V30 57 1 31 53
M  V30 58 1 32 54 CFG=3
M  V30 59 1 33 55
M  V30 END BOND
M  V30 END CTAB
M  END
>  <Dataset>  (66) 
ChEMBL_Kinases

>  <Ligand_Instance>  (66) 
nan

>  <PDB_ID>  (66) 
nan

>  <Standardized_SMILES>  (66) 
N[C@@H]1CN(c2ccncc2Nc2cccc3cnc(-c4c(F)cccc4F)nc23)CC[C@H]1O

>  <Name>  (66) 
nan

>  <Pocket>  (66) 
nan

>  <ATP_Site>  (66) 
nan

>  <Peripheral>  (66) 
nan

>  <Num_H_Atoms_ProtBoundConf>  (66) 
nan

>  <Num_Resolved_Atoms>  (66) 
nan

>  <Num_Not_Resolved_Atoms>  (66) 
nan

$$$$
CHEMBL272731
     RDKit          3D

  0  0  0  0  0  0  0  0  0  0999 V3000
M  V30 BEGIN CTAB
M  V30 COUNTS 53 57 0 0 0
M  V30 BEGIN ATOM
M  V30 1 C 3.276233 0.400649 5.023863 0
M  V30 2 C 2.115433 -0.431889 4.522145 0
M  V30 3 C 1.580377 -1.202278 5.719927 0
M  V30 4 C 2.573027 -1.471988 3.521907 0
M  V30 5 N 3.197018 -0.898342 2.363193 0
M  V30 6 C 4.499977 -0.617243 2.184010 0
M  V30 7 N 4.718882 -0.079081 0.956091 0
M  V30 8 C 3.538514 -0.011922 0.333181 0
M  V30 9 C 3.087909 0.420477 -0.899012 0
M  V30 10 C 1.725128 0.318027 -1.180652 0
M  V30 11 C 0.807151 -0.196846 -0.281209 0
M  V30 12 C -0.566350 -0.217939 -0.768754 0
M  V30 13 N -1.315659 0.835953 -1.119921 0
M  V30 14 C -2.539110 0.507062 -1.530950 0
M  V30 15 C -3.707581 1.223743 -2.004433 0
M  V30 16 C -4.869768 0.578674 -2.372241 0
M  V30 17 Cl -4.924013 -1.180180 -2.260480 0
M  V30 18 C -5.989952 1.192084 -2.819522 0
M  V30 19 C -6.028393 2.552897 -2.935423 0
M  V30 20 C -4.903331 3.257811 -2.585488 0
M  V30 21 C -3.791178 2.590053 -2.137044 0
M  V30 22 Cl -2.453203 3.618448 -1.734403 0
M  V30 23 N -2.552380 -0.831795 -1.429565 0
M  V30 24 C -1.385352 -1.303737 -0.975129 0
M  V30 25 C -1.039723 -2.714965 -0.737522 0
M  V30 26 C -0.785031 -3.041612 0.589359 0
M  V30 27 C -0.445207 -4.332424 0.963576 0
M  V30 28 C -0.355070 -5.327497 -0.002563 0
M  V30 29 F -0.023756 -6.597452 0.347885 0
M  V30 30 C -0.610897 -4.989558 -1.318742 0
M  V30 31 C -0.948989 -3.707124 -1.694452 0
M  V30 32 F -1.211147 -3.318442 -2.967865 0
M  V30 33 N 1.276878 -0.609416 0.910149 0
M  V30 34 C 2.586726 -0.520247 1.203268 0
M  V30 35 H 3.648468 1.089350 4.245421 0
M  V30 36 H 4.138986 -0.293692 5.237270 0
M  V30 37 H 3.025109 0.868988 5.987844 0
M  V30 38 H 1.378852 0.265941 4.117433 0
M  V30 39 H 1.253129 -0.564368 6.545297 0
M  V30 40 H 0.781299 -1.866004 5.327640 0
M  V30 41 H 2.419232 -1.894584 6.027631 0
M  V30 42 H 3.358186 -2.072128 4.058531 0
M  V30 43 H 1.774521 -2.201865 3.309308 0
M  V30 44 H 5.302859 -0.784841 2.906533 0
M  V30 45 H 3.813600 0.815418 -1.580773 0
M  V30 46 H 1.490280 0.687526 -2.175272 0
M  V30 47 H -0.969289 1.810371 -1.073294 0
M  V30 48 H -6.868893 0.631792 -3.091826 0
M  V30 49 H -6.928136 3.030524 -3.293373 0
M  V30 50 H -4.964449 4.327862 -2.687766 0
M  V30 51 H -0.814854 -2.380137 1.458562 0
M  V30 52 H -0.235756 -4.648670 1.977691 0
M  V30 53 H -0.554240 -5.729367 -2.112435 0
M  V30 END ATOM
M  V30 BEGIN BOND
M  V30 1 1 1 2
M  V30 2 1 2 3
M  V30 3 1 2 4
M  V30 4 1 4 5
M  V30 5 1 5 6
M  V30 6 2 6 7
M  V30 7 1 7 8
M  V30 8 2 8 9
M  V30 9 1 9 10
M  V30 10 2 10 11
M  V30 11 1 11 12
M  V30 12 1 12 13
M  V30 13 1 13 14
M  V30 14 1 14 15
M  V30 15 2 15 16
M  V30 16 1 16 17
M  V30 17 1 16 18
M  V30 18 2 18 19
M  V30 19 1 19 20
M  V30 20 2 20 21
M  V30 21 1 21 22
M  V30 22 2 14 23
M  V30 23 1 23 24
M  V30 24 1 24 25
M  V30 25 2 25 26
M  V30 26 1 26 27
M  V30 27 2 27 28
M  V30 28 1 28 29
M  V30 29 1 28 30
M  V30 30 2 30 31
M  V30 31 1 31 32
M  V30 32 1 11 33
M  V30 33 2 33 34
M  V30 34 1 34 5
M  V30 35 1 34 8
M  V30 36 2 24 12
M  V30 37 1 31 25
M  V30 38 1 21 15
M  V30 39 1 1 35
M  V30 40 1 1 36
M  V30 41 1 1 37
M  V30 42 1 2 38
M  V30 43 1 3 39
M  V30 44 1 3 40
M  V30 45 1 3 41
M  V30 46 1 4 42
M  V30 47 1 4 43
M  V30 48 1 6 44
M  V30 49 1 9 45
M  V30 50 1 10 46
M  V30 51 1 13 47
M  V30 52 1 18 48
M  V30 53 1 19 49
M  V30 54 1 20 50
M  V30 55 1 26 51
M  V30 56 1 27 52
M  V30 57 1 30 53
M  V30 END BOND
M  V30 END CTAB
M  END
>  <Dataset>  (67) 
ChEMBL_Kinases

>  <Ligand_Instance>  (67) 
nan

>  <PDB_ID>  (67) 
nan

>  <Standardized_SMILES>  (67) 
CC(C)Cn1cnc2ccc(-c3[nH]c(-c4c(Cl)cccc4Cl)nc3-c3ccc(F)cc3F)nc21

>  <Name>  (67) 
nan

>  <Pocket>  (67) 
nan

>  <ATP_Site>  (67) 
nan

>  <Peripheral>  (67) 
nan

>  <Num_H_Atoms_ProtBoundConf>  (67) 
nan

>  <Num_Resolved_Atoms>  (67) 
nan

>  <Num_Not_Resolved_Atoms>  (67) 
nan

$$$$
CHEMBL3701771
     RDKit          3D

  0  0  0  0  0  0  0  0  0  0999 V3000
M  V30 BEGIN CTAB
M  V30 COUNTS 67 72 0 0 0
M  V30 BEGIN ATOM
M  V30 1 C 6.271090 0.871856 4.200639 0
M  V30 2 N 6.293160 2.159751 4.919638 0
M  V30 3 C 7.353553 2.457159 5.856368 0
M  V30 4 C 5.198984 3.052739 4.594157 0
M  V30 5 O 4.945523 4.223097 5.047539 0
M  V30 6 C 4.193454 2.645586 3.621403 0
M  V30 7 C 3.366948 1.645005 4.129867 0
M  V30 8 C 2.361263 1.129768 3.326433 0
M  V30 9 C 2.180111 1.598703 2.042694 0
M  V30 10 C 3.001748 2.589206 1.545226 0
M  V30 11 C 4.005850 3.110532 2.334930 0
M  V30 12 O 2.834175 3.069663 0.263139 0
M  V30 13 C 1.847857 2.600975 -0.628026 0
M  V30 14 N 1.023270 1.564788 -0.087483 0
M  V30 15 C 1.142445 1.073875 1.160130 0
M  V30 16 N 0.200152 0.120848 1.313554 0
M  V30 17 C -0.519637 0.002821 0.164340 0
M  V30 18 C -1.598937 -0.975082 0.065663 0
M  V30 19 C -2.936301 -0.715823 -0.194887 0
M  V30 20 C -3.783428 -1.799187 -0.239434 0
M  V30 21 C -3.407873 -3.115552 -0.045546 0
M  V30 22 C -4.505569 -4.090595 -0.140111 0
M  V30 23 N -5.710201 -3.559581 0.486677 0
M  V30 24 C -4.771406 -4.640555 -1.530051 0
M  V30 25 C -4.022485 -5.914943 -1.157312 0
M  V30 26 C -4.741282 -7.191139 -1.470561 0
M  V30 27 O -2.717159 -5.954073 -1.636406 0
M  V30 28 C -4.162663 -5.492282 0.279343 0
M  V30 29 C -2.054899 -3.322628 0.212164 0
M  V30 30 C -1.169364 -2.279488 0.266850 0
M  V30 31 C 0.018341 0.923417 -0.703797 0
M  V30 32 C -0.524241 1.070618 -2.051525 0
M  V30 33 C -1.037711 2.277512 -2.529668 0
M  V30 34 C -1.534455 2.334815 -3.814466 0
M  V30 35 C -1.533584 1.218056 -4.639805 0
M  V30 36 C -1.022300 0.042035 -4.144520 0
M  V30 37 C -0.522245 -0.043642 -2.870689 0
M  V30 38 H 5.842378 1.017402 3.185928 0
M  V30 39 H 7.340352 0.599522 4.054922 0
M  V30 40 H 5.705432 0.108345 4.739041 0
M  V30 41 H 7.075697 2.181583 6.891057 0
M  V30 42 H 7.684304 3.513223 5.808174 0
M  V30 43 H 8.269222 1.855063 5.591676 0
M  V30 44 H 3.383103 1.180257 5.107503 0
M  V30 45 H 1.674734 0.353030 3.637148 0
M  V30 46 H 4.689872 3.877937 2.040758 0
M  V30 47 H 1.163537 3.464833 -0.846900 0
M  V30 48 H 2.274067 2.349723 -1.631986 0
M  V30 49 H -3.195194 0.317436 -0.341156 0
M  V30 50 H -4.810366 -1.494588 -0.452651 0
M  V30 51 H -5.477828 -2.700463 1.033537 0
M  V30 52 H -6.375521 -3.360615 -0.292258 0
M  V30 53 H -5.825429 -4.810935 -1.787773 0
M  V30 54 H -4.223047 -4.142454 -2.349079 0
M  V30 55 H -5.782229 -7.193109 -1.083758 0
M  V30 56 H -4.182912 -8.000492 -0.912629 0
M  V30 57 H -4.700512 -7.417911 -2.545893 0
M  V30 58 H -2.111272 -6.334497 -0.971239 0
M  V30 59 H -3.255688 -5.649576 0.856763 0
M  V30 60 H -5.059171 -5.957338 0.756618 0
M  V30 61 H -1.787294 -4.352802 0.361023 0
M  V30 62 H -0.142146 -2.558854 0.475030 0
M  V30 63 H -1.031853 3.148255 -1.872944 0
M  V30 64 H -1.931133 3.268205 -4.183208 0
M  V30 65 H -1.948825 1.363871 -5.640770 0
M  V30 66 H -1.062584 -0.781472 -4.858403 0
M  V30 67 H -0.151121 -1.032053 -2.610221 0
M  V30 END ATOM
M  V30 BEGIN BOND
M  V30 1 1 1 2
M  V30 2 1 2 3
M  V30 3 1 2 4
M  V30 4 2 4 5
M  V30 5 1 4 6
M  V30 6 2 6 7
M  V30 7 1 7 8
M  V30 8 2 8 9
M  V30 9 1 9 10
M  V30 10 2 10 11
M  V30 11 1 10 12
M  V30 12 1 12 13
M  V30 13 1 13 14
M  V30 14 1 14 15
M  V30 15 2 15 16
M  V30 16 1 16 17
M  V30 17 1 17 18
M  V30 18 2 18 19
M  V30 19 1 19 20
M  V30 20 2 20 21
M  V30 21 1 21 22
M  V30 22 1 22 23
M  V30 23 1 22 24
M  V30 24 1 24 25
M  V30 25 1 25 26
M  V30 26 1 25 27
M  V30 27 1 25 28
M  V30 28 1 21 29
M  V30 29 2 29 30
M  V30 30 2 17 31
M  V30 31 1 31 32
M  V30 32 2 32 33
M  V30 33 1 33 34
M  V30 34 2 34 35
M  V30 35 1 35 36
M  V30 36 2 36 37
M  V30 37 1 11 6
M  V30 38 1 31 14
M  V30 39 1 37 32
M  V30 40 1 15 9
M  V30 41 1 30 18
M  V30 42 1 28 22
M  V30 43 1 1 38
M  V30 44 1 1 39
M  V30 45 1 1 40
M  V30 46 1 3 41
M  V30 47 1 3 42
M  V30 48 1 3 43
M  V30 49 1 7 44
M  V30 50 1 8 45
M  V30 51 1 11 46
M  V30 52 1 13 47
M  V30 53 1 13 48
M  V30 54 1 19 49
M  V30 55 1 20 50
M  V30 56 1 23 51
M  V30 57 1 23 52
M  V30 58 1 24 53
M  V30 59 1 24 54
M  V30 60 1 26 55
M  V30 61 1 26 56
M  V30 62 1 26 57
M  V30 63 1 27 58
M  V30 64 1 28 59
M  V30 65 1 28 60
M  V30 66 1 29 61
M  V30 67 1 30 62
M  V30 68 1 33 63
M  V30 69 1 34 64
M  V30 70 1 35 65
M  V30 71 1 36 66
M  V30 72 1 37 67
M  V30 END BOND
M  V30 END CTAB
M  END
>  <Dataset>  (68) 
ChEMBL_Kinases

>  <Ligand_Instance>  (68) 
nan

>  <PDB_ID>  (68) 
nan

>  <Standardized_SMILES>  (68) 
CN(C)C(=O)c1ccc2c(c1)OCn1c-2nc(-c2ccc(C3(N)CC(C)(O)C3)cc2)c1-c1ccccc1

>  <Name>  (68) 
nan

>  <Pocket>  (68) 
nan

>  <ATP_Site>  (68) 
nan

>  <Peripheral>  (68) 
nan

>  <Num_H_Atoms_ProtBoundConf>  (68) 
nan

>  <Num_Resolved_Atoms>  (68) 
nan

>  <Num_Not_Resolved_Atoms>  (68) 
nan

$$$$
CHEMBL3685741
     RDKit          3D

  0  0  0  0  0  0  0  0  0  0999 V3000
M  V30 BEGIN CTAB
M  V30 COUNTS 56 60 0 0 0
M  V30 BEGIN ATOM
M  V30 1 N 1.687710 -3.134095 0.658836 0
M  V30 2 C 2.845963 -2.368135 0.293274 0
M  V30 3 C 3.451383 -1.809707 1.570165 0
M  V30 4 C 2.436328 -0.999006 2.351337 0
M  V30 5 N 3.144809 0.129764 2.930816 0
M  V30 6 C 1.350526 -0.460437 1.437566 0
M  V30 7 N 1.911769 -0.167946 0.106512 0
M  V30 8 C 1.914968 1.065157 -0.651805 0
M  V30 9 C 3.169224 1.575173 -0.870939 0
M  V30 10 C 3.298624 2.744558 -1.571869 0
M  V30 11 N 2.167263 3.347581 -2.019775 0
M  V30 12 C 0.960016 2.790275 -1.768419 0
M  V30 13 C 0.758997 1.627572 -1.076911 0
M  V30 14 N -0.496474 1.080835 -0.840741 0
M  V30 15 C -1.850423 1.289745 -1.073777 0
M  V30 16 C -2.434483 2.322998 -1.756537 0
M  V30 17 C -3.769421 2.538083 -1.990688 0
M  V30 18 C -4.594316 1.574958 -1.458104 0
M  V30 19 C -4.119332 0.499394 -0.757381 0
M  V30 20 C -5.008470 -0.422633 -0.254145 0
M  V30 21 N -4.518269 -1.471165 0.431719 0
M  V30 22 C -3.204747 -1.650254 0.642203 0
M  V30 23 C -2.686830 -2.794515 1.389553 0
M  V30 24 C -2.527216 -2.693549 2.763915 0
M  V30 25 F -2.837164 -1.563899 3.451339 0
M  V30 26 C -2.030056 -3.790693 3.478441 0
M  V30 27 C -1.700240 -4.964641 2.825799 0
M  V30 28 C -1.864872 -5.051750 1.451404 0
M  V30 29 C -2.357505 -3.974644 0.717850 0
M  V30 30 F -2.499852 -4.107123 -0.614175 0
M  V30 31 N -2.389144 -0.722009 0.129558 0
M  V30 32 C -2.767096 0.361668 -0.569695 0
M  V30 33 C 2.580291 -1.222414 -0.632090 0
M  V30 34 H 1.414000 -3.861899 -0.037826 0
M  V30 35 H 1.676325 -3.492719 1.623502 0
M  V30 36 H 3.619077 -3.060354 -0.128568 0
M  V30 37 H 3.753263 -2.656840 2.226654 0
M  V30 38 H 4.322161 -1.181459 1.319625 0
M  V30 39 H 1.994685 -1.598535 3.161036 0
M  V30 40 H 2.774226 0.360560 3.893895 0
M  V30 41 H 4.164613 -0.086759 3.080105 0
M  V30 42 H 1.054513 0.529520 1.843298 0
M  V30 43 H 0.546824 -1.194064 1.416532 0
M  V30 44 H 4.060402 1.091233 -0.510528 0
M  V30 45 H 4.290867 3.131449 -1.735302 0
M  V30 46 H 0.254706 3.448578 -2.218120 0
M  V30 47 H -0.337500 0.194641 -0.290777 0
M  V30 48 H -1.851359 3.107908 -2.198285 0
M  V30 49 H -4.179972 3.371745 -2.536993 0
M  V30 50 H -5.664585 1.652792 -1.587501 0
M  V30 51 H -6.067255 -0.288655 -0.417234 0
M  V30 52 H -1.898866 -3.722415 4.568721 0
M  V30 53 H -1.313713 -5.799725 3.428777 0
M  V30 54 H -1.591597 -5.995467 0.983643 0
M  V30 55 H 2.013423 -1.509491 -1.538822 0
M  V30 56 H 3.567306 -0.825047 -0.946224 0
M  V30 END ATOM
M  V30 BEGIN BOND
M  V30 1 1 1 2
M  V30 2 1 2 3
M  V30 3 1 3 4
M  V30 4 1 4 5
M  V30 5 1 4 6
M  V30 6 1 6 7
M  V30 7 1 7 8
M  V30 8 2 8 9
M  V30 9 1 9 10
M  V30 10 2 10 11
M  V30 11 1 11 12
M  V30 12 2 12 13
M  V30 13 1 13 14
M  V30 14 1 14 15
M  V30 15 2 15 16
M  V30 16 1 16 17
M  V30 17 2 17 18
M  V30 18 1 18 19
M  V30 19 2 19 20
M  V30 20 1 20 21
M  V30 21 2 21 22
M  V30 22 1 22 23
M  V30 23 2 23 24
M  V30 24 1 24 25
M  V30 25 1 24 26
M  V30 26 2 26 27
M  V30 27 1 27 28
M  V30 28 2 28 29
M  V30 29 1 29 30
M  V30 30 1 22 31
M  V30 31 2 31 32
M  V30 32 1 7 33
M  V30 33 1 33 2
M  V30 34 1 13 8
M  V30 35 1 32 15
M  V30 36 1 32 19
M  V30 37 1 29 23
M  V30 38 1 1 34
M  V30 39 1 1 35
M  V30 40 1 2 36
M  V30 41 1 3 37
M  V30 42 1 3 38
M  V30 43 1 4 39
M  V30 44 1 5 40
M  V30 45 1 5 41
M  V30 46 1 6 42
M  V30 47 1 6 43
M  V30 48 1 9 44
M  V30 49 1 10 45
M  V30 50 1 12 46
M  V30 51 1 14 47
M  V30 52 1 16 48
M  V30 53 1 17 49
M  V30 54 1 18 50
M  V30 55 1 20 51
M  V30 56 1 26 52
M  V30 57 1 27 53
M  V30 58 1 28 54
M  V30 59 1 33 55
M  V30 60 1 33 56
M  V30 END BOND
M  V30 END CTAB
M  END
>  <Dataset>  (69) 
ChEMBL_Kinases

>  <Ligand_Instance>  (69) 
nan

>  <PDB_ID>  (69) 
nan

>  <Standardized_SMILES>  (69) 
NC1CC(N)CN(c2ccncc2Nc2cccc3cnc(-c4c(F)cccc4F)nc23)C1

>  <Name>  (69) 
nan

>  <Pocket>  (69) 
nan

>  <ATP_Site>  (69) 
nan

>  <Peripheral>  (69) 
nan

>  <Num_H_Atoms_ProtBoundConf>  (69) 
nan

>  <Num_Resolved_Atoms>  (69) 
nan

>  <Num_Not_Resolved_Atoms>  (69) 
nan

$$$$
CHEMBL279185
     RDKit          3D

  0  0  0  0  0  0  0  0  0  0999 V3000
M  V30 BEGIN CTAB
M  V30 COUNTS 189 191 0 0 0
M  V30 BEGIN ATOM
M  V30 1 N 1.087104 2.901299 4.803577 0
M  V30 2 C 0.013666 3.533089 5.388915 0
M  V30 3 N 1.216259 4.256523 5.497082 0
M  V30 4 N -1.268914 2.956393 5.377310 0
M  V30 5 C -1.713490 2.396212 4.087154 0
M  V30 6 C -3.036785 1.732764 4.244451 0
M  V30 7 C -3.534083 1.143986 2.992181 0
M  V30 8 C -3.873644 1.983599 1.829368 0 CFG=1
M  V30 9 N -2.782765 2.758806 1.324655 0
M  V30 10 C -2.854039 4.134767 0.980676 0
M  V30 11 O -4.036322 4.540915 1.189293 0
M  V30 12 C -1.795897 4.962273 0.488581 0 CFG=1
M  V30 13 C -1.372789 5.960005 1.604644 0
M  V30 14 C -2.517956 6.840568 2.024231 0
M  V30 15 C -1.979821 7.801424 3.063171 0
M  V30 16 N -1.444802 7.149251 4.216216 0
M  V30 17 C -2.177457 6.455067 5.190374 0
M  V30 18 N -3.347876 6.010025 4.857454 0
M  V30 19 N -1.640279 6.273957 6.468834 0
M  V30 20 N -0.534279 4.275931 0.162921 0
M  V30 21 C 0.553189 4.907626 -0.521688 0
M  V30 22 O 0.447266 6.136244 -0.855764 0
M  V30 23 C 1.800562 4.036440 -0.802299 0 CFG=1
M  V30 24 C 2.624761 4.105830 0.441605 0
M  V30 25 C 3.920995 3.457700 0.490359 0
M  V30 26 C 4.191261 2.026877 0.408594 0
M  V30 27 N 5.689064 1.909915 0.531844 0
M  V30 28 C 6.363056 2.428367 -0.626388 0
M  V30 29 N 5.760986 2.409691 -1.746063 0
M  V30 30 N 7.708894 2.933349 -0.454597 0
M  V30 31 N 1.381807 2.744453 -1.157936 0
M  V30 32 C 1.673348 1.640503 -1.946324 0
M  V30 33 O 2.731189 1.859962 -2.685390 0
M  V30 34 C 1.186971 0.300086 -2.229659 0 CFG=1
M  V30 35 C 1.569666 -0.257682 -3.523058 0
M  V30 36 C 0.971372 -1.585690 -3.787611 0
M  V30 37 C 1.408595 -2.154918 -5.131984 0
M  V30 38 N 0.776949 -3.458964 -5.239796 0
M  V30 39 C 0.951175 -4.108332 -6.519724 0
M  V30 40 N 1.712445 -3.609533 -7.443546 0
M  V30 41 N 0.238442 -5.324045 -6.689736 0
M  V30 42 N 1.258925 -0.491394 -1.031768 0
M  V30 43 C 2.290594 -1.417787 -0.935723 0
M  V30 44 O 3.023455 -1.314278 -1.990771 0
M  V30 45 C 3.060401 -2.482169 -0.316887 0 CFG=1
M  V30 46 C 4.569707 -2.397981 -0.534810 0
M  V30 47 C 5.272440 -3.584354 0.007355 0
M  V30 48 C 6.776911 -3.495778 -0.203312 0
M  V30 49 N 7.339200 -2.343611 0.407482 0
M  V30 50 C 8.740951 -2.137124 0.223833 0
M  V30 51 N 9.367725 -2.527047 -0.866703 0
M  V30 52 N 9.651210 -1.497717 1.094857 0
M  V30 53 N 2.724318 -2.820509 1.030460 0
M  V30 54 C 3.334248 -2.580743 2.281102 0
M  V30 55 O 4.408524 -1.837109 2.241100 0
M  V30 56 C 3.318153 -2.822765 3.775663 0 CFG=1
M  V30 57 C 3.100765 -1.521495 4.440745 0
M  V30 58 C 3.117092 -1.433476 5.925226 0
M  V30 59 C 2.078594 -2.236667 6.612163 0
M  V30 60 N 0.761081 -1.813529 6.200172 0
M  V30 61 C -0.180087 -2.702054 6.761176 0
M  V30 62 N -0.262891 -3.474674 7.806896 0
M  V30 63 N -1.512498 -2.971329 6.228332 0
M  V30 64 N 2.230456 -3.739840 4.034757 0
M  V30 65 C 2.245607 -5.090424 3.576480 0
M  V30 66 O 3.169004 -5.599702 2.840282 0
M  V30 67 C 1.365047 -6.243844 3.744650 0
M  V30 68 C 1.016241 -6.965710 2.445014 0
M  V30 69 C 0.189543 -6.041047 1.621203 0
M  V30 70 C -0.284774 -6.482287 0.285000 0
M  V30 71 C -1.111055 -5.284099 -0.261436 0
M  V30 72 N -1.671790 -5.647763 -1.510855 0
M  V30 73 C -2.444022 -4.527674 -1.904740 0
M  V30 74 O -2.730423 -3.362603 -1.483245 0
M  V30 75 C -3.300368 -4.157256 -2.985632 0 CFG=1
M  V30 76 O -3.861194 -2.862760 -2.965696 0
M  V30 77 C -4.765958 -2.959202 -4.041765 0 CFG=1
M  V30 78 N -5.227373 -1.686735 -4.407412 0
M  V30 79 C -6.459455 -1.634009 -5.047528 0
M  V30 80 N -6.728683 -0.370576 -5.320816 0
M  V30 81 C -5.704950 0.399656 -4.874395 0
M  V30 82 C -5.734335 1.813812 -5.042242 0
M  V30 83 N -6.773943 2.528081 -5.654882 0
M  V30 84 N -4.531488 2.201862 -4.465410 0
M  V30 85 C -3.642646 1.458223 -3.930976 0
M  V30 86 N -3.690238 0.088055 -3.806010 0
M  V30 87 C -4.799724 -0.445651 -4.318897 0
M  V30 88 C -4.134660 -3.797672 -5.079851 0 CFG=2
M  V30 89 O -4.912020 -4.955936 -5.286250 0
M  V30 90 C -2.846036 -4.309840 -4.407498 0 CFG=2
M  V30 91 O -2.520104 -5.586319 -4.775080 0
M  V30 92 C -4.365883 1.040952 0.737104 0
M  V30 93 N -4.612158 0.308579 -0.438671 0
M  V30 94 O -5.294863 0.376678 1.360598 0
M  V30 95 H 1.976008 3.506238 4.919512 0
M  V30 96 H 1.017016 5.072715 6.182310 0
M  V30 97 H 0.954783 5.017275 6.172012 0
M  V30 98 H -1.372543 3.206279 6.405442 0
M  V30 99 H -1.767951 3.230498 3.388849 0
M  V30 100 H -0.935775 1.665337 3.768723 0
M  V30 101 H -3.751109 2.488824 4.673357 0
M  V30 102 H -2.951597 0.895745 4.991794 0
M  V30 103 H -2.813564 0.313848 2.698522 0
M  V30 104 H -4.464706 0.538417 3.274854 0
M  V30 105 H -4.754151 2.636632 2.071297 0
M  V30 106 H -1.935772 2.166260 1.246716 0
M  V30 107 H -2.114341 5.623034 -0.338020 0
M  V30 108 H -0.585762 6.600030 1.166991 0
M  V30 109 H -1.045959 5.381781 2.470620 0
M  V30 110 H -3.332271 6.294224 2.528409 0
M  V30 111 H -2.881523 7.468727 1.172699 0
M  V30 112 H -2.778699 8.509100 3.407367 0
M  V30 113 H -1.205501 8.472819 2.579314 0
M  V30 114 H -0.398674 7.188624 4.348310 0
M  V30 115 H -3.886386 5.490179 5.604491 0
M  V30 116 H -0.739557 6.735044 6.751650 0
M  V30 117 H -2.036811 5.701987 7.235194 0
M  V30 118 H -0.560426 3.326422 0.503741 0
M  V30 119 H 2.325814 4.505701 -1.634455 0
M  V30 120 H 2.006169 3.673024 1.322564 0
M  V30 121 H 2.731942 5.193448 0.765190 0
M  V30 122 H 4.482568 3.797318 1.450095 0
M  V30 123 H 4.602239 3.934348 -0.331665 0
M  V30 124 H 3.816902 1.444158 1.294692 0
M  V30 125 H 3.987090 1.446384 -0.469569 0
M  V30 126 H 6.151450 1.519143 1.349368 0
M  V30 127 H 6.183677 2.775469 -2.658381 0
M  V30 128 H 8.689229 3.243272 -0.347398 0
M  V30 129 H 8.040606 3.884413 -0.114932 0
M  V30 130 H 0.492634 2.337606 -0.724154 0
M  V30 131 H 0.030410 0.404070 -2.349809 0
M  V30 132 H 1.062784 0.427940 -4.302170 0
M  V30 133 H 2.627832 -0.157100 -3.857465 0
M  V30 134 H 0.999465 -2.303709 -2.987057 0
M  V30 135 H -0.171168 -1.445245 -3.960948 0
M  V30 136 H 2.516330 -2.234683 -5.203528 0
M  V30 137 H 1.078375 -1.543552 -5.996626 0
M  V30 138 H 0.240358 -3.932052 -4.477537 0
M  V30 139 H 1.768795 -4.158126 -8.341417 0
M  V30 140 H 0.512201 -6.049346 -5.992728 0
M  V30 141 H -0.455470 -5.990338 -7.134219 0
M  V30 142 H 0.825381 -0.699335 -0.098668 0
M  V30 143 H 2.851836 -3.455523 -0.897392 0
M  V30 144 H 5.008376 -1.474393 -0.135532 0
M  V30 145 H 4.699475 -2.318170 -1.640566 0
M  V30 146 H 4.970276 -4.517469 -0.645414 0
M  V30 147 H 5.045966 -3.912100 0.996726 0
M  V30 148 H 7.275527 -4.400743 0.233750 0
M  V30 149 H 6.965848 -3.548703 -1.285635 0
M  V30 150 H 6.956563 -1.539940 1.000856 0
M  V30 151 H 8.886693 -3.001376 -1.640278 0
M  V30 152 H 9.756347 -0.477738 0.858933 0
M  V30 153 H 10.132235 -1.985651 1.865252 0
M  V30 154 H 1.896326 -3.331357 1.382612 0
M  V30 155 H 4.297394 -3.338440 4.033136 0
M  V30 156 H 2.129228 -1.048983 4.095302 0
M  V30 157 H 3.847555 -0.747842 4.083355 0
M  V30 158 H 2.893158 -0.339313 6.164285 0
M  V30 159 H 4.148630 -1.612372 6.337143 0
M  V30 160 H 2.208030 -2.025058 7.724651 0
M  V30 161 H 2.271237 -3.297600 6.423029 0
M  V30 162 H 0.303407 -1.067457 5.659069 0
M  V30 163 H 0.616836 -3.435928 8.436708 0
M  V30 164 H -2.398994 -3.249905 5.770887 0
M  V30 165 H -2.324173 -2.413718 6.652527 0
M  V30 166 H 1.279159 -3.805793 4.486098 0
M  V30 167 H 0.390340 -5.897356 4.168525 0
M  V30 168 H 1.746935 -6.984074 4.491403 0
M  V30 169 H 1.922714 -7.348606 1.972533 0
M  V30 170 H 0.417445 -7.844188 2.757903 0
M  V30 171 H -0.802874 -5.913609 2.220852 0
M  V30 172 H 0.597916 -5.040925 1.632275 0
M  V30 173 H -0.927156 -7.346069 0.333598 0
M  V30 174 H 0.502432 -6.627691 -0.462011 0
M  V30 175 H -0.455631 -4.392171 -0.299828 0
M  V30 176 H -1.888647 -5.085671 0.517865 0
M  V30 177 H -1.771693 -6.361721 -2.263086 0
M  V30 178 H -4.253121 -4.807636 -2.942500 0
M  V30 179 H -5.616075 -3.596386 -3.605470 0
M  V30 180 H -7.197115 -2.371063 -5.350275 0
M  V30 181 H -7.062518 1.966779 -6.495426 0
M  V30 182 H -6.836384 3.353789 -5.003021 0
M  V30 183 H -2.755257 1.964757 -3.536416 0
M  V30 184 H -3.925397 -3.291475 -6.036835 0
M  V30 185 H -4.651677 -5.459103 -6.096816 0
M  V30 186 H -2.069579 -3.571495 -4.696008 0
M  V30 187 H -2.637907 -5.677930 -5.751905 0
M  V30 188 H -5.329563 0.700334 -1.121459 0
M  V30 189 H -4.025429 -0.581698 -0.544200 0
M  V30 END ATOM
M  V30 BEGIN BOND
M  V30 1 2 1 2 CFG=2
M  V30 2 1 2 3
M  V30 3 1 2 4
M  V30 4 1 4 5
M  V30 5 1 5 6
M  V30 6 1 6 7
M  V30 7 1 7 8
M  V30 8 1 8 9
M  V30 9 1 9 10
M  V30 10 2 10 11
M  V30 11 1 10 12
M  V30 12 1 12 13
M  V30 13 1 13 14
M  V30 14 1 14 15
M  V30 15 1 15 16
M  V30 16 1 16 17
M  V30 17 2 17 18 CFG=2
M  V30 18 1 17 19
M  V30 19 1 12 20
M  V30 20 1 20 21
M  V30 21 2 21 22
M  V30 22 1 21 23
M  V30 23 1 23 24
M  V30 24 1 24 25
M  V30 25 1 25 26
M  V30 26 1 26 27
M  V30 27 1 27 28
M  V30 28 2 28 29 CFG=2
M  V30 29 1 28 30
M  V30 30 1 23 31
M  V30 31 1 31 32
M  V30 32 2 32 33
M  V30 33 1 32 34
M  V30 34 1 34 35
M  V30 35 1 35 36
M  V30 36 1 36 37
M  V30 37 1 37 38
M  V30 38 1 38 39
M  V30 39 2 39 40 CFG=2
M  V30 40 1 39 41
M  V30 41 1 34 42
M  V30 42 1 42 43
M  V30 43 2 43 44
M  V30 44 1 43 45
M  V30 45 1 45 46
M  V30 46 1 46 47
M  V30 47 1 47 48
M  V30 48 1 48 49
M  V30 49 1 49 50
M  V30 50 2 50 51 CFG=2
M  V30 51 1 50 52
M  V30 52 1 45 53
M  V30 53 1 53 54
M  V30 54 2 54 55
M  V30 55 1 54 56
M  V30 56 1 56 57
M  V30 57 1 57 58
M  V30 58 1 58 59
M  V30 59 1 59 60
M  V30 60 1 60 61
M  V30 61 2 61 62 CFG=2
M  V30 62 1 61 63
M  V30 63 1 56 64
M  V30 64 1 64 65
M  V30 65 2 65 66
M  V30 66 1 65 67
M  V30 67 1 67 68
M  V30 68 1 68 69
M  V30 69 1 69 70
M  V30 70 1 70 71
M  V30 71 1 71 72
M  V30 72 1 72 73
M  V30 73 2 73 74
M  V30 74 1 73 75
M  V30 75 1 75 76
M  V30 76 1 76 77
M  V30 77 1 77 78
M  V30 78 1 78 79
M  V30 79 2 79 80
M  V30 80 1 80 81
M  V30 81 2 81 82
M  V30 82 1 82 83
M  V30 83 1 82 84
M  V30 84 2 84 85
M  V30 85 1 85 86
M  V30 86 2 86 87
M  V30 87 1 77 88
M  V30 88 1 88 89
M  V30 89 1 88 90
M  V30 90 1 90 91
M  V30 91 1 8 92
M  V30 92 1 92 93
M  V30 93 2 92 94
M  V30 94 1 90 75
M  V30 95 1 87 78
M  V30 96 1 87 81
M  V30 97 1 1 95
M  V30 98 1 3 96
M  V30 99 1 3 97
M  V30 100 1 4 98
M  V30 101 1 5 99
M  V30 102 1 5 100
M  V30 103 1 6 101
M  V30 104 1 6 102
M  V30 105 1 7 103
M  V30 106 1 7 104
M  V30 107 1 8 105 CFG=1
M  V30 108 1 9 106
M  V30 109 1 12 107 CFG=3
M  V30 110 1 13 108
M  V30 111 1 13 109
M  V30 112 1 14 110
M  V30 113 1 14 111
M  V30 114 1 15 112
M  V30 115 1 15 113
M  V30 116 1 16 114
M  V30 117 1 18 115
M  V30 118 1 19 116
M  V30 119 1 19 117
M  V30 120 1 20 118
M  V30 121 1 23 119 CFG=3
M  V30 122 1 24 120
M  V30 123 1 24 121
M  V30 124 1 25 122
M  V30 125 1 25 123
M  V30 126 1 26 124
M  V30 127 1 26 125
M  V30 128 1 27 126
M  V30 129 1 29 127
M  V30 130 1 30 128
M  V30 131 1 30 129
M  V30 132 1 31 130
M  V30 133 1 34 131 CFG=3
M  V30 134 1 35 132
M  V30 135 1 35 133
M  V30 136 1 36 134
M  V30 137 1 36 135
M  V30 138 1 37 136
M  V30 139 1 37 137
M  V30 140 1 38 138
M  V30 141 1 40 139
M  V30 142 1 41 140
M  V30 143 1 41 141
M  V30 144 1 42 142
M  V30 145 1 45 143 CFG=3
M  V30 146 1 46 144
M  V30 147 1 46 145
M  V30 148 1 47 146
M  V30 149 1 47 147
M  V30 150 1 48 148
M  V30 151 1 48 149
M  V30 152 1 49 150
M  V30 153 1 51 151
M  V30 154 1 52 152
M  V30 155 1 52 153
M  V30 156 1 53 154
M  V30 157 1 56 155 CFG=1
M  V30 158 1 57 156
M  V30 159 1 57 157
M  V30 160 1 58 158
M  V30 161 1 58 159
M  V30 162 1 59 160
M  V30 163 1 59 161
M  V30 164 1 60 162
M  V30 165 1 62 163
M  V30 166 1 63 164
M  V30 167 1 63 165
M  V30 168 1 64 166
M  V30 169 1 67 167
M  V30 170 1 67 168
M  V30 171 1 68 169
M  V30 172 1 68 170
M  V30 173 1 69 171
M  V30 174 1 69 172
M  V30 175 1 70 173
M  V30 176 1 70 174
M  V30 177 1 71 175
M  V30 178 1 71 176
M  V30 179 1 72 177
M  V30 180 1 75 178 CFG=3
M  V30 181 1 77 179 CFG=1
M  V30 182 1 79 180
M  V30 183 1 83 181
M  V30 184 1 83 182
M  V30 185 1 85 183
M  V30 186 1 88 184 CFG=3
M  V30 187 1 89 185
M  V30 188 1 90 186 CFG=1
M  V30 189 1 91 187
M  V30 190 1 93 188
M  V30 191 1 93 189
M  V30 END BOND
M  V30 END CTAB
M  END
>  <Dataset>  (70) 
ChEMBL_Kinases

>  <Ligand_Instance>  (70) 
nan

>  <PDB_ID>  (70) 
nan

>  <Standardized_SMILES>  (70) 
N=C(N)NCCC[C@@H](NC(=O)[C@@H](CCCNC(=N)N)NC(=O)[C@@H](CCCNC(=N)N)NC(=O)[C@@H](CCCNC(=N)N)NC(=O)[C@@H](CCCNC(=N)N)NC(=O)[C@@H](CCCNC(=N)N)NC(=O)CCCCCNC(=O)[C@H]1O[C@@H](n2cnc3c(N)ncnc32)[C@H](O)[C@@H]1O)C(N)=O

>  <Name>  (70) 
nan

>  <Pocket>  (70) 
nan

>  <ATP_Site>  (70) 
nan

>  <Peripheral>  (70) 
nan

>  <Num_H_Atoms_ProtBoundConf>  (70) 
nan

>  <Num_Resolved_Atoms>  (70) 
nan

>  <Num_Not_Resolved_Atoms>  (70) 
nan

$$$$
CHEMBL3685306
     RDKit          3D

  0  0  0  0  0  0  0  0  0  0999 V3000
M  V30 BEGIN CTAB
M  V30 COUNTS 53 56 0 0 0
M  V30 BEGIN ATOM
M  V30 1 C 6.665021 -0.766103 6.971058 0
M  V30 2 O 6.134184 0.522097 6.748353 0
M  V30 3 C 5.255290 0.702403 5.690326 0
M  V30 4 C 4.942030 -0.386812 4.906429 0
M  V30 5 C 4.076826 -0.228365 3.858046 0
M  V30 6 F 3.746828 -1.273066 3.067602 0
M  V30 7 C 3.473366 0.954616 3.505143 0
M  V30 8 C 2.545761 1.268249 2.434326 0
M  V30 9 O 2.073600 2.437629 2.231583 0
M  V30 10 N 2.013139 0.385007 1.459024 0
M  V30 11 C 1.104061 0.825207 0.454111 0
M  V30 12 C 1.574158 1.280593 -0.760104 0
M  V30 13 C 0.657599 1.696682 -1.702858 0
M  V30 14 C -0.694445 1.661023 -1.445046 0
M  V30 15 C -1.218881 1.215886 -0.251426 0
M  V30 16 C -2.651858 1.119332 0.132183 0
M  V30 17 N -3.175698 -0.208980 -0.108032 0
M  V30 18 C -3.250014 -0.865305 -1.345108 0
M  V30 19 N -2.832589 -0.321601 -2.487769 0
M  V30 20 C -2.886841 -0.914053 -3.688240 0
M  V30 21 N -3.390168 -2.149197 -3.808579 0
M  V30 22 C -3.843388 -2.790811 -2.700909 0
M  V30 23 C -4.358561 -4.052545 -2.824851 0
M  V30 24 C -4.400732 -4.662213 -4.132540 0
M  V30 25 N -3.914113 -3.980682 -5.295818 0
M  V30 26 O -4.842854 -5.801999 -4.406602 0
M  V30 27 C -4.831351 -4.745252 -1.737149 0
M  V30 28 C -4.765873 -4.115792 -0.510127 0
M  V30 29 C -4.239490 -2.843663 -0.426991 0
M  V30 30 C -3.760231 -2.128715 -1.496624 0
M  V30 31 C -0.258050 0.805362 0.672543 0
M  V30 32 C 3.809342 2.042054 4.317388 0
M  V30 33 F 3.291931 3.293853 4.098649 0
M  V30 34 C 4.674876 1.903940 5.373219 0
M  V30 35 H 7.235638 -0.825921 7.914214 0
M  V30 36 H 5.840961 -1.513899 7.028863 0
M  V30 37 H 7.349372 -1.019378 6.128587 0
M  V30 38 H 5.336563 -1.397681 5.053705 0
M  V30 39 H 2.306979 -0.614035 1.493896 0
M  V30 40 H 2.616058 1.327020 -1.007458 0
M  V30 41 H 0.970013 2.064019 -2.674479 0
M  V30 42 H -1.400790 1.999032 -2.187985 0
M  V30 43 H -3.250928 1.885185 -0.421732 0
M  V30 44 H -2.677427 1.321259 1.222533 0
M  V30 45 H -3.520640 -0.691698 0.738806 0
M  V30 46 H -2.520390 -0.390654 -4.575169 0
M  V30 47 H -4.565898 -3.673963 -6.074597 0
M  V30 48 H -4.558378 -3.683038 -6.054999 0
M  V30 49 H -5.238727 -5.741689 -1.831849 0
M  V30 50 H -5.143335 -4.678330 0.332173 0
M  V30 51 H -4.243991 -2.465313 0.577510 0
M  V30 52 H -0.588485 0.444259 1.630338 0
M  V30 53 H 4.916594 2.762064 5.984034 0
M  V30 END ATOM
M  V30 BEGIN BOND
M  V30 1 1 1 2
M  V30 2 1 2 3
M  V30 3 2 3 4
M  V30 4 1 4 5
M  V30 5 1 5 6
M  V30 6 2 5 7
M  V30 7 1 7 8
M  V30 8 2 8 9
M  V30 9 1 8 10
M  V30 10 1 10 11
M  V30 11 2 11 12
M  V30 12 1 12 13
M  V30 13 2 13 14
M  V30 14 1 14 15
M  V30 15 1 15 16
M  V30 16 1 16 17
M  V30 17 1 17 18
M  V30 18 2 18 19
M  V30 19 1 19 20
M  V30 20 2 20 21
M  V30 21 1 21 22
M  V30 22 2 22 23
M  V30 23 1 23 24
M  V30 24 1 24 25
M  V30 25 2 24 26
M  V30 26 1 23 27
M  V30 27 2 27 28
M  V30 28 1 28 29
M  V30 29 2 29 30
M  V30 30 2 15 31
M  V30 31 1 7 32
M  V30 32 1 32 33
M  V30 33 2 32 34
M  V30 34 1 34 3
M  V30 35 1 31 11
M  V30 36 1 30 18
M  V30 37 1 30 22
M  V30 38 1 1 35
M  V30 39 1 1 36
M  V30 40 1 1 37
M  V30 41 1 4 38
M  V30 42 1 10 39
M  V30 43 1 12 40
M  V30 44 1 13 41
M  V30 45 1 14 42
M  V30 46 1 16 43
M  V30 47 1 16 44
M  V30 48 1 17 45
M  V30 49 1 20 46
M  V30 50 1 25 47
M  V30 51 1 25 48
M  V30 52 1 27 49
M  V30 53 1 28 50
M  V30 54 1 29 51
M  V30 55 1 31 52
M  V30 56 1 34 53
M  V30 END BOND
M  V30 END CTAB
M  END
>  <Dataset>  (71) 
ChEMBL_Kinases

>  <Ligand_Instance>  (71) 
nan

>  <PDB_ID>  (71) 
nan

>  <Standardized_SMILES>  (71) 
COc1cc(F)c(C(=O)Nc2cccc(CNc3ncnc4c(C(N)=O)cccc34)c2)c(F)c1

>  <Name>  (71) 
nan

>  <Pocket>  (71) 
nan

>  <ATP_Site>  (71) 
nan

>  <Peripheral>  (71) 
nan

>  <Num_H_Atoms_ProtBoundConf>  (71) 
nan

>  <Num_Resolved_Atoms>  (71) 
nan

>  <Num_Not_Resolved_Atoms>  (71) 
nan

$$$$
CHEMBL4577208
     RDKit          3D

  0  0  0  0  0  0  0  0  0  0999 V3000
M  V30 BEGIN CTAB
M  V30 COUNTS 55 57 0 0 0
M  V30 BEGIN ATOM
M  V30 1 C 7.282589 -3.053426 1.787504 0
M  V30 2 C 5.955034 -2.343433 1.509116 0
M  V30 3 C 6.028448 -0.895175 1.852641 0
M  V30 4 O 4.853947 -0.154686 1.679883 0
M  V30 5 C 3.664386 -0.328589 2.344690 0
M  V30 6 C 3.266550 -1.205580 3.325531 0
M  V30 7 C 2.027072 -1.277044 3.918992 0
M  V30 8 C 1.129028 -0.343412 3.438155 0
M  V30 9 C 1.438965 0.596058 2.435083 0
M  V30 10 C 0.244012 1.523677 2.104420 0 CFG=1
M  V30 11 C 0.795330 2.727520 1.464681 0
M  V30 12 C -0.138920 3.823225 1.060759 0
M  V30 13 O -1.070678 3.432655 0.121859 0
M  V30 14 N -0.697892 0.814067 1.308739 0
M  V30 15 C -1.129755 -0.497049 1.007327 0
M  V30 16 O -0.507816 -1.446957 1.568666 0
M  V30 17 C -2.212397 -0.886887 0.128526 0
M  V30 18 C -2.361497 -2.210064 -0.208445 0
M  V30 19 C -3.420219 -2.569157 -1.035764 0
M  V30 20 C -4.366232 -1.672263 -1.564388 0
M  V30 21 C -5.449186 -2.116366 -2.429822 0
M  V30 22 C -6.808357 -1.785608 -2.320823 0
M  V30 23 C -7.676174 -2.317710 -3.241557 0
M  V30 24 N -7.300113 -3.135569 -4.235086 0
M  V30 25 C -5.996728 -3.467750 -4.355816 0
M  V30 26 C -5.071165 -2.969242 -3.467471 0
M  V30 27 F -3.771361 -3.348891 -3.665444 0
M  V30 28 C -4.184542 -0.341358 -1.202169 0
M  V30 29 C -3.130290 0.001567 -0.381492 0
M  V30 30 C 2.725872 0.583371 1.899099 0
M  V30 31 H 7.432789 -3.186840 2.900973 0
M  V30 32 H 7.334706 -4.055894 1.352935 0
M  V30 33 H 8.147750 -2.468482 1.424045 0
M  V30 34 H 5.857290 -2.420020 0.371283 0
M  V30 35 H 5.137585 -2.921544 1.928388 0
M  V30 36 H 6.838668 -0.381442 1.266867 0
M  V30 37 H 6.331783 -0.826740 2.923869 0
M  V30 38 H 4.034587 -1.878934 3.645044 0
M  V30 39 H 1.874398 -2.020187 4.674264 0
M  V30 40 H 0.152736 -0.385252 3.915744 0
M  V30 41 H -0.192491 1.752517 3.126342 0
M  V30 42 H 1.561575 3.234287 2.139550 0
M  V30 43 H 1.354841 2.475235 0.494049 0
M  V30 44 H -0.614731 4.259785 1.976402 0
M  V30 45 H 0.533226 4.639537 0.641593 0
M  V30 46 H -0.783533 3.764600 -0.759007 0
M  V30 47 H -1.320024 1.413438 0.734808 0
M  V30 48 H -1.684765 -2.958162 0.149912 0
M  V30 49 H -3.496350 -3.615825 -1.272447 0
M  V30 50 H -7.033235 -1.126227 -1.497314 0
M  V30 51 H -8.725548 -2.036851 -3.114239 0
M  V30 52 H -5.797974 -4.125523 -5.176256 0
M  V30 53 H -4.890518 0.412133 -1.584360 0
M  V30 54 H -3.085933 1.054179 -0.161786 0
M  V30 55 H 2.860340 1.325352 1.159195 0
M  V30 END ATOM
M  V30 BEGIN BOND
M  V30 1 1 1 2
M  V30 2 1 2 3
M  V30 3 1 3 4
M  V30 4 1 4 5
M  V30 5 2 5 6
M  V30 6 1 6 7
M  V30 7 2 7 8
M  V30 8 1 8 9
M  V30 9 1 9 10
M  V30 10 1 10 11
M  V30 11 1 11 12
M  V30 12 1 12 13
M  V30 13 1 10 14
M  V30 14 1 14 15
M  V30 15 2 15 16
M  V30 16 1 15 17
M  V30 17 2 17 18
M  V30 18 1 18 19
M  V30 19 2 19 20
M  V30 20 1 20 21
M  V30 21 2 21 22
M  V30 22 1 22 23
M  V30 23 2 23 24
M  V30 24 1 24 25
M  V30 25 2 25 26
M  V30 26 1 26 27
M  V30 27 1 20 28
M  V30 28 2 28 29
M  V30 29 2 9 30
M  V30 30 1 30 5
M  V30 31 1 29 17
M  V30 32 1 26 21
M  V30 33 1 1 31
M  V30 34 1 1 32
M  V30 35 1 1 33
M  V30 36 1 2 34
M  V30 37 1 2 35
M  V30 38 1 3 36
M  V30 39 1 3 37
M  V30 40 1 6 38
M  V30 41 1 7 39
M  V30 42 1 8 40
M  V30 43 1 10 41 CFG=1
M  V30 44 1 11 42
M  V30 45 1 11 43
M  V30 46 1 12 44
M  V30 47 1 12 45
M  V30 48 1 13 46
M  V30 49 1 14 47
M  V30 50 1 18 48
M  V30 51 1 19 49
M  V30 52 1 22 50
M  V30 53 1 23 51
M  V30 54 1 25 52
M  V30 55 1 28 53
M  V30 56 1 29 54
M  V30 57 1 30 55
M  V30 END BOND
M  V30 END CTAB
M  END
>  <Dataset>  (72) 
ChEMBL_Kinases

>  <Ligand_Instance>  (72) 
nan

>  <PDB_ID>  (72) 
nan

>  <Standardized_SMILES>  (72) 
CCCOc1cccc([C@@H](CCO)NC(=O)c2ccc(-c3ccncc3F)cc2)c1

>  <Name>  (72) 
nan

>  <Pocket>  (72) 
nan

>  <ATP_Site>  (72) 
nan

>  <Peripheral>  (72) 
nan

>  <Num_H_Atoms_ProtBoundConf>  (72) 
nan

>  <Num_Resolved_Atoms>  (72) 
nan

>  <Num_Not_Resolved_Atoms>  (72) 
nan

$$$$
CHEMBL4293403
     RDKit          3D

  0  0  0  0  0  0  0  0  0  0999 V3000
M  V30 BEGIN CTAB
M  V30 COUNTS 41 44 0 0 0
M  V30 BEGIN ATOM
M  V30 1 N 0.341959 -6.762025 2.585445 0
M  V30 2 C 0.415319 -5.424034 2.114106 0
M  V30 3 N -0.026198 -4.318310 2.774665 0
M  V30 4 C 0.106726 -3.105570 2.208865 0
M  V30 5 O -0.344031 -2.067704 2.904806 0
M  V30 6 C -0.251770 -0.841896 2.420775 0
M  V30 7 C -0.722167 0.232024 3.149203 0
M  V30 8 C -0.655812 1.519208 2.704553 0
M  V30 9 C -0.091214 1.802055 1.456727 0
M  V30 10 C 0.091523 3.094913 0.767290 0
M  V30 11 C -0.823408 3.065222 -0.436107 0
M  V30 12 C -1.237087 4.490723 -0.827274 0
M  V30 13 S 0.324713 5.405466 -0.981436 0
M  V30 14 C 1.621733 4.133059 -0.934153 0
M  V30 15 C 1.482459 3.423085 0.398260 0
M  V30 16 C 0.394314 0.732004 0.695901 0
M  V30 17 C 0.305847 -0.564619 1.189048 0
M  V30 18 C 0.786980 -1.637476 0.437990 0
M  V30 19 O 1.305089 -1.458434 -0.687810 0
M  V30 20 C 0.676825 -2.903289 0.968965 0
M  V30 21 C 1.132843 -4.021238 0.281043 0
M  V30 22 C 0.990300 -5.254781 0.871903 0
M  V30 23 C 1.508030 -6.353238 0.049918 0
M  V30 24 O 2.042672 -6.261480 -1.087676 0
M  V30 25 O 1.538642 -7.716788 0.306933 0
M  V30 26 H -0.428564 -7.305144 3.054775 0
M  V30 27 H -0.430718 -7.305843 3.055816 0
M  V30 28 H -1.170911 0.121275 4.114449 0
M  V30 29 H -0.993076 2.415357 3.196802 0
M  V30 30 H -0.310141 3.897101 1.420166 0
M  V30 31 H -0.316068 2.630436 -1.320273 0
M  V30 32 H -1.776107 2.542202 -0.213851 0
M  V30 33 H -1.771687 4.901495 0.051953 0
M  V30 34 H -1.828159 4.461184 -1.738465 0
M  V30 35 H 1.535161 3.429870 -1.786993 0
M  V30 36 H 2.605116 4.648158 -0.920244 0
M  V30 37 H 2.151016 2.542591 0.408662 0
M  V30 38 H 1.907365 4.107623 1.161980 0
M  V30 39 H 0.857109 0.817844 -0.292434 0
M  V30 40 H 1.572273 -3.816789 -0.686424 0
M  V30 41 H 1.035937 -8.390285 -0.282776 0
M  V30 END ATOM
M  V30 BEGIN BOND
M  V30 1 1 1 2
M  V30 2 2 2 3
M  V30 3 1 3 4
M  V30 4 1 4 5
M  V30 5 1 5 6
M  V30 6 2 6 7
M  V30 7 1 7 8
M  V30 8 2 8 9
M  V30 9 1 9 10
M  V30 10 1 10 11
M  V30 11 1 11 12
M  V30 12 1 12 13
M  V30 13 1 13 14
M  V30 14 1 14 15
M  V30 15 1 9 16
M  V30 16 2 16 17
M  V30 17 1 17 18
M  V30 18 2 18 19
M  V30 19 1 18 20
M  V30 20 1 20 21
M  V30 21 2 21 22
M  V30 22 1 22 23
M  V30 23 2 23 24
M  V30 24 1 23 25
M  V30 25 1 22 2
M  V30 26 2 20 4
M  V30 27 1 17 6
M  V30 28 1 15 10
M  V30 29 1 1 26
M  V30 30 1 1 27
M  V30 31 1 7 28
M  V30 32 1 8 29
M  V30 33 1 10 30
M  V30 34 1 11 31
M  V30 35 1 11 32
M  V30 36 1 12 33
M  V30 37 1 12 34
M  V30 38 1 14 35
M  V30 39 1 14 36
M  V30 40 1 15 37
M  V30 41 1 15 38
M  V30 42 1 16 39
M  V30 43 1 21 40
M  V30 44 1 25 41
M  V30 END BOND
M  V30 END CTAB
M  END
>  <Dataset>  (73) 
ChEMBL_Kinases

>  <Ligand_Instance>  (73) 
nan

>  <PDB_ID>  (73) 
nan

>  <Standardized_SMILES>  (73) 
Nc1nc2oc3ccc(C4CCSCC4)cc3c(=O)c2cc1C(=O)O

>  <Name>  (73) 
nan

>  <Pocket>  (73) 
nan

>  <ATP_Site>  (73) 
nan

>  <Peripheral>  (73) 
nan

>  <Num_H_Atoms_ProtBoundConf>  (73) 
nan

>  <Num_Resolved_Atoms>  (73) 
nan

>  <Num_Not_Resolved_Atoms>  (73) 
nan

$$$$
CHEMBL3685301
     RDKit          3D

  0  0  0  0  0  0  0  0  0  0999 V3000
M  V30 BEGIN CTAB
M  V30 COUNTS 69 72 0 0 0
M  V30 BEGIN ATOM
M  V30 1 C 1.974161 -0.084185 4.304225 0
M  V30 2 C 1.477234 -1.399074 3.758306 0
M  V30 3 N 1.627151 -1.469619 2.308797 0
M  V30 4 C 2.941467 -1.356600 1.787990 0
M  V30 5 N 4.003401 -1.193608 2.585062 0
M  V30 6 C 5.267593 -1.082232 2.144836 0
M  V30 7 N 5.553040 -1.130288 0.815639 0
M  V30 8 C 4.533691 -1.293021 -0.055700 0
M  V30 9 C 4.827506 -1.340301 -1.390379 0
M  V30 10 C 6.214776 -1.216569 -1.844645 0
M  V30 11 N 6.525664 -1.265789 -3.232210 0
M  V30 12 O 7.122031 -1.065802 -0.974605 0
M  V30 13 C 3.826121 -1.504513 -2.323216 0
M  V30 14 C 2.545649 -1.614070 -1.823762 0
M  V30 15 O 1.497920 -1.781520 -2.728818 0
M  V30 16 C 1.713350 -1.840664 -4.124328 0
M  V30 17 C 0.437151 -2.023392 -4.870831 0
M  V30 18 C -0.007565 -3.322145 -5.136779 0
M  V30 19 C -1.209883 -3.404334 -5.839636 0
M  V30 20 C -1.907899 -2.307424 -6.242336 0
M  V30 21 C -1.447302 -1.043548 -5.967286 0
M  V30 22 C -0.266737 -0.909139 -5.276877 0
M  V30 23 C 2.262361 -1.564881 -0.475511 0
M  V30 24 C 3.256070 -1.402567 0.439553 0
M  V30 25 C 0.060790 -1.656266 4.121586 0
M  V30 26 C -0.328985 -2.493801 5.158111 0
M  V30 27 C -1.686173 -2.681725 5.432742 0
M  V30 28 C -2.669842 -2.042448 4.683938 0
M  V30 29 C -2.304047 -1.196525 3.637919 0
M  V30 30 N -3.225172 -0.495878 2.810417 0
M  V30 31 C -3.779332 0.784853 2.983879 0
M  V30 32 O -3.533881 1.549514 3.947957 0
M  V30 33 O -4.642582 1.166682 1.993338 0
M  V30 34 C -5.310288 2.394756 1.956104 0
M  V30 35 C -4.399160 3.579545 1.923372 0
M  V30 36 C -6.295098 2.589581 3.095615 0
M  V30 37 C -6.160432 2.372196 0.679730 0
M  V30 38 C -0.937831 -1.040290 3.401817 0
M  V30 39 H 1.437837 0.101221 5.260545 0
M  V30 40 H 1.769056 0.771239 3.618033 0
M  V30 41 H 3.039997 -0.165250 4.561486 0
M  V30 42 H 2.126576 -2.192875 4.196332 0
M  V30 43 H 0.763906 -1.598118 1.744721 0
M  V30 44 H 6.064362 -0.951983 2.875766 0
M  V30 45 H 6.195873 -0.662565 -4.029213 0
M  V30 46 H 7.190026 -2.059862 -3.360810 0
M  V30 47 H 3.988136 -1.549829 -3.383739 0
M  V30 48 H 2.163051 -0.884892 -4.502954 0
M  V30 49 H 2.359764 -2.710568 -4.406823 0
M  V30 50 H 0.582922 -4.167877 -4.796007 0
M  V30 51 H -1.508061 -4.444127 -6.018554 0
M  V30 52 H -2.833222 -2.514521 -6.784012 0
M  V30 53 H -2.026460 -0.182902 -6.301762 0
M  V30 54 H 0.052468 0.093490 -5.085748 0
M  V30 55 H 1.246535 -1.657995 -0.183300 0
M  V30 56 H 0.444791 -2.988062 5.736532 0
M  V30 57 H -1.978893 -3.340371 6.247219 0
M  V30 58 H -3.724437 -2.169410 4.874045 0
M  V30 59 H -3.435798 -1.130882 1.999827 0
M  V30 60 H -4.329354 4.118985 2.897900 0
M  V30 61 H -3.383004 3.347196 1.546924 0
M  V30 62 H -4.819156 4.318180 1.202539 0
M  V30 63 H -6.922397 1.672264 3.201976 0
M  V30 64 H -6.993141 3.411612 2.779137 0
M  V30 65 H -5.801714 2.899911 4.032143 0
M  V30 66 H -6.758753 3.276200 0.566459 0
M  V30 67 H -5.453537 2.269703 -0.171122 0
M  V30 68 H -6.755508 1.445796 0.744265 0
M  V30 69 H -0.647951 -0.374398 2.578506 0
M  V30 END ATOM
M  V30 BEGIN BOND
M  V30 1 1 1 2
M  V30 2 1 2 3
M  V30 3 1 3 4
M  V30 4 2 4 5
M  V30 5 1 5 6
M  V30 6 2 6 7
M  V30 7 1 7 8
M  V30 8 2 8 9
M  V30 9 1 9 10
M  V30 10 1 10 11
M  V30 11 2 10 12
M  V30 12 1 9 13
M  V30 13 2 13 14
M  V30 14 1 14 15
M  V30 15 1 15 16
M  V30 16 1 16 17
M  V30 17 2 17 18
M  V30 18 1 18 19
M  V30 19 2 19 20
M  V30 20 1 20 21
M  V30 21 2 21 22
M  V30 22 1 14 23
M  V30 23 2 23 24
M  V30 24 1 2 25
M  V30 25 2 25 26
M  V30 26 1 26 27
M  V30 27 2 27 28
M  V30 28 1 28 29
M  V30 29 1 29 30
M  V30 30 1 30 31
M  V30 31 2 31 32
M  V30 32 1 31 33
M  V30 33 1 33 34
M  V30 34 1 34 35
M  V30 35 1 34 36
M  V30 36 1 34 37
M  V30 37 2 29 38
M  V30 38 1 24 4
M  V30 39 1 38 25
M  V30 40 1 24 8
M  V30 41 1 22 17
M  V30 42 1 1 39
M  V30 43 1 1 40
M  V30 44 1 1 41
M  V30 45 1 2 42
M  V30 46 1 3 43
M  V30 47 1 6 44
M  V30 48 1 11 45
M  V30 49 1 11 46
M  V30 50 1 13 47
M  V30 51 1 16 48
M  V30 52 1 16 49
M  V30 53 1 18 50
M  V30 54 1 19 51
M  V30 55 1 20 52
M  V30 56 1 21 53
M  V30 57 1 22 54
M  V30 58 1 23 55
M  V30 59 1 26 56
M  V30 60 1 27 57
M  V30 61 1 28 58
M  V30 62 1 30 59
M  V30 63 1 35 60
M  V30 64 1 35 61
M  V30 65 1 35 62
M  V30 66 1 36 63
M  V30 67 1 36 64
M  V30 68 1 36 65
M  V30 69 1 37 66
M  V30 70 1 37 67
M  V30 71 1 37 68
M  V30 72 1 38 69
M  V30 END BOND
M  V30 END CTAB
M  END
>  <Dataset>  (74) 
ChEMBL_Kinases

>  <Ligand_Instance>  (74) 
nan

>  <PDB_ID>  (74) 
nan

>  <Standardized_SMILES>  (74) 
CC(Nc1ncnc2c(C(N)=O)cc(OCc3ccccc3)cc12)c1cccc(NC(=O)OC(C)(C)C)c1

>  <Name>  (74) 
nan

>  <Pocket>  (74) 
nan

>  <ATP_Site>  (74) 
nan

>  <Peripheral>  (74) 
nan

>  <Num_H_Atoms_ProtBoundConf>  (74) 
nan

>  <Num_Resolved_Atoms>  (74) 
nan

>  <Num_Not_Resolved_Atoms>  (74) 
nan

$$$$
CHEMBL3701766
     RDKit          3D

  0  0  0  0  0  0  0  0  0  0999 V3000
M  V30 BEGIN CTAB
M  V30 COUNTS 64 69 0 0 0
M  V30 BEGIN ATOM
M  V30 1 C 7.031410 -2.895376 1.730636 0
M  V30 2 N 6.028104 -1.888950 1.993215 0
M  V30 3 C 6.186676 -0.724668 2.790057 0
M  V30 4 O 7.290778 -0.488736 3.352688 0
M  V30 5 C 5.114974 0.237496 2.998549 0
M  V30 6 C 5.373621 1.345325 3.798306 0
M  V30 7 C 4.357985 2.257749 3.996221 0
M  V30 8 C 3.098306 2.142170 3.450236 0
M  V30 9 C 2.839065 1.044325 2.656560 0
M  V30 10 C 3.854431 0.124058 2.453733 0
M  V30 11 C 1.555943 0.787852 2.012661 0
M  V30 12 N 1.008827 -0.146012 1.217026 0
M  V30 13 C -0.275083 0.229375 0.975518 0
M  V30 14 C -1.109671 -0.616899 0.130507 0
M  V30 15 C -1.297516 -1.914004 0.625243 0
M  V30 16 C -2.077800 -2.812198 -0.098845 0
M  V30 17 C -2.656413 -2.422743 -1.289312 0
M  V30 18 C -3.447875 -3.464799 -1.944502 0
M  V30 19 N -4.278256 -4.223786 -0.996001 0
M  V30 20 C -4.120400 -3.158567 -3.236638 0
M  V30 21 C -3.036627 -3.872638 -3.998776 0
M  V30 22 C -2.057943 -2.958685 -4.704678 0
M  V30 23 O -3.486867 -4.834788 -4.919431 0
M  V30 24 C -2.552918 -4.445900 -2.683648 0
M  V30 25 C -2.478624 -1.138487 -1.792421 0
M  V30 26 C -1.702974 -0.262129 -1.062752 0
M  V30 27 C -0.507033 1.415264 1.639716 0
M  V30 28 C -1.801644 2.097025 1.588624 0
M  V30 29 C -2.861587 1.391262 2.117939 0
M  V30 30 C -4.095857 2.008843 2.085870 0
M  V30 31 C -4.264642 3.269260 1.551916 0
M  V30 32 C -3.140296 3.888506 1.048774 0
M  V30 33 C -1.876260 3.362247 1.033626 0
M  V30 34 N 0.631572 1.754813 2.279804 0
M  V30 35 C 0.784735 2.944079 3.088826 0
M  V30 36 O 2.079098 3.050603 3.644010 0
M  V30 37 H 8.005609 -2.639406 2.201169 0
M  V30 38 H 7.227663 -3.022167 0.638634 0
M  V30 39 H 6.684727 -3.888444 2.093325 0
M  V30 40 H 5.139220 -2.099879 1.527516 0
M  V30 41 H 6.339836 1.502574 4.260955 0
M  V30 42 H 4.574690 3.113550 4.620140 0
M  V30 43 H 3.658922 -0.739132 1.833219 0
M  V30 44 H -0.845224 -2.246701 1.572877 0
M  V30 45 H -2.187880 -3.806498 0.336435 0
M  V30 46 H -3.644038 -4.927613 -0.556509 0
M  V30 47 H -4.743460 -3.608897 -0.314741 0
M  V30 48 H -4.333056 -2.125661 -3.504341 0
M  V30 49 H -5.060435 -3.758495 -3.318085 0
M  V30 50 H -1.652699 -3.421504 -5.635587 0
M  V30 51 H -2.641248 -2.064357 -5.040672 0
M  V30 52 H -1.230913 -2.729253 -4.033435 0
M  V30 53 H -2.677399 -5.388865 -5.126682 0
M  V30 54 H -2.869720 -5.519988 -2.594173 0
M  V30 55 H -1.467425 -4.339115 -2.496962 0
M  V30 56 H -2.936686 -0.870071 -2.710583 0
M  V30 57 H -1.523332 0.750752 -1.396919 0
M  V30 58 H -2.772079 0.409917 2.541773 0
M  V30 59 H -4.934602 1.462080 2.499631 0
M  V30 60 H -5.253414 3.653565 1.576175 0
M  V30 61 H -3.347069 4.888061 0.640647 0
M  V30 62 H -1.042364 3.892834 0.628576 0
M  V30 63 H 0.629379 3.880925 2.478791 0
M  V30 64 H 0.004224 2.975523 3.879286 0
M  V30 END ATOM
M  V30 BEGIN BOND
M  V30 1 1 1 2
M  V30 2 1 2 3
M  V30 3 2 3 4
M  V30 4 1 3 5
M  V30 5 2 5 6
M  V30 6 1 6 7
M  V30 7 2 7 8
M  V30 8 1 8 9
M  V30 9 2 9 10
M  V30 10 1 9 11
M  V30 11 2 11 12
M  V30 12 1 12 13
M  V30 13 1 13 14
M  V30 14 2 14 15
M  V30 15 1 15 16
M  V30 16 2 16 17
M  V30 17 1 17 18
M  V30 18 1 18 19
M  V30 19 1 18 20
M  V30 20 1 20 21
M  V30 21 1 21 22
M  V30 22 1 21 23
M  V30 23 1 21 24
M  V30 24 1 17 25
M  V30 25 2 25 26
M  V30 26 2 13 27
M  V30 27 1 27 28
M  V30 28 2 28 29
M  V30 29 1 29 30
M  V30 30 2 30 31
M  V30 31 1 31 32
M  V30 32 2 32 33
M  V30 33 1 27 34
M  V30 34 1 34 35
M  V30 35 1 35 36
M  V30 36 1 10 5
M  V30 37 1 34 11
M  V30 38 1 36 8
M  V30 39 1 26 14
M  V30 40 1 33 28
M  V30 41 1 24 18
M  V30 42 1 1 37
M  V30 43 1 1 38
M  V30 44 1 1 39
M  V30 45 1 2 40
M  V30 46 1 6 41
M  V30 47 1 7 42
M  V30 48 1 10 43
M  V30 49 1 15 44
M  V30 50 1 16 45
M  V30 51 1 19 46
M  V30 52 1 19 47
M  V30 53 1 20 48
M  V30 54 1 20 49
M  V30 55 1 22 50
M  V30 56 1 22 51
M  V30 57 1 22 52
M  V30 58 1 23 53
M  V30 59 1 24 54
M  V30 60 1 24 55
M  V30 61 1 25 56
M  V30 62 1 26 57
M  V30 63 1 29 58
M  V30 64 1 30 59
M  V30 65 1 31 60
M  V30 66 1 32 61
M  V30 67 1 33 62
M  V30 68 1 35 63
M  V30 69 1 35 64
M  V30 END BOND
M  V30 END CTAB
M  END
>  <Dataset>  (75) 
ChEMBL_Kinases

>  <Ligand_Instance>  (75) 
nan

>  <PDB_ID>  (75) 
nan

>  <Standardized_SMILES>  (75) 
CNC(=O)c1ccc2c(c1)-c1nc(-c3ccc(C4(N)CC(C)(O)C4)cc3)c(-c3ccccc3)n1CO2

>  <Name>  (75) 
nan

>  <Pocket>  (75) 
nan

>  <ATP_Site>  (75) 
nan

>  <Peripheral>  (75) 
nan

>  <Num_H_Atoms_ProtBoundConf>  (75) 
nan

>  <Num_Resolved_Atoms>  (75) 
nan

>  <Num_Not_Resolved_Atoms>  (75) 
nan

$$$$
CHEMBL3685300
     RDKit          3D

  0  0  0  0  0  0  0  0  0  0999 V3000
M  V30 BEGIN CTAB
M  V30 COUNTS 59 62 0 0 0
M  V30 BEGIN ATOM
M  V30 1 C 6.558327 -2.064705 6.059243 0
M  V30 2 O 6.348789 -2.433887 4.719807 0
M  V30 3 C 5.565051 -1.762022 3.811531 0
M  V30 4 C 4.869422 -0.609844 4.116006 0
M  V30 5 C 4.087944 0.046101 3.182332 0
M  V30 6 C 3.975599 -0.436787 1.894735 0
M  V30 7 C 3.194020 0.145138 0.812927 0
M  V30 8 O 3.134058 -0.351785 -0.355237 0
M  V30 9 N 2.450375 1.322071 1.032407 0
M  V30 10 C 1.630983 2.034683 0.103324 0
M  V30 11 C 2.169749 3.049912 -0.687589 0
M  V30 12 C 1.333171 3.703842 -1.566598 0
M  V30 13 C -0.007456 3.420578 -1.717569 0
M  V30 14 C -0.548536 2.418313 -0.939673 0
M  V30 15 C -1.974412 1.915067 -0.910708 0
M  V30 16 C -2.752903 2.469897 -2.071044 0
M  V30 17 N -1.887413 0.468364 -0.895119 0
M  V30 18 C -3.086961 -0.298427 -0.771435 0
M  V30 19 N -4.307805 0.250571 -0.653502 0
M  V30 20 C -5.449590 -0.427597 -0.528290 0
M  V30 21 N -5.460793 -1.772287 -0.510293 0
M  V30 22 C -4.283076 -2.415471 -0.622627 0
M  V30 23 C -4.278138 -3.794653 -0.605950 0
M  V30 24 C -5.536072 -4.521165 -0.468186 0
M  V30 25 N -6.763944 -3.810788 -0.351335 0
M  V30 26 O -5.556041 -5.780972 -0.450503 0
M  V30 27 C -3.101633 -4.506051 -0.717458 0
M  V30 28 C -1.925036 -3.765124 -0.847042 0
M  V30 29 C -0.669530 -4.549295 -0.965677 0
M  V30 30 C -1.976782 -2.393944 -0.858822 0
M  V30 31 C -3.126039 -1.676456 -0.750186 0
M  V30 32 C 0.289238 1.746111 -0.043002 0
M  V30 33 C 4.680293 -1.604925 1.584452 0
M  V30 34 C 5.469916 -2.272870 2.517546 0
M  V30 35 F 6.123101 -3.389752 2.161843 0
M  V30 36 H 7.615708 -2.314415 6.313519 0
M  V30 37 H 5.916372 -2.673628 6.727528 0
M  V30 38 H 6.427819 -0.991897 6.249172 0
M  V30 39 H 4.927353 -0.189165 5.123086 0
M  V30 40 H 3.533664 0.950064 3.396844 0
M  V30 41 H 2.410413 1.831920 1.939267 0
M  V30 42 H 3.210399 3.313998 -0.612141 0
M  V30 43 H 1.706423 4.499777 -2.201986 0
M  V30 44 H -0.706906 3.878815 -2.367815 0
M  V30 45 H -2.396679 2.292003 0.042626 0
M  V30 46 H -3.647486 1.844746 -2.230436 0
M  V30 47 H -2.136627 2.575279 -2.987283 0
M  V30 48 H -3.110013 3.485149 -1.799038 0
M  V30 49 H -0.961484 0.008379 -0.973794 0
M  V30 50 H -6.404581 0.100582 -0.437300 0
M  V30 51 H -6.746681 -3.723442 0.695462 0
M  V30 52 H -7.515803 -3.440052 -0.971940 0
M  V30 53 H -3.158687 -5.585531 -0.698200 0
M  V30 54 H -0.685319 -5.495246 -0.408609 0
M  V30 55 H 0.199236 -3.927087 -0.668381 0
M  V30 56 H -0.527983 -4.765732 -2.057822 0
M  V30 57 H -1.027686 -1.939797 -0.961669 0
M  V30 58 H -0.071819 0.935686 0.609938 0
M  V30 59 H 4.631356 -2.037182 0.580214 0
M  V30 END ATOM
M  V30 BEGIN BOND
M  V30 1 1 1 2
M  V30 2 1 2 3
M  V30 3 2 3 4
M  V30 4 1 4 5
M  V30 5 2 5 6
M  V30 6 1 6 7
M  V30 7 2 7 8
M  V30 8 1 7 9
M  V30 9 1 9 10
M  V30 10 2 10 11
M  V30 11 1 11 12
M  V30 12 2 12 13
M  V30 13 1 13 14
M  V30 14 1 14 15
M  V30 15 1 15 16
M  V30 16 1 15 17
M  V30 17 1 17 18
M  V30 18 2 18 19
M  V30 19 1 19 20
M  V30 20 2 20 21
M  V30 21 1 21 22
M  V30 22 2 22 23
M  V30 23 1 23 24
M  V30 24 1 24 25
M  V30 25 2 24 26
M  V30 26 1 23 27
M  V30 27 2 27 28
M  V30 28 1 28 29
M  V30 29 1 28 30
M  V30 30 2 30 31
M  V30 31 2 14 32
M  V30 32 1 6 33
M  V30 33 2 33 34
M  V30 34 1 34 35
M  V30 35 1 34 3
M  V30 36 1 32 10
M  V30 37 1 31 18
M  V30 38 1 31 22
M  V30 39 1 1 36
M  V30 40 1 1 37
M  V30 41 1 1 38
M  V30 42 1 4 39
M  V30 43 1 5 40
M  V30 44 1 9 41
M  V30 45 1 11 42
M  V30 46 1 12 43
M  V30 47 1 13 44
M  V30 48 1 15 45
M  V30 49 1 16 46
M  V30 50 1 16 47
M  V30 51 1 16 48
M  V30 52 1 17 49
M  V30 53 1 20 50
M  V30 54 1 25 51
M  V30 55 1 25 52
M  V30 56 1 27 53
M  V30 57 1 29 54
M  V30 58 1 29 55
M  V30 59 1 29 56
M  V30 60 1 30 57
M  V30 61 1 32 58
M  V30 62 1 33 59
M  V30 END BOND
M  V30 END CTAB
M  END
>  <Dataset>  (76) 
ChEMBL_Kinases

>  <Ligand_Instance>  (76) 
nan

>  <PDB_ID>  (76) 
nan

>  <Standardized_SMILES>  (76) 
COc1ccc(C(=O)Nc2cccc(C(C)Nc3ncnc4c(C(N)=O)cc(C)cc34)c2)cc1F

>  <Name>  (76) 
nan

>  <Pocket>  (76) 
nan

>  <ATP_Site>  (76) 
nan

>  <Peripheral>  (76) 
nan

>  <Num_H_Atoms_ProtBoundConf>  (76) 
nan

>  <Num_Resolved_Atoms>  (76) 
nan

>  <Num_Not_Resolved_Atoms>  (76) 
nan

$$$$
CHEMBL4577511
     RDKit          3D

  0  0  0  0  0  0  0  0  0  0999 V3000
M  V30 BEGIN CTAB
M  V30 COUNTS 62 66 0 0 0
M  V30 BEGIN ATOM
M  V30 1 C 2.780854 -1.115691 7.690530 0
M  V30 2 C 3.252916 -1.166340 6.266062 0
M  V30 3 N 4.196511 -1.961869 5.693946 0
M  V30 4 O 4.272885 -1.660963 4.434949 0
M  V30 5 C 3.440714 -0.706025 4.098915 0
M  V30 6 C 3.278934 -0.138745 2.766773 0
M  V30 7 C 4.041520 -0.661731 1.743843 0
M  V30 8 C 3.857963 -0.109676 0.493797 0
M  V30 9 C 2.967086 0.911581 0.246505 0
M  V30 10 N 2.632151 1.581368 -0.886195 0
M  V30 11 C 1.694388 2.498733 -0.605381 0
M  V30 12 N 0.943076 3.463553 -1.349313 0
M  V30 13 C -0.443433 3.123580 -1.589601 0
M  V30 14 C -0.953002 1.919608 -1.080598 0
M  V30 15 C -2.287391 1.524124 -1.254657 0
M  V30 16 C -2.645703 0.179768 -0.640134 0 CFG=2
M  V30 17 C -2.404434 0.261394 0.857618 0
M  V30 18 N -1.905800 -0.767321 -1.317157 0
M  V30 19 C -2.179867 -1.029561 -2.696344 0
M  V30 20 C -2.794425 -2.427413 -2.744050 0
M  V30 21 N -2.086869 -3.248793 -1.782595 0
M  V30 22 C -2.701788 -4.393629 -1.148879 0
M  V30 23 O -3.897277 -4.564961 -1.537427 0
M  V30 24 C -1.776200 -5.067112 -0.212247 0
M  V30 25 C -2.359630 -6.253690 0.489491 0
M  V30 26 F -2.772745 -7.250658 -0.393546 0
M  V30 27 F -1.360271 -6.774911 1.300938 0
M  V30 28 F -3.430059 -5.954411 1.290522 0
M  V30 29 C -0.729068 -2.786065 -1.542551 0
M  V30 30 C -0.775728 -1.418103 -0.829114 0
M  V30 31 C -3.102656 2.383513 -1.963328 0
M  V30 32 C -2.586175 3.547620 -2.449264 0
M  V30 33 N -1.302404 3.904230 -2.268717 0
M  V30 34 N 1.424381 2.413744 0.730467 0
M  V30 35 C 2.196781 1.441385 1.275941 0
M  V30 36 C 2.377729 0.886465 2.547929 0
M  V30 37 N 2.797302 -0.390702 5.243529 0
M  V30 38 H 2.769683 -2.141162 8.089484 0
M  V30 39 H 3.450961 -0.445997 8.239967 0
M  V30 40 H 1.725524 -0.710677 7.658622 0
M  V30 41 H 4.760750 -1.461227 1.853400 0
M  V30 42 H 4.411578 -0.454907 -0.366528 0
M  V30 43 H 1.253488 4.371648 -1.741626 0
M  V30 44 H -0.290225 1.284567 -0.527717 0
M  V30 45 H -3.726376 0.040327 -0.785760 0
M  V30 46 H -2.262479 -0.722254 1.323354 0
M  V30 47 H -1.540194 0.926710 1.062085 0
M  V30 48 H -3.259816 0.745184 1.366026 0
M  V30 49 H -1.208368 -1.087679 -3.225796 0
M  V30 50 H -2.805412 -0.264886 -3.168323 0
M  V30 51 H -3.845503 -2.284194 -2.369694 0
M  V30 52 H -2.768349 -2.851750 -3.754624 0
M  V30 53 H -0.882019 -5.426795 -0.783121 0
M  V30 54 H -1.409622 -4.379158 0.599192 0
M  V30 55 H -0.260006 -3.481282 -0.826619 0
M  V30 56 H -0.183531 -2.750992 -2.482095 0
M  V30 57 H 0.140601 -0.906770 -1.229872 0
M  V30 58 H -0.663544 -1.487406 0.241503 0
M  V30 59 H -4.112336 2.018464 -2.058201 0
M  V30 60 H -3.274502 4.191484 -3.002641 0
M  V30 61 H 0.748840 2.960895 1.335333 0
M  V30 62 H 1.769410 1.303323 3.356698 0
M  V30 END ATOM
M  V30 BEGIN BOND
M  V30 1 1 1 2
M  V30 2 2 2 3
M  V30 3 1 3 4
M  V30 4 1 4 5
M  V30 5 1 5 6
M  V30 6 2 6 7
M  V30 7 1 7 8
M  V30 8 2 8 9
M  V30 9 1 9 10
M  V30 10 2 10 11
M  V30 11 1 11 12
M  V30 12 1 12 13
M  V30 13 2 13 14
M  V30 14 1 14 15
M  V30 15 1 15 16
M  V30 16 1 16 17
M  V30 17 1 16 18
M  V30 18 1 18 19
M  V30 19 1 19 20
M  V30 20 1 20 21
M  V30 21 1 21 22
M  V30 22 2 22 23
M  V30 23 1 22 24
M  V30 24 1 24 25
M  V30 25 1 25 26
M  V30 26 1 25 27
M  V30 27 1 25 28
M  V30 28 1 21 29
M  V30 29 1 29 30
M  V30 30 2 15 31
M  V30 31 1 31 32
M  V30 32 2 32 33
M  V30 33 1 11 34
M  V30 34 1 34 35
M  V30 35 2 35 36
M  V30 36 2 5 37
M  V30 37 1 37 2
M  V30 38 1 36 6
M  V30 39 1 35 9
M  V30 40 1 33 13
M  V30 41 1 30 18
M  V30 42 1 1 38
M  V30 43 1 1 39
M  V30 44 1 1 40
M  V30 45 1 7 41
M  V30 46 1 8 42
M  V30 47 1 12 43
M  V30 48 1 14 44
M  V30 49 1 16 45 CFG=1
M  V30 50 1 17 46
M  V30 51 1 17 47
M  V30 52 1 17 48
M  V30 53 1 19 49
M  V30 54 1 19 50
M  V30 55 1 20 51
M  V30 56 1 20 52
M  V30 57 1 24 53
M  V30 58 1 24 54
M  V30 59 1 29 55
M  V30 60 1 29 56
M  V30 61 1 30 57
M  V30 62 1 30 58
M  V30 63 1 31 59
M  V30 64 1 32 60
M  V30 65 1 34 61
M  V30 66 1 36 62
M  V30 END BOND
M  V30 END CTAB
M  END
>  <Dataset>  (77) 
ChEMBL_Kinases

>  <Ligand_Instance>  (77) 
nan

>  <PDB_ID>  (77) 
nan

>  <Standardized_SMILES>  (77) 
Cc1noc(-c2ccc3nc(Nc4cc([C@H](C)N5CCN(C(=O)CC(F)(F)F)CC5)ccn4)[nH]c3c2)n1

>  <Name>  (77) 
nan

>  <Pocket>  (77) 
nan

>  <ATP_Site>  (77) 
nan

>  <Peripheral>  (77) 
nan

>  <Num_H_Atoms_ProtBoundConf>  (77) 
nan

>  <Num_Resolved_Atoms>  (77) 
nan

>  <Num_Not_Resolved_Atoms>  (77) 
nan

$$$$
CHEMBL3685323
     RDKit          3D

  0  0  0  0  0  0  0  0  0  0999 V3000
M  V30 BEGIN CTAB
M  V30 COUNTS 43 46 0 0 0
M  V30 BEGIN ATOM
M  V30 1 N -0.411226 -4.235560 4.747844 0
M  V30 2 C 0.846216 -4.082548 4.101211 0
M  V30 3 O 1.784051 -4.855575 4.339141 0
M  V30 4 C 1.020217 -2.992866 3.144211 0
M  V30 5 C 2.233615 -2.834491 2.508941 0
M  V30 6 C 2.385297 -1.791049 1.599002 0
M  V30 7 C 3.673611 -1.629510 0.930291 0
M  V30 8 C 4.369910 -0.520371 0.449344 0
M  V30 9 N 5.536272 -0.937436 -0.089811 0
M  V30 10 O 5.609631 -2.235280 0.025237 0
M  V30 11 C 4.532429 -2.690042 0.621541 0
M  V30 12 C 1.301444 -0.967504 1.383278 0
M  V30 13 C 0.079839 -1.069531 1.975819 0
M  V30 14 C -0.934781 -0.180174 1.682802 0
M  V30 15 N -0.828009 0.869038 0.764745 0
M  V30 16 C -0.195169 1.659541 -0.188537 0
M  V30 17 C 0.130737 1.038232 -1.519319 0
M  V30 18 C -1.044136 0.886158 -2.439827 0
M  V30 19 C -2.203424 1.725115 -2.008211 0
M  V30 20 N -1.852753 2.992507 -1.458336 0
M  V30 21 C -0.862587 2.993238 -0.436501 0
M  V30 22 N -2.044274 -0.463456 2.382621 0
M  V30 23 C -2.219817 -1.441096 3.250458 0
M  V30 24 N -1.188355 -2.258992 3.477475 0
M  V30 25 C -0.008598 -2.120102 2.865562 0
M  V30 26 H -1.427633 -4.458839 4.679195 0
M  V30 27 H -1.422369 -4.472932 4.589382 0
M  V30 28 H 3.008268 -3.541559 2.758604 0
M  V30 29 H 3.945103 0.474534 0.547049 0
M  V30 30 H 4.320625 -3.727689 0.849804 0
M  V30 31 H 1.489569 -0.189364 0.681640 0
M  V30 32 H -1.771133 1.361772 0.778605 0
M  V30 33 H 0.826805 1.947559 0.236095 0
M  V30 34 H 0.648787 0.089053 -1.474971 0
M  V30 35 H 0.859678 1.754945 -2.000073 0
M  V30 36 H -0.719458 1.166599 -3.462164 0
M  V30 37 H -1.343717 -0.195719 -2.538062 0
M  V30 38 H -2.906089 1.194096 -1.320686 0
M  V30 39 H -2.799275 1.941730 -2.938429 0
M  V30 40 H -1.838536 3.773693 -2.121281 0
M  V30 41 H -0.097525 3.768367 -0.713098 0
M  V30 42 H -1.302219 3.370975 0.516188 0
M  V30 43 H -3.206054 -1.494848 3.712010 0
M  V30 END ATOM
M  V30 BEGIN BOND
M  V30 1 1 1 2
M  V30 2 2 2 3
M  V30 3 1 2 4
M  V30 4 2 4 5
M  V30 5 1 5 6
M  V30 6 1 6 7
M  V30 7 1 7 8
M  V30 8 2 8 9
M  V30 9 1 9 10
M  V30 10 1 10 11
M  V30 11 2 6 12
M  V30 12 1 12 13
M  V30 13 2 13 14
M  V30 14 1 14 15
M  V30 15 1 15 16
M  V30 16 1 16 17
M  V30 17 1 17 18
M  V30 18 1 18 19
M  V30 19 1 19 20
M  V30 20 1 20 21
M  V30 21 1 14 22
M  V30 22 2 22 23
M  V30 23 1 23 24
M  V30 24 2 24 25
M  V30 25 1 25 4
M  V30 26 2 11 7
M  V30 27 1 25 13
M  V30 28 1 21 16
M  V30 29 1 1 26
M  V30 30 1 1 27
M  V30 31 1 5 28
M  V30 32 1 8 29
M  V30 33 1 11 30
M  V30 34 1 12 31
M  V30 35 1 15 32
M  V30 36 1 16 33
M  V30 37 1 17 34
M  V30 38 1 17 35
M  V30 39 1 18 36
M  V30 40 1 18 37
M  V30 41 1 19 38
M  V30 42 1 19 39
M  V30 43 1 20 40
M  V30 44 1 21 41
M  V30 45 1 21 42
M  V30 46 1 23 43
M  V30 END BOND
M  V30 END CTAB
M  END
>  <Dataset>  (78) 
ChEMBL_Kinases

>  <Ligand_Instance>  (78) 
nan

>  <PDB_ID>  (78) 
nan

>  <Standardized_SMILES>  (78) 
NC(=O)c1cc(-c2cnoc2)cc2c(NC3CCCNC3)ncnc12

>  <Name>  (78) 
nan

>  <Pocket>  (78) 
nan

>  <ATP_Site>  (78) 
nan

>  <Peripheral>  (78) 
nan

>  <Num_H_Atoms_ProtBoundConf>  (78) 
nan

>  <Num_Resolved_Atoms>  (78) 
nan

>  <Num_Not_Resolved_Atoms>  (78) 
nan

$$$$
CHEMBL3685298
     RDKit          3D

  0  0  0  0  0  0  0  0  0  0999 V3000
M  V30 BEGIN CTAB
M  V30 COUNTS 80 85 0 0 0
M  V30 BEGIN ATOM
M  V30 1 N 2.826977 -3.558790 5.960833 0
M  V30 2 C 3.204696 -3.694654 4.536659 0
M  V30 3 O 4.282972 -3.962363 5.085759 0
M  V30 4 C 2.000999 -3.399021 3.830509 0
M  V30 5 C 2.208794 -3.755694 2.502277 0
M  V30 6 C 1.226016 -3.561694 1.532337 0
M  V30 7 O 1.151358 -3.812654 0.205743 0
M  V30 8 C 2.009233 -4.368311 -0.705125 0
M  V30 9 C 3.322883 -3.743966 -0.960004 0
M  V30 10 N 3.260946 -2.364192 -1.459809 0
M  V30 11 C 2.662661 -2.423394 -2.811116 0
M  V30 12 C 2.927968 -1.124826 -3.536727 0
M  V30 13 O 4.307009 -0.974213 -3.775826 0
M  V30 14 C 4.854822 -0.780074 -2.488314 0
M  V30 15 C 4.683712 -2.057368 -1.728794 0
M  V30 16 C 0.056785 -2.988341 2.034989 0
M  V30 17 C -0.166781 -2.631923 3.332980 0
M  V30 18 C -1.313161 -2.075564 3.864266 0
M  V30 19 N -2.385732 -1.805589 2.975199 0
M  V30 20 C -3.608818 -1.224310 3.553504 0
M  V30 21 C -4.500590 -0.931295 2.368830 0
M  V30 22 C -5.338086 -1.888307 1.836988 0
M  V30 23 C -6.166234 -1.676040 0.734358 0
M  V30 24 C -6.117195 -0.421913 0.169743 0
M  V30 25 C -5.285659 0.535662 0.697358 0
M  V30 26 N -5.275117 1.817818 0.026451 0
M  V30 27 C -4.075377 1.726625 -0.748425 0
M  V30 28 O -3.566890 0.576795 -0.488627 0
M  V30 29 C -3.517615 2.750418 -1.664147 0
M  V30 30 C -4.056179 3.860810 -2.277051 0
M  V30 31 C -3.219285 4.628877 -3.050656 0
M  V30 32 N -1.921644 4.365559 -3.242264 0
M  V30 33 C -1.336459 3.277723 -2.656918 0
M  V30 34 N 0.065937 2.989209 -2.852817 0
M  V30 35 C 0.935076 3.371674 -3.929186 0
M  V30 36 C 2.304801 2.943750 -3.441564 0
M  V30 37 C 2.181003 2.661830 -1.976437 0
M  V30 38 C 0.744217 2.234698 -1.817091 0
M  V30 39 C -2.155395 2.486559 -1.875249 0
M  V30 40 C -4.453697 0.326859 1.802173 0
M  V30 41 N -1.375418 -1.793820 5.174127 0
M  V30 42 C -0.366513 -2.018969 6.048705 0
M  V30 43 N 0.746517 -2.556651 5.542140 0
M  V30 44 C 0.834598 -2.848198 4.236918 0
M  V30 45 H 2.473231 -3.381371 6.919808 0
M  V30 46 H 2.985517 -3.834362 6.980159 0
M  V30 47 H 3.103766 -4.208226 2.060762 0
M  V30 48 H 2.229085 -5.447469 -0.426811 0
M  V30 49 H 1.483486 -4.481497 -1.699583 0
M  V30 50 H 4.020067 -3.784929 -0.088822 0
M  V30 51 H 3.813400 -4.333101 -1.783369 0
M  V30 52 H 3.181854 -3.225854 -3.340110 0
M  V30 53 H 1.551648 -2.543252 -2.749693 0
M  V30 54 H 2.382433 -1.164255 -4.482010 0
M  V30 55 H 2.640342 -0.272588 -2.890500 0
M  V30 56 H 5.961819 -0.603308 -2.546633 0
M  V30 57 H 4.391731 0.086928 -1.995088 0
M  V30 58 H 5.293286 -2.046011 -0.826024 0
M  V30 59 H 4.983725 -2.886361 -2.436547 0
M  V30 60 H -0.755213 -2.801156 1.366365 0
M  V30 61 H -2.376252 -1.980741 1.971417 0
M  V30 62 H -4.079827 -1.909972 4.258664 0
M  V30 63 H -3.292948 -0.252252 3.966037 0
M  V30 64 H -5.298389 -2.839715 2.360935 0
M  V30 65 H -6.749155 -2.537339 0.462674 0
M  V30 66 H -6.760322 -0.283724 -0.672623 0
M  V30 67 H -5.809165 2.732252 -0.083063 0
M  V30 68 H -5.097333 3.941145 -2.028802 0
M  V30 69 H -3.727387 5.482194 -3.497580 0
M  V30 70 H 0.684508 2.810825 -4.851309 0
M  V30 71 H 0.860692 4.456918 -4.111875 0
M  V30 72 H 3.002904 3.813551 -3.559439 0
M  V30 73 H 2.744540 2.117972 -4.024217 0
M  V30 74 H 2.407605 3.560927 -1.367479 0
M  V30 75 H 2.892549 1.887076 -1.630976 0
M  V30 76 H 0.599216 1.156550 -1.860552 0
M  V30 77 H 0.444955 2.625342 -0.791533 0
M  V30 78 H -1.626201 1.628911 -1.440757 0
M  V30 79 H -3.818191 1.117077 2.174876 0
M  V30 80 H -0.568697 -1.741468 7.060810 0
M  V30 END ATOM
M  V30 BEGIN BOND
M  V30 1 1 1 2
M  V30 2 2 2 3
M  V30 3 1 2 4
M  V30 4 2 4 5
M  V30 5 1 5 6
M  V30 6 1 6 7
M  V30 7 1 7 8
M  V30 8 1 8 9
M  V30 9 1 9 10
M  V30 10 1 10 11
M  V30 11 1 11 12
M  V30 12 1 12 13
M  V30 13 1 13 14
M  V30 14 1 14 15
M  V30 15 2 6 16
M  V30 16 1 16 17
M  V30 17 2 17 18
M  V30 18 1 18 19
M  V30 19 1 19 20
M  V30 20 1 20 21
M  V30 21 2 21 22
M  V30 22 1 22 23
M  V30 23 2 23 24
M  V30 24 1 24 25
M  V30 25 1 25 26
M  V30 26 1 26 27
M  V30 27 2 27 28
M  V30 28 1 27 29
M  V30 29 2 29 30
M  V30 30 1 30 31
M  V30 31 2 31 32
M  V30 32 1 32 33
M  V30 33 1 33 34
M  V30 34 1 34 35
M  V30 35 1 35 36
M  V30 36 1 36 37
M  V30 37 1 37 38
M  V30 38 2 33 39
M  V30 39 2 25 40
M  V30 40 1 18 41
M  V30 41 2 41 42
M  V30 42 1 42 43
M  V30 43 2 43 44
M  V30 44 1 44 4
M  V30 45 1 15 10
M  V30 46 1 44 17
M  V30 47 1 40 21
M  V30 48 1 39 29
M  V30 49 1 38 34
M  V30 50 1 1 45
M  V30 51 1 1 46
M  V30 52 1 5 47
M  V30 53 1 8 48
M  V30 54 1 8 49
M  V30 55 1 9 50
M  V30 56 1 9 51
M  V30 57 1 11 52
M  V30 58 1 11 53
M  V30 59 1 12 54
M  V30 60 1 12 55
M  V30 61 1 14 56
M  V30 62 1 14 57
M  V30 63 1 15 58
M  V30 64 1 15 59
M  V30 65 1 16 60
M  V30 66 1 19 61
M  V30 67 1 20 62
M  V30 68 1 20 63
M  V30 69 1 22 64
M  V30 70 1 23 65
M  V30 71 1 24 66
M  V30 72 1 26 67
M  V30 73 1 30 68
M  V30 74 1 31 69
M  V30 75 1 35 70
M  V30 76 1 35 71
M  V30 77 1 36 72
M  V30 78 1 36 73
M  V30 79 1 37 74
M  V30 80 1 37 75
M  V30 81 1 38 76
M  V30 82 1 38 77
M  V30 83 1 39 78
M  V30 84 1 40 79
M  V30 85 1 42 80
M  V30 END BOND
M  V30 END CTAB
M  END
>  <Dataset>  (79) 
ChEMBL_Kinases

>  <Ligand_Instance>  (79) 
nan

>  <PDB_ID>  (79) 
nan

>  <Standardized_SMILES>  (79) 
NC(=O)c1cc(OCCN2CCOCC2)cc2c(NCc3cccc(NC(=O)c4ccnc(N5CCCC5)c4)c3)ncnc12

>  <Name>  (79) 
nan

>  <Pocket>  (79) 
nan

>  <ATP_Site>  (79) 
nan

>  <Peripheral>  (79) 
nan

>  <Num_H_Atoms_ProtBoundConf>  (79) 
nan

>  <Num_Resolved_Atoms>  (79) 
nan

>  <Num_Not_Resolved_Atoms>  (79) 
nan

$$$$
CHEMBL2177167
     RDKit          3D

  0  0  0  0  0  0  0  0  0  0999 V3000
M  V30 BEGIN CTAB
M  V30 COUNTS 60 62 0 0 0
M  V30 BEGIN ATOM
M  V30 1 C 1.820277 3.419226 4.491056 0
M  V30 2 C 3.028287 2.641098 4.136319 0
M  V30 3 N 2.836392 1.400815 3.457991 0
M  V30 4 C 3.818694 0.416047 3.710970 0
M  V30 5 C 3.416663 -0.939240 4.117087 0
M  V30 6 N 2.552955 -1.697367 3.291402 0
M  V30 7 C 1.176194 -1.235116 3.245035 0
M  V30 8 C 2.510545 -3.054311 3.831960 0
M  V30 9 S 2.792654 1.756298 1.770789 0
M  V30 10 O 3.788044 0.841772 1.055592 0
M  V30 11 O 3.341124 3.148080 1.520846 0
M  V30 12 C 1.266101 1.523130 1.012508 0
M  V30 13 C 1.001174 0.370700 0.284878 0
M  V30 14 C -0.170955 0.054463 -0.364806 0
M  V30 15 C -1.204409 0.966782 -0.297537 0
M  V30 16 C -2.435103 0.620648 -0.993518 0
M  V30 17 C -3.583895 1.381228 -1.037825 0
M  V30 18 N -4.696023 0.975901 -1.708452 0
M  V30 19 C -4.675625 -0.207298 -2.351283 0
M  V30 20 N -5.779784 -0.732134 -3.083483 0
M  V30 21 C -3.553714 -0.998133 -2.335005 0
M  V30 22 C -3.438595 -2.288919 -3.003154 0
M  V30 23 O -4.447505 -2.745680 -3.645116 0
M  V30 24 N -2.229293 -3.029604 -2.945770 0
M  V30 25 C -2.076339 -4.289523 -3.583887 0
M  V30 26 C -2.333309 -5.561368 -3.093927 0
M  V30 27 C -2.096417 -6.658460 -3.917426 0
M  V30 28 C -1.614492 -6.515473 -5.204268 0
M  V30 29 N -1.378144 -5.254248 -5.640052 0
M  V30 30 C -1.591221 -4.165904 -4.883276 0
M  V30 31 N -2.502759 -0.534609 -1.656600 0
M  V30 32 C -1.018508 2.136068 0.406880 0
M  V30 33 C 0.197451 2.396670 1.044620 0
M  V30 34 H 2.171882 4.251533 5.169200 0
M  V30 35 H 1.125104 2.841196 5.111685 0
M  V30 36 H 1.337608 3.949723 3.653129 0
M  V30 37 H 3.620766 2.502797 5.069651 0
M  V30 38 H 3.687653 3.276488 3.476365 0
M  V30 39 H 4.445779 0.288184 2.771696 0
M  V30 40 H 4.591452 0.759954 4.457093 0
M  V30 41 H 3.028526 -1.012954 5.160964 0
M  V30 42 H 4.382022 -1.543814 4.177528 0
M  V30 43 H 0.590336 -1.752522 4.074082 0
M  V30 44 H 1.062447 -0.153768 3.318758 0
M  V30 45 H 0.707900 -1.638332 2.321583 0
M  V30 46 H 3.540863 -3.478709 3.838029 0
M  V30 47 H 2.162310 -3.083450 4.881992 0
M  V30 48 H 1.903850 -3.725558 3.187521 0
M  V30 49 H 1.803580 -0.375270 0.212830 0
M  V30 50 H -0.258032 -0.880346 -0.903271 0
M  V30 51 H -3.554618 2.338826 -0.500020 0
M  V30 52 H -6.014086 -0.215313 -3.943171 0
M  V30 53 H -6.324460 -1.577409 -2.789436 0
M  V30 54 H -1.448248 -2.597135 -2.404083 0
M  V30 55 H -2.703794 -5.555189 -2.088865 0
M  V30 56 H -2.315968 -7.621099 -3.478017 0
M  V30 57 H -1.443592 -7.392308 -5.812204 0
M  V30 58 H -1.354967 -3.253396 -5.375352 0
M  V30 59 H -1.826986 2.845738 0.457786 0
M  V30 60 H 0.318882 3.315635 1.586850 0
M  V30 END ATOM
M  V30 BEGIN BOND
M  V30 1 1 1 2
M  V30 2 1 2 3
M  V30 3 1 3 4
M  V30 4 1 4 5
M  V30 5 1 5 6
M  V30 6 1 6 7
M  V30 7 1 6 8
M  V30 8 1 3 9
M  V30 9 2 9 10
M  V30 10 2 9 11
M  V30 11 1 9 12
M  V30 12 2 12 13
M  V30 13 1 13 14
M  V30 14 2 14 15
M  V30 15 1 15 16
M  V30 16 2 16 17
M  V30 17 1 17 18
M  V30 18 2 18 19
M  V30 19 1 19 20
M  V30 20 1 19 21
M  V30 21 1 21 22
M  V30 22 2 22 23
M  V30 23 1 22 24
M  V30 24 1 24 25
M  V30 25 2 25 26
M  V30 26 1 26 27
M  V30 27 2 27 28
M  V30 28 1 28 29
M  V30 29 2 29 30
M  V30 30 2 21 31
M  V30 31 1 15 32
M  V30 32 2 32 33
M  V30 33 1 33 12
M  V30 34 1 31 16
M  V30 35 1 30 25
M  V30 36 1 1 34
M  V30 37 1 1 35
M  V30 38 1 1 36
M  V30 39 1 2 37
M  V30 40 1 2 38
M  V30 41 1 4 39
M  V30 42 1 4 40
M  V30 43 1 5 41
M  V30 44 1 5 42
M  V30 45 1 7 43
M  V30 46 1 7 44
M  V30 47 1 7 45
M  V30 48 1 8 46
M  V30 49 1 8 47
M  V30 50 1 8 48
M  V30 51 1 13 49
M  V30 52 1 14 50
M  V30 53 1 17 51
M  V30 54 1 20 52
M  V30 55 1 20 53
M  V30 56 1 24 54
M  V30 57 1 26 55
M  V30 58 1 27 56
M  V30 59 1 28 57
M  V30 60 1 30 58
M  V30 61 1 32 59
M  V30 62 1 33 60
M  V30 END BOND
M  V30 END CTAB
M  END
>  <Dataset>  (80) 
ChEMBL_Kinases

>  <Ligand_Instance>  (80) 
nan

>  <PDB_ID>  (80) 
nan

>  <Standardized_SMILES>  (80) 
CCN(CCN(C)C)S(=O)(=O)c1ccc(-c2cnc(N)c(C(=O)Nc3cccnc3)n2)cc1

>  <Name>  (80) 
nan

>  <Pocket>  (80) 
nan

>  <ATP_Site>  (80) 
nan

>  <Peripheral>  (80) 
nan

>  <Num_H_Atoms_ProtBoundConf>  (80) 
nan

>  <Num_Resolved_Atoms>  (80) 
nan

>  <Num_Not_Resolved_Atoms>  (80) 
nan

$$$$
CHEMBL3685296
     RDKit          3D

  0  0  0  0  0  0  0  0  0  0999 V3000
M  V30 BEGIN CTAB
M  V30 COUNTS 75 79 0 0 0
M  V30 BEGIN ATOM
M  V30 1 C 3.594000 -4.176199 6.367105 0
M  V30 2 N 4.293008 -4.749950 5.265736 0
M  V30 3 C 3.575983 -5.946481 4.843959 0
M  V30 4 C 4.470227 -3.886655 4.122681 0
M  V30 5 C 5.388803 -2.746776 4.369132 0
M  V30 6 O 5.581398 -1.897273 3.294210 0
M  V30 7 C 4.665306 -1.124687 2.645932 0
M  V30 8 C 5.278622 -0.437829 1.607751 0
M  V30 9 C 4.564372 0.433840 0.774442 0
M  V30 10 C 5.188483 1.166596 -0.322031 0
M  V30 11 N 4.412637 2.036683 -1.127743 0
M  V30 12 O 6.410869 1.040038 -0.568172 0
M  V30 13 C 3.218322 0.592239 1.017253 0
M  V30 14 N 2.505894 1.427714 0.224431 0
M  V30 15 C 1.194407 1.567746 0.476597 0
M  V30 16 N 0.594240 0.921124 1.461973 0
M  V30 17 C 1.225299 0.077575 2.290810 0
M  V30 18 N 0.525667 -0.581651 3.338523 0
M  V30 19 C -0.868958 -0.468452 3.643165 0
M  V30 20 C -1.671284 -1.005185 2.513636 0
M  V30 21 C -1.834210 -2.385720 2.598449 0
M  V30 22 C -2.553354 -3.108458 1.670538 0
M  V30 23 C -3.155132 -2.487971 0.596698 0
M  V30 24 C -2.980666 -1.121966 0.533524 0
M  V30 25 N -3.577671 -0.426957 -0.552068 0
M  V30 26 C -4.855759 0.180039 -0.698019 0
M  V30 27 O -5.701884 0.170953 0.222932 0
M  V30 28 C -5.196588 0.833604 -1.954354 0
M  V30 29 C -6.444516 1.415047 -2.037311 0
M  V30 30 C -6.837576 2.056164 -3.209959 0
M  V30 31 N -6.001595 2.118385 -4.285526 0
M  V30 32 C -4.784892 1.550915 -4.203482 0
M  V30 33 N -3.872154 1.587133 -5.300441 0
M  V30 34 C -2.528062 1.028293 -5.378135 0
M  V30 35 C -2.286234 0.660619 -6.824134 0
M  V30 36 C -3.436398 1.253447 -7.606405 0
M  V30 37 C -4.067677 2.191597 -6.605613 0
M  V30 38 C -4.375845 0.912425 -3.054656 0
M  V30 39 C -2.267790 -0.375942 1.446874 0
M  V30 40 C 2.570469 -0.063112 2.028647 0
M  V30 41 C 3.318475 -0.902719 2.812346 0
M  V30 42 H 4.270528 -3.658277 7.095444 0
M  V30 43 H 3.192546 -5.042265 6.965953 0
M  V30 44 H 2.712560 -3.562917 6.115066 0
M  V30 45 H 4.322320 -6.684386 4.450536 0
M  V30 46 H 2.802397 -5.716239 4.083938 0
M  V30 47 H 3.053957 -6.421889 5.711575 0
M  V30 48 H 4.996109 -4.541172 3.356501 0
M  V30 49 H 3.500718 -3.681131 3.678996 0
M  V30 50 H 6.409981 -3.173443 4.619525 0
M  V30 51 H 5.106773 -2.130814 5.253339 0
M  V30 52 H 6.326827 -0.480494 1.319742 0
M  V30 53 H 3.846121 2.921693 -1.050958 0
M  V30 54 H 4.105229 2.129747 -2.116660 0
M  V30 55 H 0.664809 2.244993 -0.180338 0
M  V30 56 H 1.043230 -1.225104 3.974895 0
M  V30 57 H -1.089326 -1.003506 4.588104 0
M  V30 58 H -1.147699 0.606014 3.830926 0
M  V30 59 H -1.417966 -3.020499 3.391473 0
M  V30 60 H -2.687024 -4.190705 1.727985 0
M  V30 61 H -3.732985 -2.982652 -0.169694 0
M  V30 62 H -2.838369 -0.446676 -1.287177 0
M  V30 63 H -7.155139 1.400704 -1.219485 0
M  V30 64 H -7.821721 2.514425 -3.274283 0
M  V30 65 H -2.458723 0.071749 -4.808649 0
M  V30 66 H -1.751364 1.706844 -5.014687 0
M  V30 67 H -1.295516 1.007007 -7.183543 0
M  V30 68 H -2.312956 -0.438872 -7.000510 0
M  V30 69 H -4.195226 0.483398 -7.862460 0
M  V30 70 H -3.084756 1.791111 -8.510024 0
M  V30 71 H -3.685839 3.216068 -6.691140 0
M  V30 72 H -5.179543 2.195763 -6.778564 0
M  V30 73 H -3.413786 0.470351 -3.006419 0
M  V30 74 H -2.126976 0.676743 1.427548 0
M  V30 75 H 2.918690 -1.444873 3.624597 0
M  V30 END ATOM
M  V30 BEGIN BOND
M  V30 1 1 1 2
M  V30 2 1 2 3
M  V30 3 1 2 4
M  V30 4 1 4 5
M  V30 5 1 5 6
M  V30 6 1 6 7
M  V30 7 2 7 8
M  V30 8 1 8 9
M  V30 9 1 9 10
M  V30 10 1 10 11
M  V30 11 2 10 12
M  V30 12 2 9 13
M  V30 13 1 13 14
M  V30 14 2 14 15
M  V30 15 1 15 16
M  V30 16 2 16 17
M  V30 17 1 17 18
M  V30 18 1 18 19
M  V30 19 1 19 20
M  V30 20 2 20 21
M  V30 21 1 21 22
M  V30 22 2 22 23
M  V30 23 1 23 24
M  V30 24 1 24 25
M  V30 25 1 25 26
M  V30 26 2 26 27
M  V30 27 1 26 28
M  V30 28 2 28 29
M  V30 29 1 29 30
M  V30 30 2 30 31
M  V30 31 1 31 32
M  V30 32 1 32 33
M  V30 33 1 33 34
M  V30 34 1 34 35
M  V30 35 1 35 36
M  V30 36 1 36 37
M  V30 37 2 32 38
M  V30 38 2 24 39
M  V30 39 1 17 40
M  V30 40 2 40 41
M  V30 41 1 41 7
M  V30 42 1 40 13
M  V30 43 1 39 20
M  V30 44 1 38 28
M  V30 45 1 37 33
M  V30 46 1 1 42
M  V30 47 1 1 43
M  V30 48 1 1 44
M  V30 49 1 3 45
M  V30 50 1 3 46
M  V30 51 1 3 47
M  V30 52 1 4 48
M  V30 53 1 4 49
M  V30 54 1 5 50
M  V30 55 1 5 51
M  V30 56 1 8 52
M  V30 57 1 11 53
M  V30 58 1 11 54
M  V30 59 1 15 55
M  V30 60 1 18 56
M  V30 61 1 19 57
M  V30 62 1 19 58
M  V30 63 1 21 59
M  V30 64 1 22 60
M  V30 65 1 23 61
M  V30 66 1 25 62
M  V30 67 1 29 63
M  V30 68 1 30 64
M  V30 69 1 34 65
M  V30 70 1 34 66
M  V30 71 1 35 67
M  V30 72 1 35 68
M  V30 73 1 36 69
M  V30 74 1 36 70
M  V30 75 1 37 71
M  V30 76 1 37 72
M  V30 77 1 38 73
M  V30 78 1 39 74
M  V30 79 1 41 75
M  V30 END BOND
M  V30 END CTAB
M  END
>  <Dataset>  (81) 
ChEMBL_Kinases

>  <Ligand_Instance>  (81) 
nan

>  <PDB_ID>  (81) 
nan

>  <Standardized_SMILES>  (81) 
CN(C)CCOc1cc(C(N)=O)c2ncnc(NCc3cccc(NC(=O)c4ccnc(N5CCCC5)c4)c3)c2c1

>  <Name>  (81) 
nan

>  <Pocket>  (81) 
nan

>  <ATP_Site>  (81) 
nan

>  <Peripheral>  (81) 
nan

>  <Num_H_Atoms_ProtBoundConf>  (81) 
nan

>  <Num_Resolved_Atoms>  (81) 
nan

>  <Num_Not_Resolved_Atoms>  (81) 
nan

$$$$
CHEMBL28324
     RDKit          3D

  0  0  0  0  0  0  0  0  0  0999 V3000
M  V30 BEGIN CTAB
M  V30 COUNTS 86 92 0 0 0
M  V30 BEGIN ATOM
M  V30 1 C -1.278396 -4.203427 1.386177 0
M  V30 2 N -1.602455 -2.915083 1.797861 0
M  V30 3 C -0.629134 -1.923840 2.003022 0 CFG=1
M  V30 4 C 0.648040 -2.499962 2.663234 0
M  V30 5 C 1.662933 -1.441150 2.873111 0
M  V30 6 C 1.865716 -0.661952 3.998628 0
M  V30 7 C 2.858615 0.290592 4.069924 0
M  V30 8 C 3.742478 0.555890 3.021515 0
M  V30 9 O 4.660054 1.518672 3.262767 0
M  V30 10 S 4.698355 3.151759 3.093250 0
M  V30 11 O 5.765992 3.477749 2.035730 0
M  V30 12 O 5.197757 3.882328 4.323617 0
M  V30 13 C 3.246017 3.932203 2.568881 0
M  V30 14 C 2.563948 4.809280 3.430171 0
M  V30 15 C 1.389955 5.470621 3.121897 0
M  V30 16 C 0.825726 5.268637 1.870999 0
M  V30 17 C 1.466612 4.409266 0.977877 0
M  V30 18 C 0.853835 4.275556 -0.245588 0
M  V30 19 N 1.469060 3.458237 -1.124338 0
M  V30 20 C 2.610812 2.830345 -0.792396 0
M  V30 21 C 3.249545 2.948699 0.438897 0
M  V30 22 C 2.629473 3.781644 1.346389 0
M  V30 23 C 3.556631 -0.214990 1.872744 0
M  V30 24 C 2.558133 -1.155788 1.838254 0
M  V30 25 C -0.180149 -1.275195 0.728576 0
M  V30 26 O -0.816459 -2.236387 0.228918 0
M  V30 27 N -0.182533 -1.307839 -0.679364 0
M  V30 28 C -0.808597 -2.251283 -1.587228 0
M  V30 29 C -0.535531 -2.034265 -3.025002 0
M  V30 30 N 0.649577 -1.297888 -3.350208 0
M  V30 31 C 0.918020 -0.996886 -4.690609 0
M  V30 32 C 2.035704 -0.332085 -5.144200 0
M  V30 33 C 2.298034 -0.031613 -6.466359 0
M  V30 34 C 1.357634 -0.439819 -7.361512 0
M  V30 35 C 0.176415 -1.120646 -7.067657 0
M  V30 36 C 0.047430 -1.354461 -5.694773 0
M  V30 37 C 1.506660 -0.896632 -2.257850 0
M  V30 38 C 0.571240 -0.232904 -1.249117 0
M  V30 39 S -3.000842 -2.770122 2.719714 0
M  V30 40 O -3.290572 -1.362019 3.159422 0
M  V30 41 O -2.900426 -3.686753 3.932172 0
M  V30 42 C -4.466467 -3.282630 1.863980 0
M  V30 43 C -5.212104 -4.372639 2.291517 0
M  V30 44 C -6.309621 -4.706971 1.548436 0
M  V30 45 C -6.731094 -4.055995 0.420241 0
M  V30 46 C -5.928784 -2.997526 0.085906 0
M  V30 47 C -6.264543 -2.255360 -1.040667 0
M  V30 48 N -5.570133 -1.202023 -1.464852 0
M  V30 49 C -4.473401 -0.755924 -0.841672 0
M  V30 50 C -4.079331 -1.438792 0.278978 0
M  V30 51 C -4.775259 -2.517713 0.729443 0
M  V30 52 H -2.035359 -4.519486 0.607002 0
M  V30 53 H -1.465924 -4.958952 2.210630 0
M  V30 54 H -0.256224 -4.406052 1.036858 0
M  V30 55 H -0.996710 -1.200714 2.747909 0
M  V30 56 H 0.408560 -2.943707 3.648511 0
M  V30 57 H 1.101609 -3.227478 1.967278 0
M  V30 58 H 1.177157 -0.862353 4.810624 0
M  V30 59 H 2.908744 0.835128 5.012563 0
M  V30 60 H 2.981006 4.984512 4.406549 0
M  V30 61 H 0.929699 6.126378 3.839837 0
M  V30 62 H -0.089845 5.804002 1.685843 0
M  V30 63 H -0.049724 4.767936 -0.517287 0
M  V30 64 H 3.052454 2.185604 -1.561378 0
M  V30 65 H 4.169302 2.434421 0.682975 0
M  V30 66 H 4.247356 0.004182 1.078327 0
M  V30 67 H 2.470443 -1.726052 0.904490 0
M  V30 68 H -1.927410 -2.249669 -1.436818 0
M  V30 69 H -0.527360 -3.309288 -1.309148 0
M  V30 70 H -1.390625 -1.438666 -3.464754 0
M  V30 71 H -0.505854 -3.043186 -3.528855 0
M  V30 72 H 2.792722 0.001102 -4.446622 0
M  V30 73 H 3.196076 0.492440 -6.760478 0
M  V30 74 H 1.538128 -0.215236 -8.419989 0
M  V30 75 H -0.567045 -1.442066 -7.777707 0
M  V30 76 H -0.867120 -1.889110 -5.401260 0
M  V30 77 H 2.344604 -0.258036 -2.522966 0
M  V30 78 H 1.840581 -1.858185 -1.777413 0
M  V30 79 H -0.138400 0.389351 -1.858874 0
M  V30 80 H 1.089859 0.420121 -0.563894 0
M  V30 81 H -4.930294 -4.922210 3.173017 0
M  V30 82 H -6.914223 -5.571251 1.868457 0
M  V30 83 H -7.581249 -4.275564 -0.203702 0
M  V30 84 H -7.103112 -2.446829 -1.685144 0
M  V30 85 H -3.844708 0.095296 -1.122909 0
M  V30 86 H -3.214204 -1.137299 0.826849 0
M  V30 END ATOM
M  V30 BEGIN BOND
M  V30 1 1 1 2
M  V30 2 1 2 3
M  V30 3 1 3 4
M  V30 4 1 4 5
M  V30 5 2 5 6
M  V30 6 1 6 7
M  V30 7 2 7 8
M  V30 8 1 8 9
M  V30 9 1 9 10
M  V30 10 2 10 11
M  V30 11 2 10 12
M  V30 12 1 10 13
M  V30 13 2 13 14
M  V30 14 1 14 15
M  V30 15 2 15 16
M  V30 16 1 16 17
M  V30 17 2 17 18
M  V30 18 1 18 19
M  V30 19 2 19 20
M  V30 20 1 20 21
M  V30 21 2 21 22
M  V30 22 1 8 23
M  V30 23 2 23 24
M  V30 24 1 3 25
M  V30 25 2 25 26
M  V30 26 1 25 27
M  V30 27 1 27 28
M  V30 28 1 28 29
M  V30 29 1 29 30
M  V30 30 1 30 31
M  V30 31 2 31 32
M  V30 32 1 32 33
M  V30 33 2 33 34
M  V30 34 1 34 35
M  V30 35 2 35 36
M  V30 36 1 30 37
M  V30 37 1 37 38
M  V30 38 1 2 39
M  V30 39 2 39 40
M  V30 40 2 39 41
M  V30 41 1 39 42
M  V30 42 2 42 43
M  V30 43 1 43 44
M  V30 44 2 44 45
M  V30 45 1 45 46
M  V30 46 2 46 47
M  V30 47 1 47 48
M  V30 48 2 48 49
M  V30 49 1 49 50
M  V30 50 2 50 51
M  V30 51 1 24 5
M  V30 52 1 38 27
M  V30 53 1 51 42
M  V30 54 1 22 13
M  V30 55 1 36 31
M  V30 56 1 51 46
M  V30 57 1 22 17
M  V30 58 1 1 52
M  V30 59 1 1 53
M  V30 60 1 1 54
M  V30 61 1 3 55 CFG=1
M  V30 62 1 4 56
M  V30 63 1 4 57
M  V30 64 1 6 58
M  V30 65 1 7 59
M  V30 66 1 14 60
M  V30 67 1 15 61
M  V30 68 1 16 62
M  V30 69 1 18 63
M  V30 70 1 20 64
M  V30 71 1 21 65
M  V30 72 1 23 66
M  V30 73 1 24 67
M  V30 74 1 28 68
M  V30 75 1 28 69
M  V30 76 1 29 70
M  V30 77 1 29 71
M  V30 78 1 32 72
M  V30 79 1 33 73
M  V30 80 1 34 74
M  V30 81 1 35 75
M  V30 82 1 36 76
M  V30 83 1 37 77
M  V30 84 1 37 78
M  V30 85 1 38 79
M  V30 86 1 38 80
M  V30 87 1 43 81
M  V30 88 1 44 82
M  V30 89 1 45 83
M  V30 90 1 47 84
M  V30 91 1 49 85
M  V30 92 1 50 86
M  V30 END BOND
M  V30 END CTAB
M  END
>  <Dataset>  (82) 
ChEMBL_Kinases

>  <Ligand_Instance>  (82) 
nan

>  <PDB_ID>  (82) 
nan

>  <Standardized_SMILES>  (82) 
CN([C@@H](Cc1ccc(OS(=O)(=O)c2cccc3cnccc23)cc1)C(=O)N1CCN(c2ccccc2)CC1)S(=O)(=O)c1cccc2cnccc12

>  <Name>  (82) 
nan

>  <Pocket>  (82) 
nan

>  <ATP_Site>  (82) 
nan

>  <Peripheral>  (82) 
nan

>  <Num_H_Atoms_ProtBoundConf>  (82) 
nan

>  <Num_Resolved_Atoms>  (82) 
nan

>  <Num_Not_Resolved_Atoms>  (82) 
nan

$$$$
CHEMBL4292830
     RDKit          3D

  0  0  0  0  0  0  0  0  0  0999 V3000
M  V30 BEGIN CTAB
M  V30 COUNTS 54 57 0 0 0
M  V30 BEGIN ATOM
M  V30 1 C 0.918826 -0.774453 4.077631 0
M  V30 2 C 1.791958 -1.611452 3.161123 0
M  V30 3 C 1.547251 -3.065126 3.326199 0
M  V30 4 C 1.616260 -1.076992 1.804301 0
M  V30 5 C 2.420227 -0.084194 1.306547 0
M  V30 6 C 2.132132 0.314920 0.017878 0
M  V30 7 N 2.954406 1.360595 -0.545882 0
M  V30 8 S 3.337710 2.763550 0.404198 0
M  V30 9 O 4.161430 3.709559 -0.428528 0
M  V30 10 O 4.149068 2.415912 1.595802 0
M  V30 11 C 1.859299 3.593969 0.814125 0
M  V30 12 C 1.298825 3.168258 2.015791 0
M  V30 13 C 0.109181 3.794079 2.406641 0
M  V30 14 C -0.525832 4.784055 1.688383 0
M  V30 15 C 0.067172 5.175334 0.500303 0
M  V30 16 C 1.238551 4.583183 0.081825 0
M  V30 17 C 1.136865 -0.179652 -0.793416 0
M  V30 18 C 0.329366 -1.177056 -0.293171 0
M  V30 19 C -0.710500 -1.815520 -0.903734 0
M  V30 20 C -1.198019 -1.571952 -2.247334 0
M  V30 21 N -0.703839 -0.633762 -3.182048 0
M  V30 22 O -2.152940 -2.188374 -2.760057 0
M  V30 23 C -1.405912 -2.776179 -0.274300 0
M  V30 24 N -2.495734 -3.648922 -0.515451 0
M  V30 25 C -2.308835 -4.961625 -1.083339 0
M  V30 26 O -1.302633 -5.613062 -1.468301 0
M  V30 27 C -3.450726 -5.858708 -1.327846 0
M  V30 28 C -4.726323 -5.703961 -0.590839 0
M  V30 29 C -4.683986 -5.199468 -1.967016 0
M  V30 30 S -0.623889 -2.901853 1.362603 0
M  V30 31 C 0.609726 -1.584107 0.997244 0
M  V30 32 H 0.493900 0.121128 3.561369 0
M  V30 33 H 0.031992 -1.360916 4.444679 0
M  V30 34 H 1.499220 -0.345284 4.931569 0
M  V30 35 H 2.848506 -1.393945 3.457377 0
M  V30 36 H 1.971902 -3.622829 2.481809 0
M  V30 37 H 2.160283 -3.405743 4.213331 0
M  V30 38 H 0.516786 -3.348285 3.595190 0
M  V30 39 H 3.196369 0.311352 1.919936 0
M  V30 40 H 3.324307 1.278031 -1.531035 0
M  V30 41 H 1.711614 2.402324 2.656031 0
M  V30 42 H -0.359446 3.485276 3.345904 0
M  V30 43 H -1.437386 5.222898 2.045071 0
M  V30 44 H -0.389494 5.955563 -0.113560 0
M  V30 45 H 1.730898 4.857644 -0.834301 0
M  V30 46 H 1.007840 0.214662 -1.790185 0
M  V30 47 H -0.610186 0.309165 -3.561228 0
M  V30 48 H -0.660387 0.356139 -3.503569 0
M  V30 49 H -3.483465 -3.410440 -0.304814 0
M  V30 50 H -3.162440 -6.831307 -1.767559 0
M  V30 51 H -4.753559 -4.991344 0.243080 0
M  V30 52 H -5.262359 -6.675524 -0.414367 0
M  V30 53 H -5.203515 -5.787419 -2.758905 0
M  V30 54 H -4.669505 -4.101595 -2.086457 0
M  V30 END ATOM
M  V30 BEGIN BOND
M  V30 1 1 1 2
M  V30 2 1 2 3
M  V30 3 1 2 4
M  V30 4 2 4 5
M  V30 5 1 5 6
M  V30 6 1 6 7
M  V30 7 1 7 8
M  V30 8 2 8 9
M  V30 9 2 8 10
M  V30 10 1 8 11
M  V30 11 2 11 12
M  V30 12 1 12 13
M  V30 13 2 13 14
M  V30 14 1 14 15
M  V30 15 2 15 16
M  V30 16 2 6 17
M  V30 17 1 17 18
M  V30 18 1 18 19
M  V30 19 1 19 20
M  V30 20 1 20 21
M  V30 21 2 20 22
M  V30 22 2 19 23
M  V30 23 1 23 24
M  V30 24 1 24 25
M  V30 25 2 25 26
M  V30 26 1 25 27
M  V30 27 1 27 28
M  V30 28 1 28 29
M  V30 29 1 23 30
M  V30 30 1 30 31
M  V30 31 1 31 4
M  V30 32 1 16 11
M  V30 33 2 31 18
M  V30 34 1 29 27
M  V30 35 1 1 32
M  V30 36 1 1 33
M  V30 37 1 1 34
M  V30 38 1 2 35
M  V30 39 1 3 36
M  V30 40 1 3 37
M  V30 41 1 3 38
M  V30 42 1 5 39
M  V30 43 1 7 40
M  V30 44 1 12 41
M  V30 45 1 13 42
M  V30 46 1 14 43
M  V30 47 1 15 44
M  V30 48 1 16 45
M  V30 49 1 17 46
M  V30 50 1 21 47
M  V30 51 1 21 48
M  V30 52 1 24 49
M  V30 53 1 27 50
M  V30 54 1 28 51
M  V30 55 1 28 52
M  V30 56 1 29 53
M  V30 57 1 29 54
M  V30 END BOND
M  V30 END CTAB
M  END
>  <Dataset>  (83) 
ChEMBL_Kinases

>  <Ligand_Instance>  (83) 
nan

>  <PDB_ID>  (83) 
nan

>  <Standardized_SMILES>  (83) 
CC(C)c1cc(NS(=O)(=O)c2ccccc2)cc2c(C(N)=O)c(NC(=O)C3CC3)sc12

>  <Name>  (83) 
nan

>  <Pocket>  (83) 
nan

>  <ATP_Site>  (83) 
nan

>  <Peripheral>  (83) 
nan

>  <Num_H_Atoms_ProtBoundConf>  (83) 
nan

>  <Num_Resolved_Atoms>  (83) 
nan

>  <Num_Not_Resolved_Atoms>  (83) 
nan

$$$$
CHEMBL4292755
     RDKit          3D

  0  0  0  0  0  0  0  0  0  0999 V3000
M  V30 BEGIN CTAB
M  V30 COUNTS 55 59 0 0 0
M  V30 BEGIN ATOM
M  V30 1 C 0.569585 1.339396 5.684376 0
M  V30 2 C 1.544015 0.536868 4.897787 0
M  V30 3 C 1.639502 0.337355 3.531533 0
M  V30 4 C 2.710074 -0.488751 3.256427 0
M  V30 5 N 3.158602 -0.944660 1.967200 0
M  V30 6 C 2.367438 -0.456756 0.886030 0
M  V30 7 N 2.645104 0.711161 0.258001 0
M  V30 8 C 1.924216 1.187001 -0.751507 0
M  V30 9 C 2.297913 2.455637 -1.368136 0
M  V30 10 C 1.595029 3.004373 -2.417290 0
M  V30 11 C 2.000111 4.220172 -2.965647 0
M  V30 12 C 3.100418 4.885233 -2.470267 0
M  V30 13 C 3.790676 4.309420 -1.412157 0
M  V30 14 C 3.404196 3.105671 -0.856036 0
M  V30 15 N 0.867753 0.460889 -1.159705 0
M  V30 16 C 0.506148 -0.706583 -0.607870 0
M  V30 17 C -0.580885 -1.439415 -1.039279 0
M  V30 18 C -0.965770 -2.633062 -0.489364 0
M  V30 19 N -2.077329 -3.374014 -0.934192 0
M  V30 20 C -3.003423 -3.014691 -1.967376 0
M  V30 21 C -4.443234 -3.080050 -1.593945 0
M  V30 22 N -4.672673 -3.516423 -0.237053 0
M  V30 23 C -4.677061 -2.480935 0.741774 0
M  V30 24 C -3.900750 -4.684261 0.106818 0
M  V30 25 C -2.498215 -4.640911 -0.438290 0
M  V30 26 C -0.183800 -3.072520 0.548055 0
M  V30 27 C 0.909970 -2.376423 1.013137 0
M  V30 28 C 1.278973 -1.178360 0.445519 0
M  V30 29 N 3.245304 -0.774383 4.477124 0
M  V30 30 N 2.564937 -0.176444 5.429793 0
M  V30 31 H 0.096361 2.133397 5.066832 0
M  V30 32 H -0.220560 0.718182 6.139598 0
M  V30 33 H 1.112192 1.838601 6.487901 0
M  V30 34 H 0.962247 0.778117 2.834126 0
M  V30 35 H 3.991817 -1.567508 1.950119 0
M  V30 36 H 0.730830 2.498436 -2.818801 0
M  V30 37 H 1.490218 4.697267 -3.786281 0
M  V30 38 H 3.492977 5.828875 -2.825027 0
M  V30 39 H 4.652198 4.781313 -0.987515 0
M  V30 40 H 3.965984 2.688233 -0.033317 0
M  V30 41 H -1.097754 -0.989625 -1.845929 0
M  V30 42 H -2.858938 -3.618490 -2.898699 0
M  V30 43 H -2.802232 -1.953695 -2.296781 0
M  V30 44 H -4.981112 -3.797263 -2.245215 0
M  V30 45 H -4.964793 -2.092522 -1.679873 0
M  V30 46 H -5.669317 -2.417134 1.277595 0
M  V30 47 H -3.917122 -2.755925 1.525423 0
M  V30 48 H -4.476145 -1.463665 0.367225 0
M  V30 49 H -3.934616 -4.788666 1.211508 0
M  V30 50 H -4.447643 -5.558365 -0.310185 0
M  V30 51 H -1.857333 -5.087356 0.350342 0
M  V30 52 H -2.424384 -5.383522 -1.288343 0
M  V30 53 H -0.346232 -3.986092 1.089179 0
M  V30 54 H 1.539403 -2.707805 1.831451 0
M  V30 55 H 2.792212 -0.250260 6.456455 0
M  V30 END ATOM
M  V30 BEGIN BOND
M  V30 1 1 1 2
M  V30 2 2 2 3
M  V30 3 1 3 4
M  V30 4 1 4 5
M  V30 5 1 5 6
M  V30 6 2 6 7
M  V30 7 1 7 8
M  V30 8 1 8 9
M  V30 9 2 9 10
M  V30 10 1 10 11
M  V30 11 2 11 12
M  V30 12 1 12 13
M  V30 13 2 13 14
M  V30 14 2 8 15
M  V30 15 1 15 16
M  V30 16 2 16 17
M  V30 17 1 17 18
M  V30 18 1 18 19
M  V30 19 1 19 20
M  V30 20 1 20 21
M  V30 21 1 21 22
M  V30 22 1 22 23
M  V30 23 1 22 24
M  V30 24 1 24 25
M  V30 25 2 18 26
M  V30 26 1 26 27
M  V30 27 2 27 28
M  V30 28 2 4 29
M  V30 29 1 29 30
M  V30 30 1 30 2
M  V30 31 1 28 6
M  V30 32 1 14 9
M  V30 33 1 28 16
M  V30 34 1 25 19
M  V30 35 1 1 31
M  V30 36 1 1 32
M  V30 37 1 1 33
M  V30 38 1 3 34
M  V30 39 1 5 35
M  V30 40 1 10 36
M  V30 41 1 11 37
M  V30 42 1 12 38
M  V30 43 1 13 39
M  V30 44 1 14 40
M  V30 45 1 17 41
M  V30 46 1 20 42
M  V30 47 1 20 43
M  V30 48 1 21 44
M  V30 49 1 21 45
M  V30 50 1 23 46
M  V30 51 1 23 47
M  V30 52 1 23 48
M  V30 53 1 24 49
M  V30 54 1 24 50
M  V30 55 1 25 51
M  V30 56 1 25 52
M  V30 57 1 26 53
M  V30 58 1 27 54
M  V30 59 1 30 55
M  V30 END BOND
M  V30 END CTAB
M  END
>  <Dataset>  (84) 
ChEMBL_Kinases

>  <Ligand_Instance>  (84) 
nan

>  <PDB_ID>  (84) 
nan

>  <Standardized_SMILES>  (84) 
Cc1cc(Nc2nc(-c3ccccc3)nc3cc(N4CCN(C)CC4)ccc23)n[nH]1

>  <Name>  (84) 
nan

>  <Pocket>  (84) 
nan

>  <ATP_Site>  (84) 
nan

>  <Peripheral>  (84) 
nan

>  <Num_H_Atoms_ProtBoundConf>  (84) 
nan

>  <Num_Resolved_Atoms>  (84) 
nan

>  <Num_Not_Resolved_Atoms>  (84) 
nan

$$$$
CHEMBL3685295
     RDKit          3D

  0  0  0  0  0  0  0  0  0  0999 V3000
M  V30 BEGIN CTAB
M  V30 COUNTS 74 78 0 0 0
M  V30 BEGIN ATOM
M  V30 1 C 8.540928 -2.143082 5.042196 0
M  V30 2 O 8.374820 -0.800629 4.715313 0
M  V30 3 C 7.281458 -0.274018 4.043075 0
M  V30 4 C 6.237133 -1.046395 3.629558 0
M  V30 5 C 5.175561 -0.470059 2.964709 0
M  V30 6 C 5.094361 0.876573 2.679850 0
M  V30 7 C 3.991067 1.525944 1.978032 0
M  V30 8 O 4.074754 2.763997 1.781340 0
M  V30 9 N 2.844950 0.871824 1.506559 0
M  V30 10 C 1.721841 1.383722 0.818479 0
M  V30 11 C 1.507117 2.683348 0.426321 0
M  V30 12 C 0.398047 3.149116 -0.244916 0
M  V30 13 C -0.573394 2.204735 -0.539908 0
M  V30 14 C -0.436311 0.895257 -0.184475 0
M  V30 15 C -1.454952 -0.150619 -0.453419 0 CFG=1
M  V30 16 C -2.813822 0.339681 -0.765771 0
M  V30 17 C -3.346720 1.109600 0.432702 0
M  V30 18 N -4.666280 1.634003 0.191931 0
M  V30 19 C -5.673069 0.615053 0.092097 0
M  V30 20 C -5.763134 -0.251399 1.321001 0
M  V30 21 C -5.817793 0.527006 2.594837 0
M  V30 22 C -4.962074 1.755942 2.620500 0
M  V30 23 C -5.008933 2.499277 1.303993 0
M  V30 24 N -0.970548 -1.063096 -1.461066 0
M  V30 25 C -1.624759 -2.237865 -1.923925 0
M  V30 26 N -2.805119 -2.621721 -1.426150 0
M  V30 27 C -3.400214 -3.724576 -1.860324 0
M  V30 28 N -2.862569 -4.512865 -2.812721 0
M  V30 29 C -1.667790 -4.180142 -3.358883 0
M  V30 30 C -1.120716 -4.985416 -4.328797 0
M  V30 31 C -1.806605 -6.189803 -4.777615 0
M  V30 32 N -1.251238 -7.033902 -5.775036 0
M  V30 33 O -2.930686 -6.425604 -4.213308 0
M  V30 34 C 0.093520 -4.667999 -4.897627 0
M  V30 35 C 0.751068 -3.510164 -4.463891 0
M  V30 36 C 0.137403 -2.757155 -3.488999 0
M  V30 37 C -1.070465 -3.039652 -2.897923 0
M  V30 38 C 0.699066 0.529720 0.478302 0
M  V30 39 C 6.173444 1.609462 3.118904 0
M  V30 40 C 7.257825 1.081398 3.787153 0
M  V30 41 H 9.651979 -2.343338 5.036634 0
M  V30 42 H 8.142520 -2.845122 4.264884 0
M  V30 43 H 8.177763 -2.447616 6.029845 0
M  V30 44 H 6.218417 -2.128645 3.814660 0
M  V30 45 H 4.372627 -1.121111 2.656250 0
M  V30 46 H 2.877898 -0.147777 1.723908 0
M  V30 47 H 2.248498 3.426004 0.646101 0
M  V30 48 H 0.293913 4.179801 -0.521586 0
M  V30 49 H -1.442400 2.574778 -1.091933 0
M  V30 50 H -1.484267 -0.728285 0.552586 0
M  V30 51 H -3.531986 -0.489363 -0.907316 0
M  V30 52 H -2.880965 0.938916 -1.696636 0
M  V30 53 H -3.425912 0.322098 1.245791 0
M  V30 54 H -2.659605 1.885288 0.709107 0
M  V30 55 H -5.584164 -0.028609 -0.783646 0
M  V30 56 H -6.661955 1.149658 0.013127 0
M  V30 57 H -6.752290 -0.789396 1.231836 0
M  V30 58 H -5.015334 -1.068064 1.322324 0
M  V30 59 H -5.505708 -0.140740 3.442279 0
M  V30 60 H -6.879295 0.807260 2.836339 0
M  V30 61 H -5.385315 2.458761 3.376756 0
M  V30 62 H -3.918164 1.576958 2.965562 0
M  V30 63 H -6.049247 2.880625 1.202162 0
M  V30 64 H -4.281848 3.323956 1.376095 0
M  V30 65 H -0.052960 -0.794008 -1.857102 0
M  V30 66 H -4.348353 -4.073837 -1.491121 0
M  V30 67 H -1.125349 -6.797423 -6.784572 0
M  V30 68 H -1.132392 -6.785720 -6.773814 0
M  V30 69 H 0.541089 -5.288465 -5.662358 0
M  V30 70 H 1.700744 -3.276841 -4.920055 0
M  V30 71 H 0.716321 -1.895412 -3.226313 0
M  V30 72 H 0.803779 -0.528534 0.761546 0
M  V30 73 H 6.208468 2.687315 2.943925 0
M  V30 74 H 8.072531 1.722184 4.104104 0
M  V30 END ATOM
M  V30 BEGIN BOND
M  V30 1 1 1 2
M  V30 2 1 2 3
M  V30 3 2 3 4
M  V30 4 1 4 5
M  V30 5 2 5 6
M  V30 6 1 6 7
M  V30 7 2 7 8
M  V30 8 1 7 9
M  V30 9 1 9 10
M  V30 10 2 10 11
M  V30 11 1 11 12
M  V30 12 2 12 13
M  V30 13 1 13 14
M  V30 14 1 14 15
M  V30 15 1 15 16
M  V30 16 1 16 17
M  V30 17 1 17 18
M  V30 18 1 18 19
M  V30 19 1 19 20
M  V30 20 1 20 21
M  V30 21 1 21 22
M  V30 22 1 22 23
M  V30 23 1 15 24
M  V30 24 1 24 25
M  V30 25 2 25 26
M  V30 26 1 26 27
M  V30 27 2 27 28
M  V30 28 1 28 29
M  V30 29 2 29 30
M  V30 30 1 30 31
M  V30 31 1 31 32
M  V30 32 2 31 33
M  V30 33 1 30 34
M  V30 34 2 34 35
M  V30 35 1 35 36
M  V30 36 2 36 37
M  V30 37 2 14 38
M  V30 38 1 6 39
M  V30 39 2 39 40
M  V30 40 1 40 3
M  V30 41 1 38 10
M  V30 42 1 23 18
M  V30 43 1 37 25
M  V30 44 1 37 29
M  V30 45 1 1 41
M  V30 46 1 1 42
M  V30 47 1 1 43
M  V30 48 1 4 44
M  V30 49 1 5 45
M  V30 50 1 9 46
M  V30 51 1 11 47
M  V30 52 1 12 48
M  V30 53 1 13 49
M  V30 54 1 15 50 CFG=1
M  V30 55 1 16 51
M  V30 56 1 16 52
M  V30 57 1 17 53
M  V30 58 1 17 54
M  V30 59 1 19 55
M  V30 60 1 19 56
M  V30 61 1 20 57
M  V30 62 1 20 58
M  V30 63 1 21 59
M  V30 64 1 21 60
M  V30 65 1 22 61
M  V30 66 1 22 62
M  V30 67 1 23 63
M  V30 68 1 23 64
M  V30 69 1 24 65
M  V30 70 1 27 66
M  V30 71 1 32 67
M  V30 72 1 32 68
M  V30 73 1 34 69
M  V30 74 1 35 70
M  V30 75 1 36 71
M  V30 76 1 38 72
M  V30 77 1 39 73
M  V30 78 1 40 74
M  V30 END BOND
M  V30 END CTAB
M  END
>  <Dataset>  (85) 
ChEMBL_Kinases

>  <Ligand_Instance>  (85) 
nan

>  <PDB_ID>  (85) 
nan

>  <Standardized_SMILES>  (85) 
COc1ccc(C(=O)Nc2cccc([C@@H](CCN3CCCCC3)Nc3ncnc4c(C(N)=O)cccc34)c2)cc1

>  <Name>  (85) 
nan

>  <Pocket>  (85) 
nan

>  <ATP_Site>  (85) 
nan

>  <Peripheral>  (85) 
nan

>  <Num_H_Atoms_ProtBoundConf>  (85) 
nan

>  <Num_Resolved_Atoms>  (85) 
nan

>  <Num_Not_Resolved_Atoms>  (85) 
nan

$$$$
CHEMBL2177166
     RDKit          3D

  0  0  0  0  0  0  0  0  0  0999 V3000
M  V30 BEGIN CTAB
M  V30 COUNTS 54 56 0 0 0
M  V30 BEGIN ATOM
M  V30 1 C 5.204138 -0.796179 3.987695 0
M  V30 2 N 4.529951 -0.475835 2.766371 0
M  V30 3 C 5.063236 -1.313971 1.711394 0
M  V30 4 C 4.738146 0.921822 2.357759 0
M  V30 5 C 3.982256 1.096944 1.085326 0
M  V30 6 N 4.037602 2.389076 0.493498 0
M  V30 7 S 3.143498 2.513367 -0.968157 0
M  V30 8 O 3.732823 1.557558 -1.957185 0
M  V30 9 O 3.323727 3.887719 -1.544049 0
M  V30 10 C 1.458798 2.201298 -0.670162 0
M  V30 11 C 0.539929 3.175840 -0.338728 0
M  V30 12 C -0.762179 2.770086 -0.132731 0
M  V30 13 C -1.177342 1.459597 -0.241355 0
M  V30 14 C -2.551834 1.015515 -0.026210 0
M  V30 15 C -3.580461 1.861703 0.308740 0
M  V30 16 N -4.844488 1.442779 0.505046 0
M  V30 17 C -5.157322 0.139199 0.376538 0
M  V30 18 N -6.483266 -0.288179 0.584235 0
M  V30 19 C -4.158381 -0.725961 0.044854 0
M  V30 20 C -4.446845 -2.147549 -0.106066 0
M  V30 21 O -5.640405 -2.513159 0.083658 0
M  V30 22 N -3.430745 -3.052415 -0.447067 0
M  V30 23 C -3.485140 -4.458113 -0.643425 0
M  V30 24 C -3.252891 -5.188834 0.521215 0
M  V30 25 C -3.290355 -6.583020 0.406579 0
M  V30 26 C -3.542209 -7.191542 -0.788522 0
M  V30 27 N -3.765339 -6.453566 -1.909163 0
M  V30 28 C -3.738537 -5.092206 -1.844784 0
M  V30 29 N -2.901794 -0.275474 -0.145274 0
M  V30 30 C -0.231774 0.511222 -0.574378 0
M  V30 31 C 1.088241 0.878127 -0.789760 0
M  V30 32 H 4.550062 -0.737272 4.875789 0
M  V30 33 H 5.593696 -1.824277 3.920222 0
M  V30 34 H 6.100312 -0.125054 4.084709 0
M  V30 35 H 5.511156 -2.263124 2.103848 0
M  V30 36 H 4.226880 -1.601235 1.015147 0
M  V30 37 H 5.889539 -0.811037 1.153765 0
M  V30 38 H 5.827380 1.042476 2.257837 0
M  V30 39 H 4.381463 1.535892 3.191728 0
M  V30 40 H 4.366212 0.333414 0.369791 0
M  V30 41 H 2.909330 0.859372 1.306351 0
M  V30 42 H 4.945299 2.855534 0.477643 0
M  V30 43 H 0.868243 4.187791 -0.256431 0
M  V30 44 H -1.483336 3.529424 0.126573 0
M  V30 45 H -3.397158 2.912973 0.426462 0
M  V30 46 H -6.738487 -0.108573 1.577284 0
M  V30 47 H -7.141047 -0.717555 -0.103831 0
M  V30 48 H -2.468878 -2.716593 -0.593880 0
M  V30 49 H -3.048356 -4.738747 1.493916 0
M  V30 50 H -3.123010 -7.246682 1.252397 0
M  V30 51 H -3.591260 -8.254242 -0.975593 0
M  V30 52 H -3.905611 -4.433544 -2.688946 0
M  V30 53 H -0.547193 -0.534752 -0.664326 0
M  V30 54 H 1.764685 0.066506 -1.047647 0
M  V30 END ATOM
M  V30 BEGIN BOND
M  V30 1 1 1 2
M  V30 2 1 2 3
M  V30 3 1 2 4
M  V30 4 1 4 5
M  V30 5 1 5 6
M  V30 6 1 6 7
M  V30 7 2 7 8
M  V30 8 2 7 9
M  V30 9 1 7 10
M  V30 10 2 10 11
M  V30 11 1 11 12
M  V30 12 2 12 13
M  V30 13 1 13 14
M  V30 14 2 14 15
M  V30 15 1 15 16
M  V30 16 2 16 17
M  V30 17 1 17 18
M  V30 18 1 17 19
M  V30 19 1 19 20
M  V30 20 2 20 21
M  V30 21 1 20 22
M  V30 22 1 22 23
M  V30 23 2 23 24
M  V30 24 1 24 25
M  V30 25 2 25 26
M  V30 26 1 26 27
M  V30 27 2 27 28
M  V30 28 2 19 29
M  V30 29 1 13 30
M  V30 30 2 30 31
M  V30 31 1 31 10
M  V30 32 1 29 14
M  V30 33 1 28 23
M  V30 34 1 1 32
M  V30 35 1 1 33
M  V30 36 1 1 34
M  V30 37 1 3 35
M  V30 38 1 3 36
M  V30 39 1 3 37
M  V30 40 1 4 38
M  V30 41 1 4 39
M  V30 42 1 5 40
M  V30 43 1 5 41
M  V30 44 1 6 42
M  V30 45 1 11 43
M  V30 46 1 12 44
M  V30 47 1 15 45
M  V30 48 1 18 46
M  V30 49 1 18 47
M  V30 50 1 22 48
M  V30 51 1 24 49
M  V30 52 1 25 50
M  V30 53 1 26 51
M  V30 54 1 28 52
M  V30 55 1 30 53
M  V30 56 1 31 54
M  V30 END BOND
M  V30 END CTAB
M  END
>  <Dataset>  (86) 
ChEMBL_Kinases

>  <Ligand_Instance>  (86) 
nan

>  <PDB_ID>  (86) 
nan

>  <Standardized_SMILES>  (86) 
CN(C)CCNS(=O)(=O)c1ccc(-c2cnc(N)c(C(=O)Nc3cccnc3)n2)cc1

>  <Name>  (86) 
nan

>  <Pocket>  (86) 
nan

>  <ATP_Site>  (86) 
nan

>  <Peripheral>  (86) 
nan

>  <Num_H_Atoms_ProtBoundConf>  (86) 
nan

>  <Num_Resolved_Atoms>  (86) 
nan

>  <Num_Not_Resolved_Atoms>  (86) 
nan

$$$$
CHEMBL2177165
     RDKit          3D

  0  0  0  0  0  0  0  0  0  0999 V3000
M  V30 BEGIN CTAB
M  V30 COUNTS 51 54 0 0 0
M  V30 BEGIN ATOM
M  V30 1 N -2.850943 -4.415672 4.218533 0
M  V30 2 C -1.860740 -3.600229 3.603614 0
M  V30 3 N -0.853320 -3.113067 4.385251 0
M  V30 4 C 0.097001 -2.336983 3.821930 0
M  V30 5 C 0.116676 -1.998496 2.485423 0
M  V30 6 C 1.151052 -1.158744 1.892566 0
M  V30 7 C 2.212646 -0.612763 2.582082 0
M  V30 8 C 3.139153 0.170901 1.921458 0
M  V30 9 C 3.052159 0.442996 0.562790 0
M  V30 10 S 4.264312 1.434866 -0.164543 0
M  V30 11 O 5.633045 1.220448 0.396487 0
M  V30 12 O 4.350425 1.037884 -1.631098 0
M  V30 13 N 3.878306 3.121118 -0.139371 0
M  V30 14 C 2.673908 3.396686 -0.876678 0
M  V30 15 C 1.916120 4.553548 -0.278892 0
M  V30 16 O 2.749845 5.565358 0.168775 0
M  V30 17 C 3.643778 5.129096 1.144050 0
M  V30 18 C 3.776486 3.632212 1.200365 0
M  V30 19 C 1.993346 -0.099223 -0.134468 0
M  V30 20 C 1.076471 -0.880579 0.543278 0
M  V30 21 N -0.892843 -2.496671 1.743254 0
M  V30 22 C -1.859944 -3.273551 2.263476 0
M  V30 23 C -2.924953 -3.782123 1.410325 0
M  V30 24 O -3.790393 -4.499785 1.967474 0
M  V30 25 N -3.034960 -3.522558 0.040083 0
M  V30 26 C -4.003483 -3.944475 -0.902664 0
M  V30 27 C -3.894554 -3.551488 -2.215721 0
M  V30 28 C -4.818355 -3.943243 -3.159057 0
M  V30 29 C -5.900015 -4.743707 -2.859974 0
M  V30 30 N -5.992735 -5.119718 -1.571851 0
M  V30 31 C -5.093812 -4.740116 -0.647338 0
M  V30 32 H -3.613791 -3.749283 4.486520 0
M  V30 33 H -2.596336 -5.432167 4.255288 0
M  V30 34 H 0.866912 -1.980976 4.486281 0
M  V30 35 H 2.296939 -0.812486 3.635813 0
M  V30 36 H 3.957724 0.575044 2.522346 0
M  V30 37 H 2.931695 3.618086 -1.943929 0
M  V30 38 H 2.010939 2.497440 -0.817479 0
M  V30 39 H 1.304669 4.996989 -1.097441 0
M  V30 40 H 1.169423 4.238012 0.495261 0
M  V30 41 H 3.311862 5.560661 2.102734 0
M  V30 42 H 4.625119 5.591397 0.904522 0
M  V30 43 H 2.946112 3.155836 1.745469 0
M  V30 44 H 4.707169 3.423967 1.766670 0
M  V30 45 H 1.902583 0.100513 -1.206181 0
M  V30 46 H 0.272708 -1.267077 -0.089221 0
M  V30 47 H -2.252470 -2.913169 -0.301299 0
M  V30 48 H -3.053876 -2.915382 -2.505533 0
M  V30 49 H -4.652660 -3.587160 -4.163720 0
M  V30 50 H -6.571007 -4.998349 -3.667974 0
M  V30 51 H -5.269693 -5.100529 0.346973 0
M  V30 END ATOM
M  V30 BEGIN BOND
M  V30 1 1 1 2
M  V30 2 2 2 3
M  V30 3 1 3 4
M  V30 4 2 4 5
M  V30 5 1 5 6
M  V30 6 2 6 7
M  V30 7 1 7 8
M  V30 8 2 8 9
M  V30 9 1 9 10
M  V30 10 2 10 11
M  V30 11 2 10 12
M  V30 12 1 10 13
M  V30 13 1 13 14
M  V30 14 1 14 15
M  V30 15 1 15 16
M  V30 16 1 16 17
M  V30 17 1 17 18
M  V30 18 1 9 19
M  V30 19 2 19 20
M  V30 20 1 5 21
M  V30 21 2 21 22
M  V30 22 1 22 23
M  V30 23 2 23 24
M  V30 24 1 23 25
M  V30 25 1 25 26
M  V30 26 2 26 27
M  V30 27 1 27 28
M  V30 28 2 28 29
M  V30 29 1 29 30
M  V30 30 2 30 31
M  V30 31 1 22 2
M  V30 32 1 31 26
M  V30 33 1 20 6
M  V30 34 1 18 13
M  V30 35 1 1 32
M  V30 36 1 1 33
M  V30 37 1 4 34
M  V30 38 1 7 35
M  V30 39 1 8 36
M  V30 40 1 14 37
M  V30 41 1 14 38
M  V30 42 1 15 39
M  V30 43 1 15 40
M  V30 44 1 17 41
M  V30 45 1 17 42
M  V30 46 1 18 43
M  V30 47 1 18 44
M  V30 48 1 19 45
M  V30 49 1 20 46
M  V30 50 1 25 47
M  V30 51 1 27 48
M  V30 52 1 28 49
M  V30 53 1 29 50
M  V30 54 1 31 51
M  V30 END BOND
M  V30 END CTAB
M  END
>  <Dataset>  (87) 
ChEMBL_Kinases

>  <Ligand_Instance>  (87) 
nan

>  <PDB_ID>  (87) 
nan

>  <Standardized_SMILES>  (87) 
Nc1ncc(-c2ccc(S(=O)(=O)N3CCOCC3)cc2)nc1C(=O)Nc1cccnc1

>  <Name>  (87) 
nan

>  <Pocket>  (87) 
nan

>  <ATP_Site>  (87) 
nan

>  <Peripheral>  (87) 
nan

>  <Num_H_Atoms_ProtBoundConf>  (87) 
nan

>  <Num_Resolved_Atoms>  (87) 
nan

>  <Num_Not_Resolved_Atoms>  (87) 
nan

$$$$
CHEMBL3685299
     RDKit          3D

  0  0  0  0  0  0  0  0  0  0999 V3000
M  V30 BEGIN CTAB
M  V30 COUNTS 61 64 0 0 0
M  V30 BEGIN ATOM
M  V30 1 C 4.592208 -1.580569 2.793787 0
M  V30 2 C 3.928757 -1.626522 1.438092 0
M  V30 3 C 2.467904 -1.182579 1.567715 0 CFG=1
M  V30 4 N 2.311622 0.106597 2.057158 0
M  V30 5 C 2.159780 1.422600 2.573908 0
M  V30 6 N 2.548454 1.900921 3.739752 0
M  V30 7 C 2.402743 3.133687 4.191562 0
M  V30 8 N 1.795910 3.997589 3.382589 0
M  V30 9 C 1.344728 3.669850 2.171903 0
M  V30 10 C 0.740464 4.644671 1.433407 0
M  V30 11 C 0.599948 5.962517 1.981030 0
M  V30 12 N 0.118571 7.036984 1.204022 0
M  V30 13 O 0.706997 6.746338 2.950961 0
M  V30 14 C 0.254663 4.371155 0.184670 0
M  V30 15 C 0.416535 3.076896 -0.257269 0
M  V30 16 C 1.033073 2.145434 0.531534 0
M  V30 17 C 1.544019 2.374991 1.804556 0
M  V30 18 C 1.868468 -1.487095 0.232930 0
M  V30 19 C 0.729920 -2.150910 0.102707 0
M  V30 20 C 0.051652 -2.500649 -1.149487 0
M  V30 21 N -1.181568 -3.222609 -1.094658 0
M  V30 22 C -2.006219 -3.609066 -2.209935 0
M  V30 23 O -1.563576 -3.260016 -3.316117 0
M  V30 24 C -3.167351 -4.328695 -1.629722 0
M  V30 25 C -4.156364 -3.507920 -1.134921 0
M  V30 26 C -5.243252 -4.164065 -0.550618 0
M  V30 27 C -5.256525 -5.559183 -0.506394 0
M  V30 28 O -6.284768 -6.331142 0.049337 0
M  V30 29 C -7.427847 -5.732731 0.627829 0
M  V30 30 C -4.216283 -6.336852 -1.027534 0
M  V30 31 F -4.207723 -7.692260 -0.991301 0
M  V30 32 C -3.108951 -5.703835 -1.624075 0
M  V30 33 C 0.724527 -2.060792 -2.168395 0
M  V30 34 C 1.978762 -1.311958 -2.264242 0
M  V30 35 C 2.644472 -1.003376 -0.947292 0
M  V30 36 H 5.495610 -2.259016 2.733013 0
M  V30 37 H 3.938584 -1.833742 3.633105 0
M  V30 38 H 5.031636 -0.579707 3.011364 0
M  V30 39 H 4.463115 -0.927636 0.724235 0
M  V30 40 H 4.012914 -2.645619 1.054848 0
M  V30 41 H 2.017880 -2.022775 2.218140 0
M  V30 42 H 2.813089 -0.287827 2.917546 0
M  V30 43 H 2.761909 3.409000 5.167555 0
M  V30 44 H -0.313740 7.887434 0.837800 0
M  V30 45 H 0.256888 7.152110 0.162276 0
M  V30 46 H -0.213253 5.170952 -0.352002 0
M  V30 47 H 0.034557 2.838894 -1.250485 0
M  V30 48 H 1.103912 1.166947 0.106813 0
M  V30 49 H 0.298508 -2.439059 1.077664 0
M  V30 50 H -1.466843 -3.467160 -0.099998 0
M  V30 51 H -4.146967 -2.430019 -1.172083 0
M  V30 52 H -6.094009 -3.658454 -0.126745 0
M  V30 53 H -7.730517 -4.850238 0.017951 0
M  V30 54 H -7.251107 -5.382123 1.676457 0
M  V30 55 H -8.260498 -6.457751 0.668060 0
M  V30 56 H -2.280288 -6.249025 -2.042220 0
M  V30 57 H 0.354843 -2.238334 -3.153265 0
M  V30 58 H 1.770527 -0.351273 -2.792541 0
M  V30 59 H 2.720920 -1.882528 -2.896808 0
M  V30 60 H 2.910563 0.068197 -0.894686 0
M  V30 61 H 3.600204 -1.629270 -0.938052 0
M  V30 END ATOM
M  V30 BEGIN BOND
M  V30 1 1 1 2
M  V30 2 1 2 3
M  V30 3 1 3 4
M  V30 4 1 4 5
M  V30 5 2 5 6
M  V30 6 1 6 7
M  V30 7 2 7 8
M  V30 8 1 8 9
M  V30 9 2 9 10
M  V30 10 1 10 11
M  V30 11 1 11 12
M  V30 12 2 11 13
M  V30 13 1 10 14
M  V30 14 2 14 15
M  V30 15 1 15 16
M  V30 16 2 16 17
M  V30 17 1 3 18
M  V30 18 2 18 19
M  V30 19 1 19 20
M  V30 20 1 20 21
M  V30 21 1 21 22
M  V30 22 2 22 23
M  V30 23 1 22 24
M  V30 24 2 24 25
M  V30 25 1 25 26
M  V30 26 2 26 27
M  V30 27 1 27 28
M  V30 28 1 28 29
M  V30 29 1 27 30
M  V30 30 1 30 31
M  V30 31 2 30 32
M  V30 32 2 20 33
M  V30 33 1 33 34
M  V30 34 1 34 35
M  V30 35 1 17 5
M  V30 36 1 35 18
M  V30 37 1 17 9
M  V30 38 1 32 24
M  V30 39 1 1 36
M  V30 40 1 1 37
M  V30 41 1 1 38
M  V30 42 1 2 39
M  V30 43 1 2 40
M  V30 44 1 3 41 CFG=1
M  V30 45 1 4 42
M  V30 46 1 7 43
M  V30 47 1 12 44
M  V30 48 1 12 45
M  V30 49 1 14 46
M  V30 50 1 15 47
M  V30 51 1 16 48
M  V30 52 1 19 49
M  V30 53 1 21 50
M  V30 54 1 25 51
M  V30 55 1 26 52
M  V30 56 1 29 53
M  V30 57 1 29 54
M  V30 58 1 29 55
M  V30 59 1 32 56
M  V30 60 1 33 57
M  V30 61 1 34 58
M  V30 62 1 34 59
M  V30 63 1 35 60
M  V30 64 1 35 61
M  V30 END BOND
M  V30 END CTAB
M  END
>  <Dataset>  (88) 
ChEMBL_Kinases

>  <Ligand_Instance>  (88) 
nan

>  <PDB_ID>  (88) 
nan

>  <Standardized_SMILES>  (88) 
CC[C@@H](Nc1ncnc2c(C(N)=O)cccc12)C1=CC(NC(=O)c2ccc(OC)c(F)c2)=CCC1

>  <Name>  (88) 
nan

>  <Pocket>  (88) 
nan

>  <ATP_Site>  (88) 
nan

>  <Peripheral>  (88) 
nan

>  <Num_H_Atoms_ProtBoundConf>  (88) 
nan

>  <Num_Resolved_Atoms>  (88) 
nan

>  <Num_Not_Resolved_Atoms>  (88) 
nan

$$$$
CHEMBL3685322
     RDKit          3D

  0  0  0  0  0  0  0  0  0  0999 V3000
M  V30 BEGIN CTAB
M  V30 COUNTS 47 50 0 0 0
M  V30 BEGIN ATOM
M  V30 1 N 4.083057 -3.575257 3.711526 0
M  V30 2 C 4.151705 -2.342750 3.008953 0
M  V30 3 O 5.239233 -1.732717 3.010729 0
M  V30 4 C 2.998246 -1.810449 2.313106 0
M  V30 5 C 3.103240 -0.610164 1.643209 0
M  V30 6 C 1.998949 -0.106357 0.980162 0
M  V30 7 C 2.129910 1.164139 0.276754 0
M  V30 8 C 1.058136 2.032504 0.147743 0
M  V30 9 C 1.230238 3.218360 -0.523819 0
M  V30 10 C 2.469429 3.519797 -1.056671 0
M  V30 11 Cl 2.672211 5.027770 -1.906311 0
M  V30 12 C 3.570957 2.696106 -0.960090 0
M  V30 13 Cl 5.113455 3.117128 -1.647390 0
M  V30 14 C 3.355448 1.500954 -0.270451 0
M  V30 15 C 0.832765 -0.835923 1.020918 0
M  V30 16 C 0.659004 -2.037393 1.669221 0
M  V30 17 C -0.545351 -2.702441 1.651140 0
M  V30 18 N -1.699428 -2.218720 1.017655 0
M  V30 19 C -2.430628 -1.271198 0.295498 0
M  V30 20 C -2.717827 0.038285 1.045640 0
M  V30 21 C -3.127447 1.034710 0.012935 0
M  V30 22 C -4.267604 0.577330 -0.852453 0
M  V30 23 N -4.220526 -0.817044 -1.186112 0
M  V30 24 C -3.845142 -1.700081 -0.128728 0
M  V30 25 N -0.496745 -3.855612 2.333876 0
M  V30 26 C 0.559745 -4.326752 2.960177 0
M  V30 27 N 1.697209 -3.640531 2.944736 0
M  V30 28 C 1.793940 -2.476756 2.304076 0
M  V30 29 H 3.460785 -3.440109 4.532729 0
M  V30 30 H 3.462718 -3.495153 4.556887 0
M  V30 31 H 4.040949 -0.071640 1.638575 0
M  V30 32 H 0.145230 1.698956 0.598246 0
M  V30 33 H 0.370864 3.876740 -0.607337 0
M  V30 34 H 4.219727 0.838879 -0.186515 0
M  V30 35 H 0.013430 -0.401988 0.482185 0
M  V30 36 H -2.442935 -2.944397 1.131333 0
M  V30 37 H -1.922647 -0.937236 -0.663374 0
M  V30 38 H -1.886503 0.403547 1.632483 0
M  V30 39 H -3.584510 -0.130462 1.741302 0
M  V30 40 H -3.452629 1.965939 0.534600 0
M  V30 41 H -2.240575 1.292795 -0.604284 0
M  V30 42 H -5.258688 0.848303 -0.403233 0
M  V30 43 H -4.204051 1.147256 -1.803733 0
M  V30 44 H -3.507444 -0.948388 -1.965166 0
M  V30 45 H -4.554264 -1.515697 0.727020 0
M  V30 46 H -3.859455 -2.721982 -0.499856 0
M  V30 47 H 0.423905 -5.276573 3.463703 0
M  V30 END ATOM
M  V30 BEGIN BOND
M  V30 1 1 1 2
M  V30 2 2 2 3
M  V30 3 1 2 4
M  V30 4 2 4 5
M  V30 5 1 5 6
M  V30 6 1 6 7
M  V30 7 2 7 8
M  V30 8 1 8 9
M  V30 9 2 9 10
M  V30 10 1 10 11
M  V30 11 1 10 12
M  V30 12 1 12 13
M  V30 13 2 12 14
M  V30 14 2 6 15
M  V30 15 1 15 16
M  V30 16 2 16 17
M  V30 17 1 17 18
M  V30 18 1 18 19
M  V30 19 1 19 20
M  V30 20 1 20 21
M  V30 21 1 21 22
M  V30 22 1 22 23
M  V30 23 1 23 24
M  V30 24 1 17 25
M  V30 25 2 25 26
M  V30 26 1 26 27
M  V30 27 2 27 28
M  V30 28 1 28 4
M  V30 29 1 14 7
M  V30 30 1 28 16
M  V30 31 1 24 19
M  V30 32 1 1 29
M  V30 33 1 1 30
M  V30 34 1 5 31
M  V30 35 1 8 32
M  V30 36 1 9 33
M  V30 37 1 14 34
M  V30 38 1 15 35
M  V30 39 1 18 36
M  V30 40 1 19 37
M  V30 41 1 20 38
M  V30 42 1 20 39
M  V30 43 1 21 40
M  V30 44 1 21 41
M  V30 45 1 22 42
M  V30 46 1 22 43
M  V30 47 1 23 44
M  V30 48 1 24 45
M  V30 49 1 24 46
M  V30 50 1 26 47
M  V30 END BOND
M  V30 END CTAB
M  END
>  <Dataset>  (89) 
ChEMBL_Kinases

>  <Ligand_Instance>  (89) 
nan

>  <PDB_ID>  (89) 
nan

>  <Standardized_SMILES>  (89) 
NC(=O)c1cc(-c2ccc(Cl)c(Cl)c2)cc2c(NC3CCCNC3)ncnc12

>  <Name>  (89) 
nan

>  <Pocket>  (89) 
nan

>  <ATP_Site>  (89) 
nan

>  <Peripheral>  (89) 
nan

>  <Num_H_Atoms_ProtBoundConf>  (89) 
nan

>  <Num_Resolved_Atoms>  (89) 
nan

>  <Num_Not_Resolved_Atoms>  (89) 
nan

$$$$
CHEMBL3685321
     RDKit          3D

  0  0  0  0  0  0  0  0  0  0999 V3000
M  V30 BEGIN CTAB
M  V30 COUNTS 47 50 0 0 0
M  V30 BEGIN ATOM
M  V30 1 N 1.453018 -6.045797 0.342438 0
M  V30 2 C 1.488065 -5.055453 -0.692759 0
M  V30 3 O 1.896582 -5.274906 -1.860842 0
M  V30 4 C 1.015771 -3.702715 -0.357248 0
M  V30 5 C 1.036720 -2.709949 -1.314283 0
M  V30 6 C 0.587381 -1.453310 -0.967849 0
M  V30 7 C 0.647471 -0.473669 -2.042803 0
M  V30 8 C -0.326146 0.490203 -1.998253 0
M  V30 9 C -0.358635 1.480176 -2.984090 0
M  V30 10 C 0.597456 1.442593 -3.965812 0
M  V30 11 C 1.575760 0.471258 -4.007140 0
M  V30 12 C 1.606323 -0.516888 -3.020701 0
M  V30 13 C 0.130368 -1.208920 0.310063 0
M  V30 14 C 0.089707 -2.161371 1.296486 0
M  V30 15 C -0.384769 -1.865366 2.556204 0
M  V30 16 N -0.817386 -0.579185 2.948454 0
M  V30 17 C -1.056472 0.799964 2.769682 0 CFG=1
M  V30 18 C -1.843455 1.502875 3.865199 0
M  V30 19 C -1.178012 2.705623 4.428384 0
M  V30 20 C -0.634372 3.659788 3.394515 0
M  V30 21 N -0.181283 2.938247 2.202158 0
M  V30 22 C 0.224083 1.620594 2.649152 0
M  V30 23 N -0.371808 -2.888739 3.390673 0
M  V30 24 C 0.048518 -4.123454 3.111520 0
M  V30 25 N 0.494262 -4.325284 1.867993 0
M  V30 26 C 0.547916 -3.397949 0.901278 0
M  V30 27 H 1.970759 -6.087981 1.255604 0
M  V30 28 H 0.768634 -6.781993 0.008552 0
M  V30 29 H 1.410228 -2.982459 -2.292652 0
M  V30 30 H -1.101925 0.578424 -1.262811 0
M  V30 31 H -1.112349 2.263553 -2.987412 0
M  V30 32 H 0.634257 2.165879 -4.752312 0
M  V30 33 H 2.365462 0.365371 -4.742293 0
M  V30 34 H 2.351407 -1.312136 -2.994067 0
M  V30 35 H -0.211806 -0.212516 0.502332 0
M  V30 36 H -1.173187 -0.643941 3.949548 0
M  V30 37 H -1.637709 1.000741 1.847250 0
M  V30 38 H -1.974354 0.781930 4.716070 0
M  V30 39 H -2.871272 1.778056 3.550368 0
M  V30 40 H -1.968486 3.275447 4.996591 0
M  V30 41 H -0.438437 2.426947 5.205486 0
M  V30 42 H 0.275070 4.114363 3.836862 0
M  V30 43 H -1.314161 4.481655 3.128392 0
M  V30 44 H 0.696256 3.388869 1.837366 0
M  V30 45 H 0.945522 1.217727 1.932368 0
M  V30 46 H 0.691628 1.767323 3.662326 0
M  V30 47 H -0.002515 -4.857895 3.901610 0
M  V30 END ATOM
M  V30 BEGIN BOND
M  V30 1 1 1 2
M  V30 2 2 2 3
M  V30 3 1 2 4
M  V30 4 2 4 5
M  V30 5 1 5 6
M  V30 6 1 6 7
M  V30 7 2 7 8
M  V30 8 1 8 9
M  V30 9 2 9 10
M  V30 10 1 10 11
M  V30 11 2 11 12
M  V30 12 2 6 13
M  V30 13 1 13 14
M  V30 14 2 14 15
M  V30 15 1 15 16
M  V30 16 1 16 17
M  V30 17 1 17 18
M  V30 18 1 18 19
M  V30 19 1 19 20
M  V30 20 1 20 21
M  V30 21 1 21 22
M  V30 22 1 15 23
M  V30 23 2 23 24
M  V30 24 1 24 25
M  V30 25 2 25 26
M  V30 26 1 26 4
M  V30 27 1 12 7
M  V30 28 1 26 14
M  V30 29 1 22 17
M  V30 30 1 1 27
M  V30 31 1 1 28
M  V30 32 1 5 29
M  V30 33 1 8 30
M  V30 34 1 9 31
M  V30 35 1 10 32
M  V30 36 1 11 33
M  V30 37 1 12 34
M  V30 38 1 13 35
M  V30 39 1 16 36
M  V30 40 1 17 37 CFG=3
M  V30 41 1 18 38
M  V30 42 1 18 39
M  V30 43 1 19 40
M  V30 44 1 19 41
M  V30 45 1 20 42
M  V30 46 1 20 43
M  V30 47 1 21 44
M  V30 48 1 22 45
M  V30 49 1 22 46
M  V30 50 1 24 47
M  V30 END BOND
M  V30 END CTAB
M  END
>  <Dataset>  (90) 
ChEMBL_Kinases

>  <Ligand_Instance>  (90) 
nan

>  <PDB_ID>  (90) 
nan

>  <Standardized_SMILES>  (90) 
NC(=O)c1cc(-c2ccccc2)cc2c(N[C@H]3CCCNC3)ncnc12

>  <Name>  (90) 
nan

>  <Pocket>  (90) 
nan

>  <ATP_Site>  (90) 
nan

>  <Peripheral>  (90) 
nan

>  <Num_H_Atoms_ProtBoundConf>  (90) 
nan

>  <Num_Resolved_Atoms>  (90) 
nan

>  <Num_Not_Resolved_Atoms>  (90) 
nan

$$$$
CHEMBL3685319
     RDKit          3D

  0  0  0  0  0  0  0  0  0  0999 V3000
M  V30 BEGIN CTAB
M  V30 COUNTS 44 47 0 0 0
M  V30 BEGIN ATOM
M  V30 1 N 1.495560 -8.576835 1.220656 0
M  V30 2 C 1.593214 -7.453574 1.028046 0
M  V30 3 C 1.727615 -6.044934 0.767119 0
M  V30 4 C 0.698830 -5.281839 0.205478 0
M  V30 5 C 0.889787 -3.919443 -0.024311 0
M  V30 6 C 2.084630 -3.308733 0.295534 0
M  V30 7 C 2.316670 -1.868322 0.063852 0
M  V30 8 C 3.637098 -1.506008 -0.226472 0
M  V30 9 C 3.906920 -0.171675 -0.450948 0
M  V30 10 C 2.900557 0.769742 -0.389306 0
M  V30 11 N 3.169454 2.078607 -0.610192 0
M  V30 12 C 2.156875 2.986003 -0.542619 0
M  V30 13 N 0.874381 2.608698 -0.257189 0
M  V30 14 C 0.557084 1.325704 -0.030869 0
M  V30 15 N -0.794554 0.996533 0.262398 0
M  V30 16 C -1.727430 2.117439 0.290202 0
M  V30 17 C -3.110468 1.642105 0.613076 0
M  V30 18 C -3.065806 1.140438 2.040075 0
M  V30 19 C -2.871775 2.332901 2.931842 0
M  V30 20 N -2.268868 3.446646 2.284299 0
M  V30 21 C -1.279282 3.137765 1.304815 0
M  V30 22 C 1.597383 0.424521 -0.104370 0
M  V30 23 C 1.329137 -0.897296 0.118230 0
M  V30 24 C 3.097874 -4.073331 0.851620 0
M  V30 25 C 2.915495 -5.420043 1.081155 0
M  V30 26 H -0.230634 -5.774463 -0.039281 0
M  V30 27 H 0.087994 -3.327610 -0.461231 0
M  V30 28 H 4.464172 -2.215316 -0.285664 0
M  V30 29 H 4.919377 0.137075 -0.677469 0
M  V30 30 H 2.267160 4.044055 -0.701353 0
M  V30 31 H -1.179749 0.049947 0.456534 0
M  V30 32 H -1.748756 2.521056 -0.753237 0
M  V30 33 H -3.483370 0.910429 -0.108433 0
M  V30 34 H -3.757005 2.562411 0.650779 0
M  V30 35 H -2.212303 0.443909 2.170728 0
M  V30 36 H -3.988824 0.602588 2.329100 0
M  V30 37 H -2.293052 2.046163 3.858989 0
M  V30 38 H -3.872124 2.641300 3.303452 0
M  V30 39 H -2.108903 4.272533 2.845540 0
M  V30 40 H -0.363559 2.820845 1.826622 0
M  V30 41 H -1.034791 4.067141 0.748157 0
M  V30 42 H 0.340801 -1.252709 0.346602 0
M  V30 43 H 4.050260 -3.680201 1.127155 0
M  V30 44 H 3.710809 -6.025041 1.518477 0
M  V30 END ATOM
M  V30 BEGIN BOND
M  V30 1 3 1 2
M  V30 2 1 2 3
M  V30 3 2 3 4
M  V30 4 1 4 5
M  V30 5 2 5 6
M  V30 6 1 6 7
M  V30 7 2 7 8
M  V30 8 1 8 9
M  V30 9 2 9 10
M  V30 10 1 10 11
M  V30 11 2 11 12
M  V30 12 1 12 13
M  V30 13 2 13 14
M  V30 14 1 14 15
M  V30 15 1 15 16
M  V30 16 1 16 17
M  V30 17 1 17 18
M  V30 18 1 18 19
M  V30 19 1 19 20
M  V30 20 1 20 21
M  V30 21 1 14 22
M  V30 22 2 22 23
M  V30 23 1 6 24
M  V30 24 2 24 25
M  V30 25 1 25 3
M  V30 26 1 23 7
M  V30 27 1 22 10
M  V30 28 1 21 16
M  V30 29 1 4 26
M  V30 30 1 5 27
M  V30 31 1 8 28
M  V30 32 1 9 29
M  V30 33 1 12 30
M  V30 34 1 15 31
M  V30 35 1 16 32
M  V30 36 1 17 33
M  V30 37 1 17 34
M  V30 38 1 18 35
M  V30 39 1 18 36
M  V30 40 1 19 37
M  V30 41 1 19 38
M  V30 42 1 20 39
M  V30 43 1 21 40
M  V30 44 1 21 41
M  V30 45 1 23 42
M  V30 46 1 24 43
M  V30 47 1 25 44
M  V30 END BOND
M  V30 END CTAB
M  END
>  <Dataset>  (91) 
ChEMBL_Kinases

>  <Ligand_Instance>  (91) 
nan

>  <PDB_ID>  (91) 
nan

>  <Standardized_SMILES>  (91) 
N#Cc1ccc(-c2ccc3ncnc(NC4CCCNC4)c3c2)cc1

>  <Name>  (91) 
nan

>  <Pocket>  (91) 
nan

>  <ATP_Site>  (91) 
nan

>  <Peripheral>  (91) 
nan

>  <Num_H_Atoms_ProtBoundConf>  (91) 
nan

>  <Num_Resolved_Atoms>  (91) 
nan

>  <Num_Not_Resolved_Atoms>  (91) 
nan

$$$$
CHEMBL275117
     RDKit          3D

  0  0  0  0  0  0  0  0  0  0999 V3000
M  V30 BEGIN CTAB
M  V30 COUNTS 56 58 0 0 0
M  V30 BEGIN ATOM
M  V30 1 C 2.624135 -0.991810 5.346338 0
M  V30 2 C 3.700016 -0.975573 4.308013 0
M  V30 3 N 3.425270 0.003939 3.309443 0
M  V30 4 C 3.508287 1.351477 3.757420 0
M  V30 5 C 4.899966 1.818680 4.117739 0
M  V30 6 C 4.064671 -0.278417 2.052267 0
M  V30 7 C 3.787235 0.737440 0.989766 0
M  V30 8 N 2.395171 0.862154 0.687308 0
M  V30 9 C 1.506366 -0.110901 0.195334 0
M  V30 10 O 2.120554 -1.210443 0.030469 0
M  V30 11 C 0.094917 0.034483 -0.104300 0
M  V30 12 C -0.774057 1.093760 -0.044345 0
M  V30 13 C -0.424267 2.455463 0.373783 0
M  V30 14 N -1.990251 0.677539 -0.433026 0
M  V30 15 C -1.955749 -0.649554 -0.756094 0
M  V30 16 C -3.201497 -1.277933 -1.160896 0
M  V30 17 C -3.550473 -1.914346 -2.247711 0
M  V30 18 C -2.663080 -2.119636 -3.358546 0
M  V30 19 O -1.488086 -1.720988 -3.459778 0
M  V30 20 N -3.366417 -2.863037 -4.336375 0
M  V30 21 C -4.678087 -3.101486 -3.809350 0
M  V30 22 C -5.737545 -3.778238 -4.377757 0
M  V30 23 C -6.913852 -3.870472 -3.657280 0
M  V30 24 C -7.076330 -3.321108 -2.405373 0
M  V30 25 C -6.012098 -2.655527 -1.863566 0
M  V30 26 C -4.819962 -2.547731 -2.564356 0
M  V30 27 C -0.666249 -1.029586 -0.547047 0
M  V30 28 C -0.198013 -2.425980 -0.741405 0
M  V30 29 H 2.124531 -1.985938 5.372650 0
M  V30 30 H 2.995974 -0.835800 6.389330 0
M  V30 31 H 1.857413 -0.206023 5.172828 0
M  V30 32 H 3.751466 -1.961295 3.819455 0
M  V30 33 H 4.670797 -0.837894 4.825145 0
M  V30 34 H 2.852310 1.488285 4.633571 0
M  V30 35 H 3.147010 2.035160 2.964816 0
M  V30 36 H 4.760152 2.822182 4.615589 0
M  V30 37 H 5.407749 1.188411 4.866271 0
M  V30 38 H 5.547719 2.017456 3.244928 0
M  V30 39 H 5.165262 -0.416353 2.159449 0
M  V30 40 H 3.679016 -1.258788 1.715446 0
M  V30 41 H 4.279326 1.711917 1.180997 0
M  V30 42 H 4.318944 0.355346 0.063528 0
M  V30 43 H 2.018826 1.809565 0.865714 0
M  V30 44 H 0.342982 2.949852 -0.280344 0
M  V30 45 H -0.139041 2.505613 1.443253 0
M  V30 46 H -1.339065 3.125219 0.281232 0
M  V30 47 H -2.826709 1.338328 -0.463508 0
M  V30 48 H -4.009823 -1.209130 -0.407659 0
M  V30 49 H -2.946505 -3.147472 -5.244153 0
M  V30 50 H -5.695409 -4.232713 -5.341818 0
M  V30 51 H -7.783247 -4.399185 -4.067968 0
M  V30 52 H -7.985111 -3.377885 -1.821095 0
M  V30 53 H -6.080259 -2.197539 -0.870662 0
M  V30 54 H 0.307513 -2.780345 0.197048 0
M  V30 55 H 0.596859 -2.379862 -1.517939 0
M  V30 56 H -1.005752 -3.119146 -0.973935 0
M  V30 END ATOM
M  V30 BEGIN BOND
M  V30 1 1 1 2
M  V30 2 1 2 3
M  V30 3 1 3 4
M  V30 4 1 4 5
M  V30 5 1 3 6
M  V30 6 1 6 7
M  V30 7 1 7 8
M  V30 8 1 8 9
M  V30 9 2 9 10
M  V30 10 1 9 11
M  V30 11 2 11 12
M  V30 12 1 12 13
M  V30 13 1 12 14
M  V30 14 1 14 15
M  V30 15 1 15 16
M  V30 16 2 16 17
M  V30 17 1 17 18
M  V30 18 2 18 19
M  V30 19 1 18 20
M  V30 20 1 20 21
M  V30 21 2 21 22
M  V30 22 1 22 23
M  V30 23 2 23 24
M  V30 24 1 24 25
M  V30 25 2 25 26
M  V30 26 2 15 27
M  V30 27 1 27 28
M  V30 28 1 27 11
M  V30 29 1 26 17
M  V30 30 1 26 21
M  V30 31 1 1 29
M  V30 32 1 1 30
M  V30 33 1 1 31
M  V30 34 1 2 32
M  V30 35 1 2 33
M  V30 36 1 4 34
M  V30 37 1 4 35
M  V30 38 1 5 36
M  V30 39 1 5 37
M  V30 40 1 5 38
M  V30 41 1 6 39
M  V30 42 1 6 40
M  V30 43 1 7 41
M  V30 44 1 7 42
M  V30 45 1 8 43
M  V30 46 1 13 44
M  V30 47 1 13 45
M  V30 48 1 13 46
M  V30 49 1 14 47
M  V30 50 1 16 48
M  V30 51 1 20 49
M  V30 52 1 22 50
M  V30 53 1 23 51
M  V30 54 1 24 52
M  V30 55 1 25 53
M  V30 56 1 28 54
M  V30 57 1 28 55
M  V30 58 1 28 56
M  V30 END BOND
M  V30 END CTAB
M  END
>  <Dataset>  (92) 
ChEMBL_Kinases

>  <Ligand_Instance>  (92) 
nan

>  <PDB_ID>  (92) 
nan

>  <Standardized_SMILES>  (92) 
CCN(CC)CCNC(=O)c1c(C)[nH]c(/C=C2\C(=O)Nc3ccccc32)c1C

>  <Name>  (92) 
nan

>  <Pocket>  (92) 
nan

>  <ATP_Site>  (92) 
nan

>  <Peripheral>  (92) 
nan

>  <Num_H_Atoms_ProtBoundConf>  (92) 
nan

>  <Num_Resolved_Atoms>  (92) 
nan

>  <Num_Not_Resolved_Atoms>  (92) 
nan

$$$$
CHEMBL275339
     RDKit          3D

  0  0  0  0  0  0  0  0  0  0999 V3000
M  V30 BEGIN CTAB
M  V30 COUNTS 20 21 0 0 0
M  V30 BEGIN ATOM
M  V30 1 O -2.598600 1.028826 2.918039 0
M  V30 2 C -1.548348 0.570525 2.125147 0
M  V30 3 C -0.271073 0.431030 2.637651 0
M  V30 4 C 0.813981 -0.023522 1.885407 0
M  V30 5 C 0.575895 -0.346086 0.558025 0
M  V30 6 N 1.679968 -0.809598 -0.211063 0
M  V30 7 C 2.636918 0.111745 -0.483009 0
M  V30 8 C 3.613030 -0.508262 -1.225670 0
M  V30 9 N 3.252441 -1.787213 -1.401140 0
M  V30 10 C 2.077589 -1.965978 -0.783188 0
M  V30 11 C -0.684622 -0.223904 -0.002475 0
M  V30 12 C -1.721534 0.231023 0.788983 0
M  V30 13 H -3.028916 1.929758 2.737510 0
M  V30 14 H -0.168214 0.703363 3.681043 0
M  V30 15 H 1.779384 -0.104542 2.359091 0
M  V30 16 H 2.760813 1.170625 -0.237935 0
M  V30 17 H 4.549899 -0.110757 -1.642380 0
M  V30 18 H 1.410949 -2.827560 -0.659306 0
M  V30 19 H -0.837071 -0.484115 -1.042053 0
M  V30 20 H -2.732396 0.343522 0.390758 0
M  V30 END ATOM
M  V30 BEGIN BOND
M  V30 1 1 1 2
M  V30 2 2 2 3
M  V30 3 1 3 4
M  V30 4 2 4 5
M  V30 5 1 5 6
M  V30 6 1 6 7
M  V30 7 2 7 8
M  V30 8 1 8 9
M  V30 9 2 9 10
M  V30 10 1 5 11
M  V30 11 2 11 12
M  V30 12 1 12 2
M  V30 13 1 10 6
M  V30 14 1 1 13
M  V30 15 1 3 14
M  V30 16 1 4 15
M  V30 17 1 7 16
M  V30 18 1 8 17
M  V30 19 1 10 18
M  V30 20 1 11 19
M  V30 21 1 12 20
M  V30 END BOND
M  V30 END CTAB
M  END
>  <Dataset>  (93) 
ChEMBL_Kinases

>  <Ligand_Instance>  (93) 
nan

>  <PDB_ID>  (93) 
nan

>  <Standardized_SMILES>  (93) 
Oc1ccc(-n2ccnc2)cc1

>  <Name>  (93) 
nan

>  <Pocket>  (93) 
nan

>  <ATP_Site>  (93) 
nan

>  <Peripheral>  (93) 
nan

>  <Num_H_Atoms_ProtBoundConf>  (93) 
nan

>  <Num_Resolved_Atoms>  (93) 
nan

>  <Num_Not_Resolved_Atoms>  (93) 
nan

$$$$
CHEMBL4293912
     RDKit          3D

  0  0  0  0  0  0  0  0  0  0999 V3000
M  V30 BEGIN CTAB
M  V30 COUNTS 47 50 0 0 0
M  V30 BEGIN ATOM
M  V30 1 C -1.004260 -6.743348 1.122920 0
M  V30 2 C -0.536037 -5.346617 0.959207 0
M  V30 3 C -0.234611 -4.572851 2.052102 0
M  V30 4 C 0.192275 -3.288943 1.853610 0
M  V30 5 C 0.371142 -2.624393 0.681229 0
M  V30 6 C 0.711355 -1.288248 0.270843 0
M  V30 7 N 0.987832 -1.118073 -0.980348 0
M  V30 8 C 1.367165 0.001395 -1.754568 0
M  V30 9 C 2.010113 1.120719 -1.200382 0
M  V30 10 N 2.278828 1.975058 -2.234836 0
M  V30 11 N 1.826090 1.412391 -3.347797 0
M  V30 12 C 1.255082 0.196117 -3.106333 0
M  V30 13 C 0.632801 -0.750442 -4.061224 0
M  V30 14 N 2.341626 1.426055 0.182736 0
M  V30 15 C 1.437707 0.955855 1.206487 0
M  V30 16 N 1.327214 1.882897 2.211591 0
M  V30 17 C 0.421676 1.634222 3.212970 0
M  V30 18 N 0.207057 2.509493 4.310321 0
M  V30 19 C -0.878471 3.423804 4.019904 0
M  V30 20 C -2.146933 2.609398 3.737796 0
M  V30 21 C -0.535174 4.156298 2.743798 0
M  V30 22 N -0.347034 0.503472 3.212464 0
M  V30 23 C -0.242175 -0.405750 2.232339 0
M  V30 24 C 0.664574 -0.182570 1.217309 0
M  V30 25 C 0.041398 -3.491052 -0.377731 0
M  V30 26 C -0.394022 -4.791932 -0.294158 0
M  V30 27 H -0.352541 -7.459144 0.571351 0
M  V30 28 H -2.073982 -6.796421 0.813697 0
M  V30 29 H -0.972125 -6.993415 2.202510 0
M  V30 30 H -0.314879 -4.920174 3.069679 0
M  V30 31 H 0.498125 -2.697676 2.704014 0
M  V30 32 H 1.917839 1.879331 -4.266888 0
M  V30 33 H 1.357687 -1.468738 -4.440927 0
M  V30 34 H -0.176542 -1.329090 -3.560792 0
M  V30 35 H 0.148555 -0.143045 -4.851923 0
M  V30 36 H 3.161537 1.969936 0.436622 0
M  V30 37 H 0.872839 2.297761 5.069221 0
M  V30 38 H -1.049443 4.112471 4.866267 0
M  V30 39 H -2.198573 1.705451 4.385408 0
M  V30 40 H -2.067253 2.299513 2.665791 0
M  V30 41 H -3.031954 3.252097 3.822513 0
M  V30 42 H -1.246760 5.021541 2.597381 0
M  V30 43 H 0.510973 4.476955 2.696003 0
M  V30 44 H -0.744826 3.496884 1.865957 0
M  V30 45 H -0.882715 -1.264660 2.174863 0
M  V30 46 H 0.113121 -3.171967 -1.431881 0
M  V30 47 H -0.634216 -5.414835 -1.137522 0
M  V30 END ATOM
M  V30 BEGIN BOND
M  V30 1 1 1 2
M  V30 2 2 2 3
M  V30 3 1 3 4
M  V30 4 2 4 5
M  V30 5 1 5 6
M  V30 6 2 6 7
M  V30 7 1 7 8
M  V30 8 1 8 9
M  V30 9 2 9 10
M  V30 10 1 10 11
M  V30 11 1 11 12
M  V30 12 1 12 13
M  V30 13 1 9 14
M  V30 14 1 14 15
M  V30 15 2 15 16
M  V30 16 1 16 17
M  V30 17 1 17 18
M  V30 18 1 18 19
M  V30 19 1 19 20
M  V30 20 1 19 21
M  V30 21 2 17 22
M  V30 22 1 22 23
M  V30 23 2 23 24
M  V30 24 1 5 25
M  V30 25 2 25 26
M  V30 26 1 26 2
M  V30 27 1 24 6
M  V30 28 2 12 8
M  V30 29 1 24 15
M  V30 30 1 1 27
M  V30 31 1 1 28
M  V30 32 1 1 29
M  V30 33 1 3 30
M  V30 34 1 4 31
M  V30 35 1 11 32
M  V30 36 1 13 33
M  V30 37 1 13 34
M  V30 38 1 13 35
M  V30 39 1 14 36
M  V30 40 1 18 37
M  V30 41 1 19 38
M  V30 42 1 20 39
M  V30 43 1 20 40
M  V30 44 1 20 41
M  V30 45 1 21 42
M  V30 46 1 21 43
M  V30 47 1 21 44
M  V30 48 1 23 45
M  V30 49 1 25 46
M  V30 50 1 26 47
M  V30 END BOND
M  V30 END CTAB
M  END
>  <Dataset>  (94) 
ChEMBL_Kinases

>  <Ligand_Instance>  (94) 
nan

>  <PDB_ID>  (94) 
nan

>  <Standardized_SMILES>  (94) 
Cc1ccc(C2=Nc3c(n[nH]c3C)Nc3nc(NC(C)C)ncc32)cc1

>  <Name>  (94) 
nan

>  <Pocket>  (94) 
nan

>  <ATP_Site>  (94) 
nan

>  <Peripheral>  (94) 
nan

>  <Num_H_Atoms_ProtBoundConf>  (94) 
nan

>  <Num_Resolved_Atoms>  (94) 
nan

>  <Num_Not_Resolved_Atoms>  (94) 
nan

$$$$
CHEMBL4293828
     RDKit          3D

  0  0  0  0  0  0  0  0  0  0999 V3000
M  V30 BEGIN CTAB
M  V30 COUNTS 38 41 0 0 0
M  V30 BEGIN ATOM
M  V30 1 C 0.395374 -6.105730 1.201210 0
M  V30 2 C 0.916765 -4.698036 1.048381 0
M  V30 3 C 0.840734 -3.742718 2.046827 0
M  V30 4 C 1.422632 -2.575452 1.563081 0
M  V30 5 N 1.534520 -1.364669 2.286456 0
M  V30 6 C 0.666719 -0.371341 1.768465 0
M  V30 7 N 1.098069 0.341075 0.729124 0
M  V30 8 C 0.389555 1.327632 0.141064 0
M  V30 9 C 0.840819 2.099569 -1.008042 0
M  V30 10 C 2.030000 1.793074 -1.685631 0
M  V30 11 C 2.460844 2.500959 -2.781889 0
M  V30 12 C 1.642388 3.559746 -3.193748 0
M  V30 13 C 0.480780 3.885470 -2.558408 0
M  V30 14 C 0.049388 3.162268 -1.448678 0
M  V30 15 N -0.832971 1.573271 0.677565 0
M  V30 16 C -1.341119 0.902017 1.717759 0
M  V30 17 C -2.588789 1.241344 2.157626 0
M  V30 18 C -3.068368 0.501473 3.238127 0
M  V30 19 F -4.297599 0.789401 3.718903 0
M  V30 20 C -2.339966 -0.509138 3.836373 0
M  V30 21 C -1.091732 -0.793882 3.344029 0
M  V30 22 C -0.569833 -0.092720 2.270299 0
M  V30 23 N 1.831650 -2.862753 0.289474 0
M  V30 24 N 1.523195 -4.123341 0.000944 0
M  V30 25 H 0.129652 -6.289670 2.260250 0
M  V30 26 H -0.540717 -6.173351 0.609502 0
M  V30 27 H 1.148605 -6.844635 0.929938 0
M  V30 28 H 0.403873 -3.896945 3.019885 0
M  V30 29 H 2.195203 -1.333969 3.064973 0
M  V30 30 H 2.655334 0.955374 -1.343518 0
M  V30 31 H 3.378383 2.283705 -3.326900 0
M  V30 32 H 1.907086 4.186277 -4.042069 0
M  V30 33 H -0.199586 4.694271 -2.820330 0
M  V30 34 H -0.877744 3.400230 -0.908733 0
M  V30 35 H -3.218992 2.020082 1.746391 0
M  V30 36 H -2.751004 -1.051707 4.668007 0
M  V30 37 H -0.470465 -1.592180 3.788600 0
M  V30 38 H 1.722038 -4.616136 -0.923128 0
M  V30 END ATOM
M  V30 BEGIN BOND
M  V30 1 1 1 2
M  V30 2 2 2 3
M  V30 3 1 3 4
M  V30 4 1 4 5
M  V30 5 1 5 6
M  V30 6 2 6 7
M  V30 7 1 7 8
M  V30 8 1 8 9
M  V30 9 2 9 10
M  V30 10 1 10 11
M  V30 11 2 11 12
M  V30 12 1 12 13
M  V30 13 2 13 14
M  V30 14 2 8 15
M  V30 15 1 15 16
M  V30 16 2 16 17
M  V30 17 1 17 18
M  V30 18 1 18 19
M  V30 19 2 18 20
M  V30 20 1 20 21
M  V30 21 2 21 22
M  V30 22 2 4 23
M  V30 23 1 23 24
M  V30 24 1 24 2
M  V30 25 1 22 6
M  V30 26 1 14 9
M  V30 27 1 22 16
M  V30 28 1 1 25
M  V30 29 1 1 26
M  V30 30 1 1 27
M  V30 31 1 3 28
M  V30 32 1 5 29
M  V30 33 1 10 30
M  V30 34 1 11 31
M  V30 35 1 12 32
M  V30 36 1 13 33
M  V30 37 1 14 34
M  V30 38 1 17 35
M  V30 39 1 20 36
M  V30 40 1 21 37
M  V30 41 1 24 38
M  V30 END BOND
M  V30 END CTAB
M  END
>  <Dataset>  (95) 
ChEMBL_Kinases

>  <Ligand_Instance>  (95) 
nan

>  <PDB_ID>  (95) 
nan

>  <Standardized_SMILES>  (95) 
Cc1cc(Nc2nc(-c3ccccc3)nc3cc(F)ccc23)n[nH]1

>  <Name>  (95) 
nan

>  <Pocket>  (95) 
nan

>  <ATP_Site>  (95) 
nan

>  <Peripheral>  (95) 
nan

>  <Num_H_Atoms_ProtBoundConf>  (95) 
nan

>  <Num_Resolved_Atoms>  (95) 
nan

>  <Num_Not_Resolved_Atoms>  (95) 
nan

$$$$
CHEMBL3685316
     RDKit          3D

  0  0  0  0  0  0  0  0  0  0999 V3000
M  V30 BEGIN CTAB
M  V30 COUNTS 50 53 0 0 0
M  V30 BEGIN ATOM
M  V30 1 N 4.662392 -2.028963 3.964734 0
M  V30 2 C 3.539964 -2.605812 3.300355 0
M  V30 3 O 3.634358 -3.781541 3.737871 0
M  V30 4 C 2.651754 -1.886942 2.408576 0
M  V30 5 C 2.881858 -0.556791 2.153598 0
M  V30 6 C 1.981657 0.039164 1.295292 0
M  V30 7 C 2.186484 1.459683 0.995437 0
M  V30 8 C 1.056537 2.205870 0.738223 0
M  V30 9 C 1.072872 3.551240 0.439924 0
M  V30 10 C 2.305792 4.207977 0.393076 0
M  V30 11 C 2.345155 5.663488 0.072389 0
M  V30 12 F 1.360169 6.010243 -0.823748 0
M  V30 13 F 3.555213 5.977626 -0.510696 0
M  V30 14 F 2.197795 6.403988 1.239170 0
M  V30 15 C 3.443695 3.469337 0.649133 0
M  V30 16 C 3.402866 2.107249 0.949110 0
M  V30 17 C 0.931680 -0.659510 0.739613 0
M  V30 18 C 0.716448 -1.993385 1.006565 0
M  V30 19 C -0.354433 -2.632073 0.419364 0
M  V30 20 N -1.272279 -1.995145 -0.476574 0
M  V30 21 C -2.375207 -2.788650 -1.016687 0 CFG=1
M  V30 22 C -3.256597 -3.224063 0.104567 0
M  V30 23 C -4.396449 -2.234616 0.193874 0
M  V30 24 C -5.184624 -2.276830 -1.057891 0
M  V30 25 N -4.429694 -2.250727 -2.267141 0
M  V30 26 C -3.024301 -2.040476 -2.114314 0
M  V30 27 N -0.503130 -3.922587 0.725254 0
M  V30 28 C 0.358851 -4.526762 1.558177 0
M  V30 29 N 1.406584 -3.915947 2.137257 0
M  V30 30 C 1.608030 -2.603148 1.863268 0
M  V30 31 H 4.811214 -1.107311 4.414770 0
M  V30 32 H 4.839172 -1.093563 4.431036 0
M  V30 33 H 3.704468 -0.011165 2.589285 0
M  V30 34 H 0.035963 1.818739 0.742566 0
M  V30 35 H 0.205731 4.157122 0.235064 0
M  V30 36 H 4.410586 3.965288 0.616868 0
M  V30 37 H 4.273512 1.516970 1.150649 0
M  V30 38 H 0.302465 -0.090681 0.090331 0
M  V30 39 H -1.217310 -1.013657 -0.772383 0
M  V30 40 H -1.864188 -3.732667 -1.384271 0
M  V30 41 H -3.659557 -4.242647 -0.013521 0
M  V30 42 H -2.700554 -3.121970 1.058149 0
M  V30 43 H -5.051169 -2.568928 1.027397 0
M  V30 44 H -4.003167 -1.241785 0.484566 0
M  V30 45 H -5.919386 -1.420472 -1.008367 0
M  V30 46 H -5.813153 -3.193440 -1.059366 0
M  V30 47 H -4.809284 -1.488771 -2.871952 0
M  V30 48 H -2.815224 -0.943921 -2.107141 0
M  V30 49 H -2.564182 -2.411630 -3.078838 0
M  V30 50 H 0.232143 -5.588848 1.806645 0
M  V30 END ATOM
M  V30 BEGIN BOND
M  V30 1 1 1 2
M  V30 2 2 2 3
M  V30 3 1 2 4
M  V30 4 2 4 5
M  V30 5 1 5 6
M  V30 6 1 6 7
M  V30 7 2 7 8
M  V30 8 1 8 9
M  V30 9 2 9 10
M  V30 10 1 10 11
M  V30 11 1 11 12
M  V30 12 1 11 13
M  V30 13 1 11 14
M  V30 14 1 10 15
M  V30 15 2 15 16
M  V30 16 2 6 17
M  V30 17 1 17 18
M  V30 18 2 18 19
M  V30 19 1 19 20
M  V30 20 1 20 21
M  V30 21 1 21 22
M  V30 22 1 22 23
M  V30 23 1 23 24
M  V30 24 1 24 25
M  V30 25 1 25 26
M  V30 26 1 19 27
M  V30 27 2 27 28
M  V30 28 1 28 29
M  V30 29 2 29 30
M  V30 30 1 30 4
M  V30 31 1 16 7
M  V30 32 1 30 18
M  V30 33 1 26 21
M  V30 34 1 1 31
M  V30 35 1 1 32
M  V30 36 1 5 33
M  V30 37 1 8 34
M  V30 38 1 9 35
M  V30 39 1 15 36
M  V30 40 1 16 37
M  V30 41 1 17 38
M  V30 42 1 20 39
M  V30 43 1 21 40 CFG=3
M  V30 44 1 22 41
M  V30 45 1 22 42
M  V30 46 1 23 43
M  V30 47 1 23 44
M  V30 48 1 24 45
M  V30 49 1 24 46
M  V30 50 1 25 47
M  V30 51 1 26 48
M  V30 52 1 26 49
M  V30 53 1 28 50
M  V30 END BOND
M  V30 END CTAB
M  END
>  <Dataset>  (96) 
ChEMBL_Kinases

>  <Ligand_Instance>  (96) 
nan

>  <PDB_ID>  (96) 
nan

>  <Standardized_SMILES>  (96) 
NC(=O)c1cc(-c2ccc(C(F)(F)F)cc2)cc2c(N[C@H]3CCCNC3)ncnc12

>  <Name>  (96) 
nan

>  <Pocket>  (96) 
nan

>  <ATP_Site>  (96) 
nan

>  <Peripheral>  (96) 
nan

>  <Num_H_Atoms_ProtBoundConf>  (96) 
nan

>  <Num_Resolved_Atoms>  (96) 
nan

>  <Num_Not_Resolved_Atoms>  (96) 
nan

$$$$
CHEMBL3685315
     RDKit          3D

  0  0  0  0  0  0  0  0  0  0999 V3000
M  V30 BEGIN CTAB
M  V30 COUNTS 51 54 0 0 0
M  V30 BEGIN ATOM
M  V30 1 N -2.227221 0.366257 5.810725 0
M  V30 2 C -1.964597 -0.692532 4.897705 0
M  V30 3 O -2.475619 -1.747167 5.336420 0
M  V30 4 C -1.208718 -0.508181 3.658021 0
M  V30 5 C -0.687744 0.716742 3.272330 0
M  V30 6 C 0.012635 0.758450 2.068158 0
M  V30 7 C 0.533355 2.080127 1.719432 0
M  V30 8 C 0.635462 2.401343 0.369796 0
M  V30 9 C 1.119315 3.637696 -0.029396 0
M  V30 10 C 1.484566 4.508146 0.977372 0
M  V30 11 O 1.973258 5.757936 0.555955 0
M  V30 12 C 1.055910 6.847655 0.366773 0
M  V30 13 F 0.430772 7.089105 1.575576 0
M  V30 14 F 1.718650 7.962224 -0.064534 0
M  V30 15 F 0.060172 6.439946 -0.511989 0
M  V30 16 C 1.405160 4.243455 2.332021 0
M  V30 17 C 0.911739 2.985322 2.689864 0
M  V30 18 C 0.178301 -0.372938 1.296166 0
M  V30 19 C -0.337314 -1.589947 1.675923 0
M  V30 20 C -0.138349 -2.683147 0.859273 0
M  V30 21 N 0.576086 -2.652676 -0.368647 0
M  V30 22 C 0.698540 -3.888499 -1.123064 0 CFG=1
M  V30 23 C -0.609158 -4.454607 -1.534962 0
M  V30 24 C -0.634219 -4.694330 -3.011178 0
M  V30 25 C 0.528880 -5.545867 -3.479988 0
M  V30 26 N 1.776339 -5.086638 -2.886128 0
M  V30 27 C 1.603504 -3.757504 -2.312252 0
M  V30 28 N -0.679370 -3.822294 1.313515 0
M  V30 29 C -1.363225 -3.911901 2.467921 0
M  V30 30 N -1.544408 -2.821613 3.252519 0
M  V30 31 C -1.029492 -1.625582 2.868077 0
M  V30 32 H -2.887727 1.141808 6.037001 0
M  V30 33 H -3.087642 0.961844 5.650984 0
M  V30 34 H -0.865260 1.543547 3.935463 0
M  V30 35 H 0.333122 1.677175 -0.386316 0
M  V30 36 H 1.204816 3.902780 -1.068730 0
M  V30 37 H 1.701896 4.953344 3.083270 0
M  V30 38 H 0.816616 2.697525 3.715208 0
M  V30 39 H 0.734972 -0.245267 0.379126 0
M  V30 40 H 1.031603 -1.836997 -0.802905 0
M  V30 41 H 1.202432 -4.645540 -0.447930 0
M  V30 42 H -0.920669 -5.344383 -0.948299 0
M  V30 43 H -1.404896 -3.674996 -1.340761 0
M  V30 44 H -0.691878 -3.802133 -3.633392 0
M  V30 45 H -1.547943 -5.301138 -3.283400 0
M  V30 46 H 0.350642 -6.630174 -3.326166 0
M  V30 47 H 0.619693 -5.388398 -4.574212 0
M  V30 48 H 1.927194 -5.728804 -2.059993 0
M  V30 49 H 2.570591 -3.350871 -1.950990 0
M  V30 50 H 1.140542 -3.128082 -3.085712 0
M  V30 51 H -1.783609 -4.866930 2.791011 0
M  V30 END ATOM
M  V30 BEGIN BOND
M  V30 1 1 1 2
M  V30 2 2 2 3
M  V30 3 1 2 4
M  V30 4 2 4 5
M  V30 5 1 5 6
M  V30 6 1 6 7
M  V30 7 2 7 8
M  V30 8 1 8 9
M  V30 9 2 9 10
M  V30 10 1 10 11
M  V30 11 1 11 12
M  V30 12 1 12 13
M  V30 13 1 12 14
M  V30 14 1 12 15
M  V30 15 1 10 16
M  V30 16 2 16 17
M  V30 17 2 6 18
M  V30 18 1 18 19
M  V30 19 2 19 20
M  V30 20 1 20 21
M  V30 21 1 21 22
M  V30 22 1 22 23
M  V30 23 1 23 24
M  V30 24 1 24 25
M  V30 25 1 25 26
M  V30 26 1 26 27
M  V30 27 1 20 28
M  V30 28 2 28 29
M  V30 29 1 29 30
M  V30 30 2 30 31
M  V30 31 1 31 4
M  V30 32 1 17 7
M  V30 33 1 31 19
M  V30 34 1 27 22
M  V30 35 1 1 32
M  V30 36 1 1 33
M  V30 37 1 5 34
M  V30 38 1 8 35
M  V30 39 1 9 36
M  V30 40 1 16 37
M  V30 41 1 17 38
M  V30 42 1 18 39
M  V30 43 1 21 40
M  V30 44 1 22 41 CFG=1
M  V30 45 1 23 42
M  V30 46 1 23 43
M  V30 47 1 24 44
M  V30 48 1 24 45
M  V30 49 1 25 46
M  V30 50 1 25 47
M  V30 51 1 26 48
M  V30 52 1 27 49
M  V30 53 1 27 50
M  V30 54 1 29 51
M  V30 END BOND
M  V30 END CTAB
M  END
>  <Dataset>  (97) 
ChEMBL_Kinases

>  <Ligand_Instance>  (97) 
nan

>  <PDB_ID>  (97) 
nan

>  <Standardized_SMILES>  (97) 
NC(=O)c1cc(-c2ccc(OC(F)(F)F)cc2)cc2c(N[C@H]3CCCNC3)ncnc12

>  <Name>  (97) 
nan

>  <Pocket>  (97) 
nan

>  <ATP_Site>  (97) 
nan

>  <Peripheral>  (97) 
nan

>  <Num_H_Atoms_ProtBoundConf>  (97) 
nan

>  <Num_Resolved_Atoms>  (97) 
nan

>  <Num_Not_Resolved_Atoms>  (97) 
nan

$$$$
CHEMBL3685307
     RDKit          3D

  0  0  0  0  0  0  0  0  0  0999 V3000
M  V30 BEGIN CTAB
M  V30 COUNTS 54 57 0 0 0
M  V30 BEGIN ATOM
M  V30 1 C 6.200656 -5.644670 6.074418 0
M  V30 2 O 5.148478 -5.793805 5.124069 0
M  V30 3 C 4.759144 -4.686474 4.363814 0
M  V30 4 C 5.331059 -3.433771 4.467909 0
M  V30 5 C 4.875138 -2.399306 3.669866 0
M  V30 6 C 3.841820 -2.569287 2.745664 0
M  V30 7 C 3.404122 -1.440513 1.931185 0
M  V30 8 O 4.022534 -0.362781 2.126372 0
M  V30 9 N 2.352246 -1.590964 0.997809 0
M  V30 10 C 1.917722 -0.495800 0.198743 0
M  V30 11 C 2.435682 -0.195062 -1.047866 0
M  V30 12 C 2.014395 0.856330 -1.803893 0
M  V30 13 C 1.018477 1.655761 -1.288485 0
M  V30 14 C 0.428873 1.451791 -0.059061 0
M  V30 15 C -0.636886 2.234786 0.574075 0
M  V30 16 N -1.979550 1.729488 0.326021 0
M  V30 17 C -2.574646 1.617662 -0.942410 0
M  V30 18 N -2.025986 1.949416 -2.100878 0
M  V30 19 C -2.555654 1.860320 -3.311605 0
M  V30 20 N -3.811675 1.377132 -3.443358 0
M  V30 21 C -4.464503 1.008668 -2.329724 0
M  V30 22 C -5.734527 0.523696 -2.490833 0
M  V30 23 C -6.332606 0.418564 -3.810785 0
M  V30 24 N -5.628004 0.810026 -4.982474 0
M  V30 25 O -7.500583 -0.021073 -3.999356 0
M  V30 26 C -6.488496 0.118939 -1.403965 0
M  V30 27 C -5.899805 0.228129 -0.160525 0
M  V30 28 O -6.656320 -0.177998 0.930886 0
M  V30 29 C -4.625575 0.718743 -0.039500 0
M  V30 30 C -3.858733 1.125252 -1.092582 0
M  V30 31 C 0.915244 0.364953 0.640534 0
M  V30 32 C 3.319178 -3.843447 2.696051 0
M  V30 33 C 3.731766 -4.909874 3.463986 0
M  V30 34 H 5.985868 -4.730433 6.694031 0
M  V30 35 H 7.177830 -5.501228 5.621121 0
M  V30 36 H 6.164182 -6.491833 6.808549 0
M  V30 37 H 6.129534 -3.306332 5.184435 0
M  V30 38 H 5.355979 -1.436721 3.788993 0
M  V30 39 H 1.844962 -2.489158 0.842947 0
M  V30 40 H 3.221332 -0.828085 -1.450873 0
M  V30 41 H 2.404586 1.107856 -2.777206 0
M  V30 42 H 0.671409 2.493711 -1.857188 0
M  V30 43 H -0.399495 2.288711 1.654431 0
M  V30 44 H -0.547599 3.296606 0.219430 0
M  V30 45 H -2.456123 1.458087 1.182265 0
M  V30 46 H -2.010072 2.163270 -4.192738 0
M  V30 47 H -5.148786 -0.084183 -5.268092 0
M  V30 48 H -5.708391 1.805456 -5.307095 0
M  V30 49 H -7.493304 -0.267742 -1.502022 0
M  V30 50 H -6.247895 -0.461530 1.817913 0
M  V30 51 H -4.268243 0.761223 0.958269 0
M  V30 52 H 0.509368 0.121248 1.628307 0
M  V30 53 H 2.520998 -4.023757 1.999535 0
M  V30 54 H 3.241832 -5.883452 3.339585 0
M  V30 END ATOM
M  V30 BEGIN BOND
M  V30 1 1 1 2
M  V30 2 1 2 3
M  V30 3 2 3 4
M  V30 4 1 4 5
M  V30 5 2 5 6
M  V30 6 1 6 7
M  V30 7 2 7 8
M  V30 8 1 7 9
M  V30 9 1 9 10
M  V30 10 2 10 11
M  V30 11 1 11 12
M  V30 12 2 12 13
M  V30 13 1 13 14
M  V30 14 1 14 15
M  V30 15 1 15 16
M  V30 16 1 16 17
M  V30 17 2 17 18
M  V30 18 1 18 19
M  V30 19 2 19 20
M  V30 20 1 20 21
M  V30 21 2 21 22
M  V30 22 1 22 23
M  V30 23 1 23 24
M  V30 24 2 23 25
M  V30 25 1 22 26
M  V30 26 2 26 27
M  V30 27 1 27 28
M  V30 28 1 27 29
M  V30 29 2 29 30
M  V30 30 2 14 31
M  V30 31 1 6 32
M  V30 32 2 32 33
M  V30 33 1 33 3
M  V30 34 1 31 10
M  V30 35 1 30 17
M  V30 36 1 30 21
M  V30 37 1 1 34
M  V30 38 1 1 35
M  V30 39 1 1 36
M  V30 40 1 4 37
M  V30 41 1 5 38
M  V30 42 1 9 39
M  V30 43 1 11 40
M  V30 44 1 12 41
M  V30 45 1 13 42
M  V30 46 1 15 43
M  V30 47 1 15 44
M  V30 48 1 16 45
M  V30 49 1 19 46
M  V30 50 1 24 47
M  V30 51 1 24 48
M  V30 52 1 26 49
M  V30 53 1 28 50
M  V30 54 1 29 51
M  V30 55 1 31 52
M  V30 56 1 32 53
M  V30 57 1 33 54
M  V30 END BOND
M  V30 END CTAB
M  END
>  <Dataset>  (98) 
ChEMBL_Kinases

>  <Ligand_Instance>  (98) 
nan

>  <PDB_ID>  (98) 
nan

>  <Standardized_SMILES>  (98) 
COc1ccc(C(=O)Nc2cccc(CNc3ncnc4c(C(N)=O)cc(O)cc34)c2)cc1

>  <Name>  (98) 
nan

>  <Pocket>  (98) 
nan

>  <ATP_Site>  (98) 
nan

>  <Peripheral>  (98) 
nan

>  <Num_H_Atoms_ProtBoundConf>  (98) 
nan

>  <Num_Resolved_Atoms>  (98) 
nan

>  <Num_Not_Resolved_Atoms>  (98) 
nan

$$$$
CHEMBL277351
     RDKit          3D

  0  0  0  0  0  0  0  0  0  0999 V3000
M  V30 BEGIN CTAB
M  V30 COUNTS 51 53 0 0 0
M  V30 BEGIN ATOM
M  V30 1 C 5.191504 -2.268124 0.000612 0
M  V30 2 O 4.471979 -1.117870 0.348015 0
M  V30 3 C 4.756076 0.145433 -0.083768 0
M  V30 4 C 5.839830 0.276416 -0.924240 0
M  V30 5 C 6.172053 1.530565 -1.387799 0
M  V30 6 F 7.238918 1.659947 -2.215364 0
M  V30 7 C 5.441291 2.640976 -1.024349 0
M  V30 8 C 4.388880 2.428230 -0.193970 0
M  V30 9 C 3.961502 1.205671 0.335625 0
M  V30 10 C 2.813087 1.098424 1.194602 0
M  V30 11 O 2.929319 1.990145 2.103803 0
M  V30 12 C 1.649253 0.264148 1.243474 0
M  V30 13 C 1.303053 -0.696047 0.320389 0
M  V30 14 N 0.178488 -1.423363 0.448908 0
M  V30 15 C -0.661690 -1.244788 1.488179 0
M  V30 16 N -1.844794 -2.026081 1.602067 0
M  V30 17 C -2.125156 -3.008459 0.586048 0
M  V30 18 C -3.439265 -3.703788 0.939029 0
M  V30 19 C -4.401798 -2.599559 1.361819 0
M  V30 20 N -4.147136 -1.449243 0.584756 0
M  V30 21 S -5.044863 -0.074992 0.840121 0
M  V30 22 C -4.965073 0.678317 2.400096 0
M  V30 23 O -6.510495 -0.386765 0.559386 0
M  V30 24 O -4.679858 0.953540 -0.200879 0
M  V30 25 C -3.702558 -1.695652 -0.747465 0
M  V30 26 C -2.376408 -2.391276 -0.769095 0
M  V30 27 N -0.330562 -0.312539 2.388489 0
M  V30 28 C 0.797026 0.453978 2.308577 0
M  V30 29 N 0.993010 1.402938 3.360126 0
M  V30 30 H 4.684129 -3.195937 0.259133 0
M  V30 31 H 5.345907 -2.275914 -1.109235 0
M  V30 32 H 6.153640 -2.241018 0.545511 0
M  V30 33 H 6.443372 -0.563246 -1.237328 0
M  V30 34 H 5.682076 3.630328 -1.373717 0
M  V30 35 H 3.809597 3.310303 0.093866 0
M  V30 36 H 1.936008 -0.867575 -0.526492 0
M  V30 37 H -2.462390 -1.849710 2.425918 0
M  V30 38 H -1.303565 -3.733285 0.548567 0
M  V30 39 H -3.265289 -4.355975 1.827224 0
M  V30 40 H -3.824619 -4.322436 0.119166 0
M  V30 41 H -4.401734 -2.479490 2.437273 0
M  V30 42 H -5.420163 -2.976890 1.074543 0
M  V30 43 H -4.452784 0.095837 3.186345 0
M  V30 44 H -4.428061 1.660169 2.382098 0
M  V30 45 H -5.971249 0.927585 2.826734 0
M  V30 46 H -3.656597 -0.735926 -1.302149 0
M  V30 47 H -4.481698 -2.318207 -1.239359 0
M  V30 48 H -2.435238 -3.227312 -1.496383 0
M  V30 49 H -1.575519 -1.729312 -1.129664 0
M  V30 50 H 1.583528 1.529623 4.205959 0
M  V30 51 H 0.392743 2.261499 3.339458 0
M  V30 END ATOM
M  V30 BEGIN BOND
M  V30 1 1 1 2
M  V30 2 1 2 3
M  V30 3 2 3 4
M  V30 4 1 4 5
M  V30 5 1 5 6
M  V30 6 2 5 7
M  V30 7 1 7 8
M  V30 8 2 8 9
M  V30 9 1 9 10
M  V30 10 2 10 11
M  V30 11 1 10 12
M  V30 12 2 12 13
M  V30 13 1 13 14
M  V30 14 2 14 15
M  V30 15 1 15 16
M  V30 16 1 16 17
M  V30 17 1 17 18
M  V30 18 1 18 19
M  V30 19 1 19 20
M  V30 20 1 20 21
M  V30 21 1 21 22
M  V30 22 2 21 23
M  V30 23 2 21 24
M  V30 24 1 20 25
M  V30 25 1 25 26
M  V30 26 1 15 27
M  V30 27 2 27 28
M  V30 28 1 28 29
M  V30 29 1 9 3
M  V30 30 1 28 12
M  V30 31 1 26 17
M  V30 32 1 1 30
M  V30 33 1 1 31
M  V30 34 1 1 32
M  V30 35 1 4 33
M  V30 36 1 7 34
M  V30 37 1 8 35
M  V30 38 1 13 36
M  V30 39 1 16 37
M  V30 40 1 17 38
M  V30 41 1 18 39
M  V30 42 1 18 40
M  V30 43 1 19 41
M  V30 44 1 19 42
M  V30 45 1 22 43
M  V30 46 1 22 44
M  V30 47 1 22 45
M  V30 48 1 25 46
M  V30 49 1 25 47
M  V30 50 1 26 48
M  V30 51 1 26 49
M  V30 52 1 29 50
M  V30 53 1 29 51
M  V30 END BOND
M  V30 END CTAB
M  END
>  <Dataset>  (99) 
ChEMBL_Kinases

>  <Ligand_Instance>  (99) 
nan

>  <PDB_ID>  (99) 
nan

>  <Standardized_SMILES>  (99) 
COc1cc(F)ccc1C(=O)c1cnc(NC2CCN(S(C)(=O)=O)CC2)nc1N

>  <Name>  (99) 
nan

>  <Pocket>  (99) 
nan

>  <ATP_Site>  (99) 
nan

>  <Peripheral>  (99) 
nan

>  <Num_H_Atoms_ProtBoundConf>  (99) 
nan

>  <Num_Resolved_Atoms>  (99) 
nan

>  <Num_Not_Resolved_Atoms>  (99) 
nan

$$$$
CHEMBL4293650
     RDKit          3D

  0  0  0  0  0  0  0  0  0  0999 V3000
M  V30 BEGIN CTAB
M  V30 COUNTS 60 62 0 0 0
M  V30 BEGIN ATOM
M  V30 1 C -1.152946 -2.761130 4.297825 0
M  V30 2 O -0.191115 -3.800437 4.310716 0
M  V30 3 C 1.005672 -3.566893 3.642574 0
M  V30 4 C 1.312961 -2.412983 2.976855 0
M  V30 5 C 2.512006 -2.200864 2.318761 0
M  V30 6 C 2.744866 -0.943902 1.620380 0
M  V30 7 C 3.938812 -0.680691 0.995823 0
M  V30 8 C 4.099356 0.526631 0.351394 0
M  V30 9 O 5.160524 0.842598 -0.243181 0
M  V30 10 C 3.034399 1.407100 0.375087 0
M  V30 11 C 3.137400 2.644146 -0.264248 0
M  V30 12 O 4.314722 2.978437 -0.916281 0
M  V30 13 C 2.091269 3.554168 -0.266433 0
M  V30 14 C 0.957351 3.148310 0.401588 0
M  V30 15 O -0.103891 4.072238 0.397390 0
M  V30 16 C 0.739131 1.939734 1.074890 0
M  V30 17 C -0.500917 1.575448 1.744505 0
M  V30 18 C -1.595648 1.009826 0.994288 0
M  V30 19 C -2.015479 0.546131 -0.168103 0
M  V30 20 C -0.927149 0.598705 -1.216781 0
M  V30 21 C -3.353493 0.060557 -0.507377 0
M  V30 22 C -3.510649 -1.348666 -0.906678 0
M  V30 23 C -2.753250 -1.844047 -2.050152 0
M  V30 24 C -3.226749 -2.279748 -3.213446 0
M  V30 25 C -4.665865 -2.332390 -3.548002 0
M  V30 26 C -2.258737 -2.744711 -4.249643 0
M  V30 27 C 1.837187 1.101002 1.021116 0
M  V30 28 O 1.763438 -0.067574 1.611293 0
M  V30 29 C 3.398904 -3.246855 2.376115 0
M  V30 30 C 3.159744 -4.432141 3.023624 0
M  V30 31 C 1.950823 -4.598935 3.665704 0
M  V30 32 O 1.666106 -5.772634 4.329642 0
M  V30 33 H -2.089196 -3.121401 4.787813 0
M  V30 34 H -0.756189 -1.856647 4.848618 0
M  V30 35 H -1.290739 -2.420994 3.256584 0
M  V30 36 H 0.571361 -1.634003 2.973386 0
M  V30 37 H 4.755715 -1.372967 0.986515 0
M  V30 38 H 4.256787 3.611202 -1.700094 0
M  V30 39 H 2.143389 4.506518 -0.746168 0
M  V30 40 H -0.463205 4.470933 1.261359 0
M  V30 41 H -0.253706 0.854036 2.571480 0
M  V30 42 H -0.811890 2.504169 2.322067 0
M  V30 43 H -2.456224 0.932007 1.700994 0
M  V30 44 H -1.402487 0.410254 -2.199926 0
M  V30 45 H -0.545628 1.659589 -1.331481 0
M  V30 46 H -0.136500 -0.136207 -1.053267 0
M  V30 47 H -4.063537 0.260242 0.350304 0
M  V30 48 H -3.744363 0.763816 -1.307194 0
M  V30 49 H -3.261684 -2.038113 -0.042040 0
M  V30 50 H -4.625049 -1.526903 -1.028947 0
M  V30 51 H -1.685972 -1.853777 -1.868870 0
M  V30 52 H -4.854305 -3.155824 -4.276641 0
M  V30 53 H -5.278397 -2.558963 -2.662671 0
M  V30 54 H -4.979262 -1.399699 -4.084861 0
M  V30 55 H -1.599573 -1.948316 -4.611239 0
M  V30 56 H -2.785916 -3.174419 -5.127634 0
M  V30 57 H -1.668511 -3.587955 -3.785716 0
M  V30 58 H 4.349122 -3.148845 1.885123 0
M  V30 59 H 3.877259 -5.232952 3.047363 0
M  V30 60 H 2.186588 -6.120177 5.120772 0
M  V30 END ATOM
M  V30 BEGIN BOND
M  V30 1 1 1 2
M  V30 2 1 2 3
M  V30 3 2 3 4
M  V30 4 1 4 5
M  V30 5 1 5 6
M  V30 6 2 6 7
M  V30 7 1 7 8
M  V30 8 2 8 9
M  V30 9 1 8 10
M  V30 10 2 10 11
M  V30 11 1 11 12
M  V30 12 1 11 13
M  V30 13 2 13 14
M  V30 14 1 14 15
M  V30 15 1 14 16
M  V30 16 1 16 17
M  V30 17 1 17 18
M  V30 18 2 18 19
M  V30 19 1 19 20
M  V30 20 1 19 21
M  V30 21 1 21 22
M  V30 22 1 22 23
M  V30 23 2 23 24 CFG=2
M  V30 24 1 24 25
M  V30 25 1 24 26
M  V30 26 2 16 27
M  V30 27 1 27 28
M  V30 28 2 5 29
M  V30 29 1 29 30
M  V30 30 2 30 31
M  V30 31 1 31 32
M  V30 32 1 31 3
M  V30 33 1 28 6
M  V30 34 1 27 10
M  V30 35 1 1 33
M  V30 36 1 1 34
M  V30 37 1 1 35
M  V30 38 1 4 36
M  V30 39 1 7 37
M  V30 40 1 12 38
M  V30 41 1 13 39
M  V30 42 1 15 40
M  V30 43 1 17 41
M  V30 44 1 17 42
M  V30 45 1 18 43
M  V30 46 1 20 44
M  V30 47 1 20 45
M  V30 48 1 20 46
M  V30 49 1 21 47
M  V30 50 1 21 48
M  V30 51 1 22 49
M  V30 52 1 22 50
M  V30 53 1 23 51
M  V30 54 1 25 52
M  V30 55 1 25 53
M  V30 56 1 25 54
M  V30 57 1 26 55
M  V30 58 1 26 56
M  V30 59 1 26 57
M  V30 60 1 29 58
M  V30 61 1 30 59
M  V30 62 1 32 60
M  V30 END BOND
M  V30 END CTAB
M  END
>  <Dataset>  (100) 
ChEMBL_Kinases

>  <Ligand_Instance>  (100) 
nan

>  <PDB_ID>  (100) 
nan

>  <Standardized_SMILES>  (100) 
COc1cc(-c2cc(=O)c3c(O)cc(O)c(C/C=C(\C)CCC=C(C)C)c3o2)ccc1O

>  <Name>  (100) 
nan

>  <Pocket>  (100) 
nan

>  <ATP_Site>  (100) 
nan

>  <Peripheral>  (100) 
nan

>  <Num_H_Atoms_ProtBoundConf>  (100) 
nan

>  <Num_Resolved_Atoms>  (100) 
nan

>  <Num_Not_Resolved_Atoms>  (100) 
nan

$$$$
CHEMBL3685313
     RDKit          3D

  0  0  0  0  0  0  0  0  0  0999 V3000
M  V30 BEGIN CTAB
M  V30 COUNTS 47 50 0 0 0
M  V30 BEGIN ATOM
M  V30 1 C -1.294667 -5.269222 1.309550 0
M  V30 2 N -0.822525 -4.385399 0.244999 0
M  V30 3 C -0.235715 -3.189624 0.432355 0
M  V30 4 C 0.063235 -2.668450 -0.803817 0
M  V30 5 C 0.711507 -1.374780 -1.006529 0
M  V30 6 C 1.532068 -1.177575 -2.092430 0
M  V30 7 C 2.150184 0.038510 -2.295317 0
M  V30 8 C 3.037163 0.323847 -3.425167 0
M  V30 9 N 3.270178 -0.736986 -4.368872 0
M  V30 10 O 3.579912 1.458122 -3.570321 0
M  V30 11 C 1.891852 1.012132 -1.356709 0
M  V30 12 N 2.472890 2.207153 -1.521833 0
M  V30 13 C 2.302932 3.232748 -0.686090 0
M  V30 14 N 1.531503 3.102644 0.367203 0
M  V30 15 C 0.882630 1.951922 0.656876 0
M  V30 16 N 0.036528 1.752272 1.775626 0
M  V30 17 C -0.839852 1.078187 2.679155 0 CFG=1
M  V30 18 C -0.222086 -0.038062 3.467568 0
M  V30 19 C -0.887481 -0.039059 4.850044 0
M  V30 20 C -2.391446 -0.002238 4.640884 0
M  V30 21 N -2.803532 1.236967 4.007817 0
M  V30 22 C -1.651655 2.005563 3.579987 0
M  V30 23 C 1.084831 0.910278 -0.235550 0
M  V30 24 C 0.524008 -0.329271 -0.130188 0
M  V30 25 C -0.365067 -3.595357 -1.760100 0
M  V30 26 N -0.899446 -4.626213 -1.053789 0
M  V30 27 H -1.383978 -6.312873 0.947945 0
M  V30 28 H -0.612456 -5.269244 2.185116 0
M  V30 29 H -2.280713 -4.922083 1.710977 0
M  V30 30 H -0.027559 -2.708000 1.378334 0
M  V30 31 H 1.727745 -1.949660 -2.823652 0
M  V30 32 H 2.517709 -0.974150 -5.060013 0
M  V30 33 H 4.188442 -1.270864 -4.366185 0
M  V30 34 H 2.733144 4.220407 -0.749262 0
M  V30 35 H 0.060365 2.680946 2.295720 0
M  V30 36 H -1.637257 0.597126 2.019027 0
M  V30 37 H -0.455338 -0.993129 2.999870 0
M  V30 38 H 0.881340 0.104343 3.578812 0
M  V30 39 H -0.671627 -0.968691 5.414726 0
M  V30 40 H -0.558233 0.798399 5.464480 0
M  V30 41 H -2.714218 -0.863934 4.022397 0
M  V30 42 H -2.930899 -0.074869 5.605057 0
M  V30 43 H -3.448836 1.762908 4.603269 0
M  V30 44 H -2.011032 2.828401 2.924703 0
M  V30 45 H -1.073862 2.452481 4.388729 0
M  V30 46 H -0.128480 -0.542993 0.693839 0
M  V30 47 H -0.242120 -3.416899 -2.817642 0
M  V30 END ATOM
M  V30 BEGIN BOND
M  V30 1 1 1 2
M  V30 2 1 2 3
M  V30 3 2 3 4
M  V30 4 1 4 5
M  V30 5 2 5 6
M  V30 6 1 6 7
M  V30 7 1 7 8
M  V30 8 1 8 9
M  V30 9 2 8 10
M  V30 10 2 7 11
M  V30 11 1 11 12
M  V30 12 2 12 13
M  V30 13 1 13 14
M  V30 14 2 14 15
M  V30 15 1 15 16
M  V30 16 1 16 17
M  V30 17 1 17 18
M  V30 18 1 18 19
M  V30 19 1 19 20
M  V30 20 1 20 21
M  V30 21 1 21 22
M  V30 22 1 15 23
M  V30 23 2 23 24
M  V30 24 1 4 25
M  V30 25 2 25 26
M  V30 26 1 26 2
M  V30 27 1 24 5
M  V30 28 1 23 11
M  V30 29 1 22 17
M  V30 30 1 1 27
M  V30 31 1 1 28
M  V30 32 1 1 29
M  V30 33 1 3 30
M  V30 34 1 6 31
M  V30 35 1 9 32
M  V30 36 1 9 33
M  V30 37 1 13 34
M  V30 38 1 16 35
M  V30 39 1 17 36 CFG=3
M  V30 40 1 18 37
M  V30 41 1 18 38
M  V30 42 1 19 39
M  V30 43 1 19 40
M  V30 44 1 20 41
M  V30 45 1 20 42
M  V30 46 1 21 43
M  V30 47 1 22 44
M  V30 48 1 22 45
M  V30 49 1 24 46
M  V30 50 1 25 47
M  V30 END BOND
M  V30 END CTAB
M  END
>  <Dataset>  (101) 
ChEMBL_Kinases

>  <Ligand_Instance>  (101) 
nan

>  <PDB_ID>  (101) 
nan

>  <Standardized_SMILES>  (101) 
Cn1cc(-c2cc(C(N)=O)c3ncnc(N[C@H]4CCCNC4)c3c2)cn1

>  <Name>  (101) 
nan

>  <Pocket>  (101) 
nan

>  <ATP_Site>  (101) 
nan

>  <Peripheral>  (101) 
nan

>  <Num_H_Atoms_ProtBoundConf>  (101) 
nan

>  <Num_Resolved_Atoms>  (101) 
nan

>  <Num_Not_Resolved_Atoms>  (101) 
nan

$$$$
CHEMBL3685312
     RDKit          3D

  0  0  0  0  0  0  0  0  0  0999 V3000
M  V30 BEGIN CTAB
M  V30 COUNTS 51 54 0 0 0
M  V30 BEGIN ATOM
M  V30 1 C 5.491655 -6.421984 1.422684 0
M  V30 2 O 4.129884 -6.243600 1.122866 0
M  V30 3 C 3.595102 -4.997710 0.902985 0
M  V30 4 C 4.273819 -3.797919 0.940471 0
M  V30 5 C 3.677623 -2.576673 0.709880 0
M  V30 6 C 2.324877 -2.519229 0.422520 0
M  V30 7 C 1.773133 -1.182458 0.190493 0
M  V30 8 C 2.605325 -0.223174 -0.387697 0
M  V30 9 C 2.099357 1.050607 -0.615336 0
M  V30 10 C 2.899779 2.094795 -1.211018 0
M  V30 11 N 4.243142 1.797110 -1.573819 0
M  V30 12 O 2.440129 3.256585 -1.416191 0
M  V30 13 C 0.795448 1.330940 -0.265629 0
M  V30 14 N 0.294161 2.583757 -0.489263 0
M  V30 15 C -0.996563 2.855870 -0.142058 0
M  V30 16 N -1.781461 1.921754 0.412553 0
M  V30 17 C -1.369876 0.683174 0.661658 0
M  V30 18 N -2.229038 -0.281108 1.250217 0
M  V30 19 C -3.590100 0.090708 1.575422 0 CFG=1
M  V30 20 C -3.674152 1.258926 2.497029 0
M  V30 21 C -4.667948 2.298538 2.054232 0
M  V30 22 C -5.940217 1.665685 1.558315 0
M  V30 23 N -5.740857 0.683535 0.546613 0
M  V30 24 C -4.367205 0.320727 0.326787 0
M  V30 25 C -0.063987 0.416012 0.307854 0
M  V30 26 C 0.472048 -0.817661 0.512866 0
M  V30 27 C 1.605748 -3.696448 0.374701 0
M  V30 28 C 2.230212 -4.904854 0.610012 0
M  V30 29 H 6.168876 -5.847740 0.770483 0
M  V30 30 H 5.775888 -7.496530 1.352695 0
M  V30 31 H 5.725406 -6.122358 2.480730 0
M  V30 32 H 5.330949 -3.842265 1.164764 0
M  V30 33 H 4.311277 -1.697817 0.765891 0
M  V30 34 H 3.633978 -0.405670 -0.675545 0
M  V30 35 H 5.029164 2.384270 -1.212521 0
M  V30 36 H 4.338573 0.962633 -2.212584 0
M  V30 37 H -1.405455 3.847366 -0.314715 0
M  V30 38 H -1.957185 -1.261024 1.474260 0
M  V30 39 H -4.113652 -0.774417 2.091470 0
M  V30 40 H -2.649757 1.675514 2.607061 0
M  V30 41 H -3.980475 0.907412 3.501404 0
M  V30 42 H -4.906619 2.965372 2.908714 0
M  V30 43 H -4.237932 2.949244 1.269382 0
M  V30 44 H -6.416866 1.162262 2.438080 0
M  V30 45 H -6.686058 2.448838 1.273566 0
M  V30 46 H -6.132822 1.035587 -0.343665 0
M  V30 47 H -4.402857 -0.644523 -0.259619 0
M  V30 48 H -3.824180 1.030455 -0.316992 0
M  V30 49 H -0.081416 -1.614397 0.947023 0
M  V30 50 H 0.553380 -3.607616 0.147447 0
M  V30 51 H 1.645445 -5.827207 0.568186 0
M  V30 END ATOM
M  V30 BEGIN BOND
M  V30 1 1 1 2
M  V30 2 1 2 3
M  V30 3 2 3 4
M  V30 4 1 4 5
M  V30 5 2 5 6
M  V30 6 1 6 7
M  V30 7 2 7 8
M  V30 8 1 8 9
M  V30 9 1 9 10
M  V30 10 1 10 11
M  V30 11 2 10 12
M  V30 12 2 9 13
M  V30 13 1 13 14
M  V30 14 2 14 15
M  V30 15 1 15 16
M  V30 16 2 16 17
M  V30 17 1 17 18
M  V30 18 1 18 19
M  V30 19 1 19 20
M  V30 20 1 20 21
M  V30 21 1 21 22
M  V30 22 1 22 23
M  V30 23 1 23 24
M  V30 24 1 17 25
M  V30 25 2 25 26
M  V30 26 1 6 27
M  V30 27 2 27 28
M  V30 28 1 28 3
M  V30 29 1 26 7
M  V30 30 1 25 13
M  V30 31 1 24 19
M  V30 32 1 1 29
M  V30 33 1 1 30
M  V30 34 1 1 31
M  V30 35 1 4 32
M  V30 36 1 5 33
M  V30 37 1 8 34
M  V30 38 1 11 35
M  V30 39 1 11 36
M  V30 40 1 15 37
M  V30 41 1 18 38
M  V30 42 1 19 39 CFG=1
M  V30 43 1 20 40
M  V30 44 1 20 41
M  V30 45 1 21 42
M  V30 46 1 21 43
M  V30 47 1 22 44
M  V30 48 1 22 45
M  V30 49 1 23 46
M  V30 50 1 24 47
M  V30 51 1 24 48
M  V30 52 1 26 49
M  V30 53 1 27 50
M  V30 54 1 28 51
M  V30 END BOND
M  V30 END CTAB
M  END
>  <Dataset>  (102) 
ChEMBL_Kinases

>  <Ligand_Instance>  (102) 
nan

>  <PDB_ID>  (102) 
nan

>  <Standardized_SMILES>  (102) 
COc1ccc(-c2cc(C(N)=O)c3ncnc(N[C@H]4CCCNC4)c3c2)cc1

>  <Name>  (102) 
nan

>  <Pocket>  (102) 
nan

>  <ATP_Site>  (102) 
nan

>  <Peripheral>  (102) 
nan

>  <Num_H_Atoms_ProtBoundConf>  (102) 
nan

>  <Num_Resolved_Atoms>  (102) 
nan

>  <Num_Not_Resolved_Atoms>  (102) 
nan

$$$$
CHEMBL3685311
     RDKit          3D

  0  0  0  0  0  0  0  0  0  0999 V3000
M  V30 BEGIN CTAB
M  V30 COUNTS 44 47 0 0 0
M  V30 BEGIN ATOM
M  V30 1 N -1.766948 -4.608473 -2.298932 0
M  V30 2 C -0.534062 -3.973578 -2.584325 0
M  V30 3 O 0.187351 -4.427460 -3.512542 0
M  V30 4 C -0.082867 -2.813355 -1.833077 0
M  V30 5 C 1.104238 -2.205060 -2.112106 0
M  V30 6 C 1.499239 -1.106429 -1.378256 0
M  V30 7 C 2.764101 -0.438149 -1.655909 0
M  V30 8 C 2.955334 0.881210 -1.471372 0
M  V30 9 C 4.165131 1.449204 -1.747935 0
M  V30 10 S 5.226749 0.075542 -2.338051 0
M  V30 11 C 3.857181 -1.194225 -2.141388 0
M  V30 12 C 0.679029 -0.645915 -0.372641 0
M  V30 13 C -0.528862 -1.219607 -0.045890 0
M  V30 14 C -1.299389 -0.697723 0.969283 0
M  V30 15 N -0.943574 0.387795 1.773486 0
M  V30 16 C -0.075804 1.402135 2.216992 0 CFG=1
M  V30 17 C -0.680035 2.413814 3.197650 0
M  V30 18 C -0.211202 2.198692 4.604338 0
M  V30 19 C -0.156799 0.735710 4.913363 0
M  V30 20 N 0.784457 0.083091 4.057860 0
M  V30 21 C 1.165601 0.891294 2.920374 0
M  V30 22 N -2.445761 -1.373601 1.141328 0
M  V30 23 C -2.843654 -2.436106 0.439699 0
M  V30 24 N -2.031882 -2.873518 -0.524495 0
M  V30 25 C -0.862225 -2.310823 -0.817546 0
M  V30 26 H -1.586298 -5.079319 -1.373233 0
M  V30 27 H -2.722579 -4.732577 -2.709105 0
M  V30 28 H 1.704187 -2.614798 -2.914689 0
M  V30 29 H 2.217894 1.581649 -1.108489 0
M  V30 30 H 4.579059 2.412807 -1.699786 0
M  V30 31 H 3.886441 -2.244991 -2.345699 0
M  V30 32 H 1.015478 0.203692 0.155074 0
M  V30 33 H -1.746315 0.588654 2.424499 0
M  V30 34 H 0.259694 2.022458 1.361874 0
M  V30 35 H -1.792636 2.293863 3.200013 0
M  V30 36 H -0.464838 3.458844 2.915097 0
M  V30 37 H 0.757501 2.718038 4.759688 0
M  V30 38 H -0.945199 2.710141 5.281252 0
M  V30 39 H -1.170006 0.314269 4.729824 0
M  V30 40 H 0.083820 0.555622 5.993473 0
M  V30 41 H 1.622603 -0.304793 4.517435 0
M  V30 42 H 1.846394 0.303208 2.322444 0
M  V30 43 H 1.731405 1.793340 3.239845 0
M  V30 44 H -3.804066 -2.845392 0.728165 0
M  V30 END ATOM
M  V30 BEGIN BOND
M  V30 1 1 1 2
M  V30 2 2 2 3
M  V30 3 1 2 4
M  V30 4 2 4 5
M  V30 5 1 5 6
M  V30 6 1 6 7
M  V30 7 1 7 8
M  V30 8 2 8 9
M  V30 9 1 9 10
M  V30 10 1 10 11
M  V30 11 2 6 12
M  V30 12 1 12 13
M  V30 13 2 13 14
M  V30 14 1 14 15
M  V30 15 1 15 16
M  V30 16 1 16 17
M  V30 17 1 17 18
M  V30 18 1 18 19
M  V30 19 1 19 20
M  V30 20 1 20 21
M  V30 21 1 14 22
M  V30 22 2 22 23
M  V30 23 1 23 24
M  V30 24 2 24 25
M  V30 25 1 25 4
M  V30 26 2 11 7
M  V30 27 1 25 13
M  V30 28 1 21 16
M  V30 29 1 1 26
M  V30 30 1 1 27
M  V30 31 1 5 28
M  V30 32 1 8 29
M  V30 33 1 9 30
M  V30 34 1 11 31
M  V30 35 1 12 32
M  V30 36 1 15 33
M  V30 37 1 16 34 CFG=3
M  V30 38 1 17 35
M  V30 39 1 17 36
M  V30 40 1 18 37
M  V30 41 1 18 38
M  V30 42 1 19 39
M  V30 43 1 19 40
M  V30 44 1 20 41
M  V30 45 1 21 42
M  V30 46 1 21 43
M  V30 47 1 23 44
M  V30 END BOND
M  V30 END CTAB
M  END
>  <Dataset>  (103) 
ChEMBL_Kinases

>  <Ligand_Instance>  (103) 
nan

>  <PDB_ID>  (103) 
nan

>  <Standardized_SMILES>  (103) 
NC(=O)c1cc(-c2ccsc2)cc2c(N[C@H]3CCCNC3)ncnc12

>  <Name>  (103) 
nan

>  <Pocket>  (103) 
nan

>  <ATP_Site>  (103) 
nan

>  <Peripheral>  (103) 
nan

>  <Num_H_Atoms_ProtBoundConf>  (103) 
nan

>  <Num_Resolved_Atoms>  (103) 
nan

>  <Num_Not_Resolved_Atoms>  (103) 
nan

$$$$
CHEMBL3685309
     RDKit          3D

  0  0  0  0  0  0  0  0  0  0999 V3000
M  V30 BEGIN CTAB
M  V30 COUNTS 52 55 0 0 0
M  V30 BEGIN ATOM
M  V30 1 N 4.343265 -2.496648 -1.968523 0
M  V30 2 C 4.597896 -3.100494 -0.715634 0
M  V30 3 O 5.241189 -4.179705 -0.474439 0
M  V30 4 C 4.047392 -2.390629 0.468042 0
M  V30 5 C 4.287031 -2.973515 1.694423 0
M  V30 6 C 3.754985 -2.297022 2.800937 0
M  V30 7 C 3.036691 -1.118826 2.654149 0
M  V30 8 C 2.822343 -0.572604 1.411070 0
M  V30 9 C 2.109111 0.601013 1.274178 0
M  V30 10 N 1.528269 1.275420 2.379834 0
M  V30 11 C 0.774260 2.529725 2.308996 0
M  V30 12 C -0.279851 2.473030 1.243911 0
M  V30 13 C -0.080441 3.046599 0.010477 0
M  V30 14 C -0.997133 2.999069 -1.009748 0
M  V30 15 C -2.189221 2.357967 -0.839997 0
M  V30 16 C -2.366970 1.791661 0.400957 0
M  V30 17 N -3.559981 1.053966 0.760029 0
M  V30 18 C -3.159980 -0.252347 0.277138 0
M  V30 19 O -1.987849 -0.232695 -0.254305 0
M  V30 20 C -3.609562 -1.630302 0.166502 0
M  V30 21 C -4.598325 -1.925666 -0.739401 0
M  V30 22 C -5.021833 -3.225226 -0.874393 0
M  V30 23 C -4.414364 -4.170585 -0.074138 0
M  V30 24 C -3.420156 -3.879310 0.839432 0
M  V30 25 C -2.983080 -2.550132 0.981296 0
M  V30 26 C -1.933666 -2.313258 1.999796 0
M  V30 27 F -1.522476 -3.496525 2.600473 0
M  V30 28 F -2.600136 -1.620529 3.033295 0
M  V30 29 F -0.895852 -1.533404 1.607483 0
M  V30 30 C -1.464724 1.811687 1.477188 0
M  V30 31 N 1.959917 1.048946 0.039747 0
M  V30 32 C 2.431776 0.475680 -1.083377 0
M  V30 33 N 3.134526 -0.684449 -0.934341 0
M  V30 34 C 3.335451 -1.213622 0.282357 0
M  V30 35 H 4.734539 -2.526873 -2.924493 0
M  V30 36 H 4.752200 -2.541380 -2.925336 0
M  V30 37 H 4.844887 -3.887083 1.816709 0
M  V30 38 H 3.954169 -2.764970 3.746550 0
M  V30 39 H 2.673667 -0.684924 3.571568 0
M  V30 40 H 1.591836 0.924518 3.355178 0
M  V30 41 H 0.278061 2.766546 3.264615 0
M  V30 42 H 1.474742 3.340613 2.102186 0
M  V30 43 H 0.853121 3.567774 -0.147061 0
M  V30 44 H -0.803672 3.466989 -1.976437 0
M  V30 45 H -2.962580 2.273388 -1.582951 0
M  V30 46 H -4.509176 0.892191 1.145081 0
M  V30 47 H -5.038209 -1.142716 -1.341554 0
M  V30 48 H -5.778696 -3.550809 -1.544103 0
M  V30 49 H -4.695253 -5.214757 -0.122859 0
M  V30 50 H -2.967933 -4.657058 1.450061 0
M  V30 51 H -1.642673 1.357530 2.434413 0
M  V30 52 H 2.286807 0.877205 -2.081292 0
M  V30 END ATOM
M  V30 BEGIN BOND
M  V30 1 1 1 2
M  V30 2 2 2 3
M  V30 3 1 2 4
M  V30 4 2 4 5
M  V30 5 1 5 6
M  V30 6 2 6 7
M  V30 7 1 7 8
M  V30 8 2 8 9
M  V30 9 1 9 10
M  V30 10 1 10 11
M  V30 11 1 11 12
M  V30 12 2 12 13
M  V30 13 1 13 14
M  V30 14 2 14 15
M  V30 15 1 15 16
M  V30 16 1 16 17
M  V30 17 1 17 18
M  V30 18 2 18 19
M  V30 19 1 18 20
M  V30 20 2 20 21
M  V30 21 1 21 22
M  V30 22 2 22 23
M  V30 23 1 23 24
M  V30 24 2 24 25
M  V30 25 1 25 26
M  V30 26 1 26 27
M  V30 27 1 26 28
M  V30 28 1 26 29
M  V30 29 2 16 30
M  V30 30 1 9 31
M  V30 31 2 31 32
M  V30 32 1 32 33
M  V30 33 2 33 34
M  V30 34 1 34 4
M  V30 35 1 34 8
M  V30 36 1 30 12
M  V30 37 1 25 20
M  V30 38 1 1 35
M  V30 39 1 1 36
M  V30 40 1 5 37
M  V30 41 1 6 38
M  V30 42 1 7 39
M  V30 43 1 10 40
M  V30 44 1 11 41
M  V30 45 1 11 42
M  V30 46 1 13 43
M  V30 47 1 14 44
M  V30 48 1 15 45
M  V30 49 1 17 46
M  V30 50 1 21 47
M  V30 51 1 22 48
M  V30 52 1 23 49
M  V30 53 1 24 50
M  V30 54 1 30 51
M  V30 55 1 32 52
M  V30 END BOND
M  V30 END CTAB
M  END
>  <Dataset>  (104) 
ChEMBL_Kinases

>  <Ligand_Instance>  (104) 
nan

>  <PDB_ID>  (104) 
nan

>  <Standardized_SMILES>  (104) 
NC(=O)c1cccc2c(NCc3cccc(NC(=O)c4ccccc4C(F)(F)F)c3)ncnc12

>  <Name>  (104) 
nan

>  <Pocket>  (104) 
nan

>  <ATP_Site>  (104) 
nan

>  <Peripheral>  (104) 
nan

>  <Num_H_Atoms_ProtBoundConf>  (104) 
nan

>  <Num_Resolved_Atoms>  (104) 
nan

>  <Num_Not_Resolved_Atoms>  (104) 
nan

$$$$
CHEMBL4293467
     RDKit          3D

  0  0  0  0  0  0  0  0  0  0999 V3000
M  V30 BEGIN CTAB
M  V30 COUNTS 40 43 0 0 0
M  V30 BEGIN ATOM
M  V30 1 C 2.442848 -5.482040 3.603730 0
M  V30 2 S 3.254163 -4.612625 2.259385 0
M  V30 3 C 2.294637 -3.187231 1.739449 0
M  V30 4 N 1.111681 -2.885143 2.349785 0
M  V30 5 C 0.395819 -1.796309 1.940036 0
M  V30 6 C 0.892125 -1.024847 0.911604 0
M  V30 7 C 2.097349 -1.379419 0.330019 0
M  V30 8 N 2.826803 -2.453973 0.717494 0
M  V30 9 N 2.749515 -0.696390 -0.737010 0
M  V30 10 C 2.587695 0.680162 -1.067604 0
M  V30 11 N 3.517154 1.417721 -1.723967 0
M  V30 12 N 3.042779 2.657980 -1.866873 0
M  V30 13 C 1.811654 2.708094 -1.301084 0
M  V30 14 C 0.953617 3.926239 -1.256514 0
M  V30 15 C 1.485970 1.462952 -0.779422 0
M  V30 16 N 0.273396 1.132710 -0.109942 0
M  V30 17 C 0.002450 0.089546 0.607736 0
M  V30 18 C -1.346126 0.049098 1.160789 0
M  V30 19 C -1.610465 0.689201 2.353822 0
M  V30 20 C -2.885969 0.652943 2.880303 0
M  V30 21 C -3.892832 -0.019461 2.218392 0
M  V30 22 C -3.567175 -0.638215 1.032864 0
M  V30 23 C -2.300896 -0.643598 0.440934 0
M  V30 24 C -2.073755 -1.343654 -0.835308 0
M  V30 25 F -3.278940 -1.925114 -1.253734 0
M  V30 26 F -1.688689 -0.477304 -1.844469 0
M  V30 27 F -1.188142 -2.380557 -0.778338 0
M  V30 28 H 3.197796 -5.729445 4.405008 0
M  V30 29 H 1.684481 -4.811782 4.090933 0
M  V30 30 H 1.905216 -6.403774 3.295215 0
M  V30 31 H -0.544694 -1.532803 2.405213 0
M  V30 32 H 3.393345 -1.231557 -1.324663 0
M  V30 33 H 3.526223 3.457645 -2.331257 0
M  V30 34 H 0.102539 3.742170 -0.555567 0
M  V30 35 H 0.622643 4.252677 -2.252249 0
M  V30 36 H 1.518333 4.769488 -0.760793 0
M  V30 37 H -0.781056 1.203582 2.832944 0
M  V30 38 H -3.072253 1.159552 3.813978 0
M  V30 39 H -4.904701 -0.071153 2.597680 0
M  V30 40 H -4.351060 -1.173811 0.497307 0
M  V30 END ATOM
M  V30 BEGIN BOND
M  V30 1 1 1 2
M  V30 2 1 2 3
M  V30 3 2 3 4
M  V30 4 1 4 5
M  V30 5 2 5 6
M  V30 6 1 6 7
M  V30 7 2 7 8
M  V30 8 1 7 9
M  V30 9 1 9 10
M  V30 10 2 10 11
M  V30 11 1 11 12
M  V30 12 1 12 13
M  V30 13 1 13 14
M  V30 14 2 13 15
M  V30 15 1 15 16
M  V30 16 2 16 17
M  V30 17 1 17 18
M  V30 18 2 18 19
M  V30 19 1 19 20
M  V30 20 2 20 21
M  V30 21 1 21 22
M  V30 22 2 22 23
M  V30 23 1 23 24
M  V30 24 1 24 25
M  V30 25 1 24 26
M  V30 26 1 24 27
M  V30 27 1 8 3
M  V30 28 1 15 10
M  V30 29 1 23 18
M  V30 30 1 17 6
M  V30 31 1 1 28
M  V30 32 1 1 29
M  V30 33 1 1 30
M  V30 34 1 5 31
M  V30 35 1 9 32
M  V30 36 1 12 33
M  V30 37 1 14 34
M  V30 38 1 14 35
M  V30 39 1 14 36
M  V30 40 1 19 37
M  V30 41 1 20 38
M  V30 42 1 21 39
M  V30 43 1 22 40
M  V30 END BOND
M  V30 END CTAB
M  END
>  <Dataset>  (105) 
ChEMBL_Kinases

>  <Ligand_Instance>  (105) 
nan

>  <PDB_ID>  (105) 
nan

>  <Standardized_SMILES>  (105) 
CSc1ncc2c(n1)Nc1n[nH]c(C)c1N=C2c1ccccc1C(F)(F)F

>  <Name>  (105) 
nan

>  <Pocket>  (105) 
nan

>  <ATP_Site>  (105) 
nan

>  <Peripheral>  (105) 
nan

>  <Num_H_Atoms_ProtBoundConf>  (105) 
nan

>  <Num_Resolved_Atoms>  (105) 
nan

>  <Num_Not_Resolved_Atoms>  (105) 
nan

$$$$
CHEMBL3701767
     RDKit          3D

  0  0  0  0  0  0  0  0  0  0999 V3000
M  V30 BEGIN CTAB
M  V30 COUNTS 61 66 0 0 0
M  V30 BEGIN ATOM
M  V30 1 C 6.676413 -0.059368 3.309857 0
M  V30 2 C 5.314807 -0.021137 2.684894 0
M  V30 3 O 4.921227 -1.326411 2.324120 0
M  V30 4 C 5.150018 1.001950 1.603000 0
M  V30 5 C 3.836864 1.397647 2.163719 0
M  V30 6 N 3.699596 2.823586 2.401899 0
M  V30 7 C 2.609587 0.847879 1.564412 0
M  V30 8 C 2.499863 -0.016855 0.516643 0
M  V30 9 C 1.247930 -0.418350 0.099250 0
M  V30 10 C 0.069624 0.027712 0.710718 0
M  V30 11 C -1.120386 -0.542002 0.088934 0
M  V30 12 N -1.316759 -1.886194 0.189238 0
M  V30 13 C -2.458460 -2.242324 -0.435620 0
M  V30 14 N -2.984539 -1.112702 -0.933174 0
M  V30 15 C -2.196483 -0.066863 -0.631591 0
M  V30 16 C -2.305411 1.357099 -0.927819 0
M  V30 17 C -2.484519 2.437805 -0.092135 0
M  V30 18 C -2.554870 3.712281 -0.611483 0
M  V30 19 C -2.448677 3.930074 -1.965302 0
M  V30 20 C -2.269460 2.859490 -2.813648 0
M  V30 21 C -2.195315 1.556967 -2.306595 0
M  V30 22 C -4.215892 -1.119906 -1.668235 0
M  V30 23 O -4.792179 -2.374429 -1.808195 0
M  V30 24 C -4.308039 -3.575754 -1.323730 0
M  V30 25 C -4.967972 -4.770007 -1.523814 0
M  V30 26 C -4.500688 -5.974117 -1.049155 0
M  V30 27 C -3.314207 -5.852710 -0.360407 0
M  V30 28 C -2.712871 -7.055313 0.195408 0
M  V30 29 N -3.349016 -8.345404 0.033508 0
M  V30 30 O -1.835637 -7.684965 0.819324 0
M  V30 31 C -2.611305 -4.699707 -0.127916 0
M  V30 32 C -3.130043 -3.523557 -0.628613 0
M  V30 33 C 0.201787 0.901902 1.768888 0
M  V30 34 C 1.458414 1.295603 2.176430 0
M  V30 35 C 4.248684 0.723233 3.471847 0
M  V30 36 H 7.165724 0.940266 3.333940 0
M  V30 37 H 7.267156 -0.807428 2.727954 0
M  V30 38 H 6.660842 -0.474991 4.347981 0
M  V30 39 H 4.012133 -1.489970 2.679982 0
M  V30 40 H 5.217186 0.661088 0.557093 0
M  V30 41 H 5.927253 1.809315 1.739156 0
M  V30 42 H 3.700571 3.377448 1.539816 0
M  V30 43 H 4.513103 3.125709 2.982397 0
M  V30 44 H 3.421937 -0.336101 0.074016 0
M  V30 45 H 1.285613 -1.113129 -0.749983 0
M  V30 46 H -2.556020 2.140398 0.943533 0
M  V30 47 H -2.698354 4.450081 0.186797 0
M  V30 48 H -2.515689 4.961259 -2.276235 0
M  V30 49 H -2.190951 3.087618 -3.881797 0
M  V30 50 H -2.053868 0.828207 -3.088251 0
M  V30 51 H -4.971882 -0.431833 -1.239529 0
M  V30 52 H -4.057753 -0.734568 -2.715615 0
M  V30 53 H -5.899782 -4.769332 -2.080562 0
M  V30 54 H -4.968011 -6.929319 -1.172834 0
M  V30 55 H -4.058060 -8.947319 0.507525 0
M  V30 56 H -3.352111 -9.184801 -0.620789 0
M  V30 57 H -1.682212 -4.677662 0.423400 0
M  V30 58 H -0.750121 1.191350 2.179485 0
M  V30 59 H 1.429043 1.992091 3.027308 0
M  V30 60 H 3.499153 0.065723 3.912949 0
M  V30 61 H 4.765198 1.400130 4.183036 0
M  V30 END ATOM
M  V30 BEGIN BOND
M  V30 1 1 1 2
M  V30 2 1 2 3
M  V30 3 1 2 4
M  V30 4 1 4 5
M  V30 5 1 5 6
M  V30 6 1 5 7
M  V30 7 2 7 8
M  V30 8 1 8 9
M  V30 9 2 9 10
M  V30 10 1 10 11
M  V30 11 1 11 12
M  V30 12 2 12 13
M  V30 13 1 13 14
M  V30 14 1 14 15
M  V30 15 1 15 16
M  V30 16 2 16 17
M  V30 17 1 17 18
M  V30 18 2 18 19
M  V30 19 1 19 20
M  V30 20 2 20 21
M  V30 21 1 14 22
M  V30 22 1 22 23
M  V30 23 1 23 24
M  V30 24 2 24 25
M  V30 25 1 25 26
M  V30 26 2 26 27
M  V30 27 1 27 28
M  V30 28 1 28 29
M  V30 29 2 28 30
M  V30 30 1 27 31
M  V30 31 2 31 32
M  V30 32 1 10 33
M  V30 33 2 33 34
M  V30 34 1 5 35
M  V30 35 1 35 2
M  V30 36 1 34 7
M  V30 37 2 15 11
M  V30 38 1 21 16
M  V30 39 1 32 24
M  V30 40 1 32 13
M  V30 41 1 1 36
M  V30 42 1 1 37
M  V30 43 1 1 38
M  V30 44 1 3 39
M  V30 45 1 4 40
M  V30 46 1 4 41
M  V30 47 1 6 42
M  V30 48 1 6 43
M  V30 49 1 8 44
M  V30 50 1 9 45
M  V30 51 1 17 46
M  V30 52 1 18 47
M  V30 53 1 19 48
M  V30 54 1 20 49
M  V30 55 1 21 50
M  V30 56 1 22 51
M  V30 57 1 22 52
M  V30 58 1 25 53
M  V30 59 1 26 54
M  V30 60 1 29 55
M  V30 61 1 29 56
M  V30 62 1 31 57
M  V30 63 1 33 58
M  V30 64 1 34 59
M  V30 65 1 35 60
M  V30 66 1 35 61
M  V30 END BOND
M  V30 END CTAB
M  END
>  <Dataset>  (106) 
ChEMBL_Kinases

>  <Ligand_Instance>  (106) 
nan

>  <PDB_ID>  (106) 
nan

>  <Standardized_SMILES>  (106) 
CC1(O)CC(N)(c2ccc(-c3nc4n(c3-c3ccccc3)COc3ccc(C(N)=O)cc3-4)cc2)C1

>  <Name>  (106) 
nan

>  <Pocket>  (106) 
nan

>  <ATP_Site>  (106) 
nan

>  <Peripheral>  (106) 
nan

>  <Num_H_Atoms_ProtBoundConf>  (106) 
nan

>  <Num_Resolved_Atoms>  (106) 
nan

>  <Num_Not_Resolved_Atoms>  (106) 
nan

$$$$
CHEMBL3685308
     RDKit          3D

  0  0  0  0  0  0  0  0  0  0999 V3000
M  V30 BEGIN CTAB
M  V30 COUNTS 54 57 0 0 0
M  V30 BEGIN ATOM
M  V30 1 N 5.953350 -3.370932 -0.288201 0
M  V30 2 C 5.097870 -3.738686 -1.377344 0
M  V30 3 O 5.384936 -4.850450 -1.892514 0
M  V30 4 C 3.998766 -2.894882 -1.838174 0
M  V30 5 C 3.796123 -1.748963 -1.217041 0
M  V30 6 N 4.624853 -1.433318 -0.190675 0
M  V30 7 C 4.458646 -0.267192 0.479411 0
M  V30 8 N 3.471362 0.535285 0.096324 0
M  V30 9 C 2.601863 0.327364 -0.892772 0
M  V30 10 N 1.583022 1.222645 -1.246900 0
M  V30 11 C 1.294340 2.494534 -0.616749 0
M  V30 12 C 0.907502 2.260926 0.803297 0
M  V30 13 C 1.624688 2.274528 1.978818 0
M  V30 14 C 1.003935 2.004556 3.158070 0
M  V30 15 C -0.338120 1.707344 3.274069 0
M  V30 16 C -1.065962 1.691692 2.100728 0
M  V30 17 N -2.449797 1.383801 2.234764 0
M  V30 18 C -2.660871 -0.017134 2.129688 0
M  V30 19 O -1.640879 -0.730659 1.943717 0
M  V30 20 C -3.964346 -0.667988 2.222473 0
M  V30 21 C -3.970435 -2.042332 2.095900 0
M  V30 22 C -5.213696 -2.678979 2.182906 0
M  V30 23 C -6.373840 -1.952850 2.386370 0
M  V30 24 C -7.602839 -2.773564 2.454643 0
M  V30 25 F -8.595296 -2.021903 3.027554 0
M  V30 26 F -7.925926 -3.208949 1.193453 0
M  V30 27 F -7.440325 -3.903462 3.230666 0
M  V30 28 C -6.339580 -0.568092 2.510599 0
M  V30 29 C -5.114710 0.067840 2.425687 0
M  V30 30 C -0.449685 1.966170 0.873301 0
M  V30 31 C 2.795178 -0.864940 -1.555313 0
M  V30 32 C 2.034910 -1.247173 -2.564062 0
M  V30 33 C 2.095423 -2.470210 -3.378565 0
M  V30 34 C 3.198113 -3.406381 -2.974655 0
M  V30 35 H 5.690060 -3.798045 0.635104 0
M  V30 36 H 6.787016 -2.844985 0.101322 0
M  V30 37 H 5.131483 -0.022191 1.304700 0
M  V30 38 H 0.917637 1.064205 -2.009412 0
M  V30 39 H 2.264764 3.054239 -0.660020 0
M  V30 40 H 0.574793 3.124031 -1.145034 0
M  V30 41 H 2.656202 2.521112 1.810260 0
M  V30 42 H 1.641689 2.036011 4.035581 0
M  V30 43 H -0.765596 1.502156 4.249810 0
M  V30 44 H -3.259029 1.992633 2.386274 0
M  V30 45 H -3.084473 -2.649243 1.935662 0
M  V30 46 H -5.202141 -3.773849 2.080148 0
M  V30 47 H -7.289165 -0.069223 2.668284 0
M  V30 48 H -5.104004 1.134370 2.523222 0
M  V30 49 H -1.175921 1.910024 0.047092 0
M  V30 50 H 1.219356 -0.632661 -2.912657 0
M  V30 51 H 1.143812 -3.041269 -3.377541 0
M  V30 52 H 2.233162 -2.150964 -4.447911 0
M  V30 53 H 2.831724 -4.434012 -2.761632 0
M  V30 54 H 3.901018 -3.523441 -3.824027 0
M  V30 END ATOM
M  V30 BEGIN BOND
M  V30 1 1 1 2
M  V30 2 2 2 3
M  V30 3 1 2 4
M  V30 4 2 4 5
M  V30 5 1 5 6
M  V30 6 2 6 7
M  V30 7 1 7 8
M  V30 8 2 8 9
M  V30 9 1 9 10
M  V30 10 1 10 11
M  V30 11 1 11 12
M  V30 12 2 12 13
M  V30 13 1 13 14
M  V30 14 2 14 15
M  V30 15 1 15 16
M  V30 16 1 16 17
M  V30 17 1 17 18
M  V30 18 2 18 19
M  V30 19 1 18 20
M  V30 20 2 20 21
M  V30 21 1 21 22
M  V30 22 2 22 23
M  V30 23 1 23 24
M  V30 24 1 24 25
M  V30 25 1 24 26
M  V30 26 1 24 27
M  V30 27 1 23 28
M  V30 28 2 28 29
M  V30 29 2 16 30
M  V30 30 1 9 31
M  V30 31 2 31 32
M  V30 32 1 32 33
M  V30 33 1 33 34
M  V30 34 1 34 4
M  V30 35 1 31 5
M  V30 36 1 30 12
M  V30 37 1 29 20
M  V30 38 1 1 35
M  V30 39 1 1 36
M  V30 40 1 7 37
M  V30 41 1 10 38
M  V30 42 1 11 39
M  V30 43 1 11 40
M  V30 44 1 13 41
M  V30 45 1 14 42
M  V30 46 1 15 43
M  V30 47 1 17 44
M  V30 48 1 21 45
M  V30 49 1 22 46
M  V30 50 1 28 47
M  V30 51 1 29 48
M  V30 52 1 30 49
M  V30 53 1 32 50
M  V30 54 1 33 51
M  V30 55 1 33 52
M  V30 56 1 34 53
M  V30 57 1 34 54
M  V30 END BOND
M  V30 END CTAB
M  END
>  <Dataset>  (107) 
ChEMBL_Kinases

>  <Ligand_Instance>  (107) 
nan

>  <PDB_ID>  (107) 
nan

>  <Standardized_SMILES>  (107) 
NC(=O)C1=c2ncnc(NCc3cccc(NC(=O)c4ccc(C(F)(F)F)cc4)c3)c2=CCC1

>  <Name>  (107) 
nan

>  <Pocket>  (107) 
nan

>  <ATP_Site>  (107) 
nan

>  <Peripheral>  (107) 
nan

>  <Num_H_Atoms_ProtBoundConf>  (107) 
nan

>  <Num_Resolved_Atoms>  (107) 
nan

>  <Num_Not_Resolved_Atoms>  (107) 
nan

$$$$
CHEMBL3685314
     RDKit          3D

  0  0  0  0  0  0  0  0  0  0999 V3000
M  V30 BEGIN CTAB
M  V30 COUNTS 57 61 0 0 0
M  V30 BEGIN ATOM
M  V30 1 C 6.752133 -5.758384 3.934923 0
M  V30 2 O 5.609845 -5.703990 3.104613 0
M  V30 3 C 4.998316 -4.510887 2.743044 0
M  V30 4 C 5.438144 -3.267257 3.152457 0
M  V30 5 C 4.742099 -2.147802 2.724005 0
M  V30 6 C 3.623269 -2.255656 1.899748 0
M  V30 7 C 2.969589 -1.094243 1.505934 0
M  V30 8 C 1.862787 -1.225110 0.689572 0
M  V30 9 C 1.084841 -0.083395 0.205498 0
M  V30 10 C 1.757924 1.100499 -0.018398 0
M  V30 11 C 1.022522 2.176392 -0.474661 0
M  V30 12 C 1.626345 3.476362 -0.746670 0
M  V30 13 N 3.004420 3.785368 -0.580950 0
M  V30 14 O 1.121862 4.538611 -1.155395 0
M  V30 15 C -0.334757 2.075027 -0.699435 0
M  V30 16 N -1.048203 3.131385 -1.145819 0
M  V30 17 C -2.378186 3.043625 -1.369473 0
M  V30 18 N -2.988893 1.879109 -1.139629 0
M  V30 19 C -2.389809 0.784816 -0.703516 0
M  V30 20 N -3.077296 -0.435670 -0.472884 0
M  V30 21 C -4.496150 -0.596418 -0.699581 0 CFG=1
M  V30 22 C -5.351446 0.361363 0.100248 0
M  V30 23 C -6.804716 0.107089 -0.240106 0
M  V30 24 C -6.973352 -0.872218 -1.358960 0
M  V30 25 N -6.162262 -0.583392 -2.499761 0
M  V30 26 C -4.764164 -0.405626 -2.169978 0
M  V30 27 C -1.036041 0.902191 -0.484116 0
M  V30 28 C -0.273148 -0.144465 -0.031322 0
M  V30 29 C 1.406045 -2.462412 0.268258 0
M  V30 30 C 2.073206 -3.614861 0.672525 0
M  V30 31 C 3.183253 -3.519580 1.488752 0
M  V30 32 C 3.880094 -4.625396 1.918713 0
M  V30 33 H 6.664723 -5.102150 4.832218 0
M  V30 34 H 6.850583 -6.785873 4.351536 0
M  V30 35 H 7.676181 -5.463881 3.430737 0
M  V30 36 H 6.314877 -3.217169 3.795923 0
M  V30 37 H 5.100449 -1.162035 3.055441 0
M  V30 38 H 3.274208 -0.106181 1.798447 0
M  V30 39 H 2.819146 1.208336 0.148801 0
M  V30 40 H 3.798508 3.647244 -1.247635 0
M  V30 41 H 3.533572 4.207874 0.215856 0
M  V30 42 H -2.960918 3.888779 -1.728813 0
M  V30 43 H -2.611443 -1.299861 -0.125760 0
M  V30 44 H -4.846282 -1.621215 -0.362238 0
M  V30 45 H -5.060396 1.393728 -0.126430 0
M  V30 46 H -5.217211 0.178995 1.185482 0
M  V30 47 H -7.350661 -0.326146 0.641981 0
M  V30 48 H -7.246085 1.066869 -0.554746 0
M  V30 49 H -8.045217 -0.814561 -1.662081 0
M  V30 50 H -6.822498 -1.924614 -1.042360 0
M  V30 51 H -6.488446 0.307535 -2.952573 0
M  V30 52 H -4.213708 -1.237291 -2.698649 0
M  V30 53 H -4.378645 0.559875 -2.485383 0
M  V30 54 H -0.691411 -1.104802 0.173932 0
M  V30 55 H 0.558046 -2.658498 -0.364113 0
M  V30 56 H 1.796850 -4.621023 0.399106 0
M  V30 57 H 3.529523 -5.582762 1.594776 0
M  V30 END ATOM
M  V30 BEGIN BOND
M  V30 1 1 1 2
M  V30 2 1 2 3
M  V30 3 2 3 4
M  V30 4 1 4 5
M  V30 5 2 5 6
M  V30 6 1 6 7
M  V30 7 2 7 8
M  V30 8 1 8 9
M  V30 9 2 9 10
M  V30 10 1 10 11
M  V30 11 1 11 12
M  V30 12 1 12 13
M  V30 13 2 12 14
M  V30 14 2 11 15
M  V30 15 1 15 16
M  V30 16 2 16 17
M  V30 17 1 17 18
M  V30 18 2 18 19
M  V30 19 1 19 20
M  V30 20 1 20 21
M  V30 21 1 21 22
M  V30 22 1 22 23
M  V30 23 1 23 24
M  V30 24 1 24 25
M  V30 25 1 25 26
M  V30 26 1 19 27
M  V30 27 2 27 28
M  V30 28 1 8 29
M  V30 29 2 29 30
M  V30 30 1 30 31
M  V30 31 2 31 32
M  V30 32 1 32 3
M  V30 33 1 31 6
M  V30 34 1 28 9
M  V30 35 1 27 15
M  V30 36 1 26 21
M  V30 37 1 1 33
M  V30 38 1 1 34
M  V30 39 1 1 35
M  V30 40 1 4 36
M  V30 41 1 5 37
M  V30 42 1 7 38
M  V30 43 1 10 39
M  V30 44 1 13 40
M  V30 45 1 13 41
M  V30 46 1 17 42
M  V30 47 1 20 43
M  V30 48 1 21 44 CFG=1
M  V30 49 1 22 45
M  V30 50 1 22 46
M  V30 51 1 23 47
M  V30 52 1 23 48
M  V30 53 1 24 49
M  V30 54 1 24 50
M  V30 55 1 25 51
M  V30 56 1 26 52
M  V30 57 1 26 53
M  V30 58 1 28 54
M  V30 59 1 29 55
M  V30 60 1 30 56
M  V30 61 1 32 57
M  V30 END BOND
M  V30 END CTAB
M  END
>  <Dataset>  (108) 
ChEMBL_Kinases

>  <Ligand_Instance>  (108) 
nan

>  <PDB_ID>  (108) 
nan

>  <Standardized_SMILES>  (108) 
COc1ccc2cc(-c3cc(C(N)=O)c4ncnc(N[C@H]5CCCNC5)c4c3)ccc2c1

>  <Name>  (108) 
nan

>  <Pocket>  (108) 
nan

>  <ATP_Site>  (108) 
nan

>  <Peripheral>  (108) 
nan

>  <Num_H_Atoms_ProtBoundConf>  (108) 
nan

>  <Num_Resolved_Atoms>  (108) 
nan

>  <Num_Not_Resolved_Atoms>  (108) 
nan

$$$$
CHEMBL3685207
     RDKit          3D

  0  0  0  0  0  0  0  0  0  0999 V3000
M  V30 BEGIN CTAB
M  V30 COUNTS 60 63 0 0 0
M  V30 BEGIN ATOM
M  V30 1 C 3.950113 -2.995544 0.941646 0
M  V30 2 O 4.490526 -1.718969 1.097604 0
M  V30 3 C 3.601786 -0.724431 0.753718 0
M  V30 4 C 4.322688 0.612432 0.974224 0
M  V30 5 O 3.427662 1.604638 0.629230 0
M  V30 6 C 3.551801 2.955637 0.640125 0
M  V30 7 C 4.757684 3.463887 1.059062 0
M  V30 8 C 4.910252 4.841102 1.079510 0
M  V30 9 C 3.853856 5.630562 0.681760 0
M  V30 10 C 2.660913 5.080271 0.268490 0
M  V30 11 C 2.468159 3.692689 0.233962 0
M  V30 12 C 1.170525 3.239721 -0.214760 0
M  V30 13 O 0.273983 4.049661 -0.558976 0
M  V30 14 N 0.727663 1.917170 -0.332648 0
M  V30 15 C -0.500450 1.353040 -0.754827 0
M  V30 16 C -0.546008 1.091020 -2.115374 0
M  V30 17 C -1.689525 0.538002 -2.651455 0
M  V30 18 C -2.743062 0.266308 -1.817507 0
M  V30 19 C -2.739231 0.509292 -0.466825 0
M  V30 20 C -3.808467 0.242398 0.528517 0
M  V30 21 N -3.552274 -1.039673 1.146715 0
M  V30 22 C -3.476748 -2.292272 0.530329 0
M  V30 23 N -3.636253 -2.495895 -0.778393 0
M  V30 24 C -3.570527 -3.677755 -1.406563 0
M  V30 25 N -3.323403 -4.795445 -0.702210 0
M  V30 26 C -3.150982 -4.669115 0.623784 0
M  V30 27 C -2.898061 -5.821301 1.351597 0
M  V30 28 C -2.826561 -7.085285 0.645218 0
M  V30 29 N -2.980531 -7.173083 -0.774288 0
M  V30 30 O -2.633128 -8.236036 1.108434 0
M  V30 31 C -2.709651 -5.801126 2.709353 0
M  V30 32 C -2.780330 -4.577206 3.343583 0
M  V30 33 C -3.032919 -3.453677 2.590942 0
M  V30 34 C -3.225252 -3.450812 1.226563 0
M  V30 35 C -1.569146 1.071122 0.056958 0
M  V30 36 H 3.643772 -3.198595 -0.094161 0
M  V30 37 H 4.761301 -3.713662 1.181239 0
M  V30 38 H 3.084323 -3.058913 1.647856 0
M  V30 39 H 2.720768 -0.743880 1.404199 0
M  V30 40 H 3.251277 -0.802929 -0.295642 0
M  V30 41 H 4.504676 0.653403 2.078495 0
M  V30 42 H 5.269241 0.605415 0.440287 0
M  V30 43 H 5.556079 2.835538 1.360833 0
M  V30 44 H 5.854848 5.252763 1.407877 0
M  V30 45 H 3.932039 6.704025 0.683780 0
M  V30 46 H 1.850094 5.757916 -0.038458 0
M  V30 47 H 1.355741 1.127990 -0.083692 0
M  V30 48 H 0.248685 1.285059 -2.807283 0
M  V30 49 H -1.805714 0.302219 -3.707035 0
M  V30 50 H -3.641960 -0.153288 -2.211771 0
M  V30 51 H -3.851743 1.087701 1.224603 0
M  V30 52 H -4.792464 0.155146 -0.004173 0
M  V30 53 H -3.422291 -0.920784 2.165066 0
M  V30 54 H -3.705687 -3.800122 -2.472089 0
M  V30 55 H -2.029111 -7.173507 -1.227187 0
M  V30 56 H -4.019419 -7.213554 -0.978429 0
M  V30 57 H -2.511112 -6.707376 3.278389 0
M  V30 58 H -2.631388 -4.563611 4.413300 0
M  V30 59 H -3.069143 -2.546585 3.173883 0
M  V30 60 H -1.371238 1.333341 1.077485 0
M  V30 END ATOM
M  V30 BEGIN BOND
M  V30 1 1 1 2
M  V30 2 1 2 3
M  V30 3 1 3 4
M  V30 4 1 4 5
M  V30 5 1 5 6
M  V30 6 2 6 7
M  V30 7 1 7 8
M  V30 8 2 8 9
M  V30 9 1 9 10
M  V30 10 2 10 11
M  V30 11 1 11 12
M  V30 12 2 12 13
M  V30 13 1 12 14
M  V30 14 1 14 15
M  V30 15 2 15 16
M  V30 16 1 16 17
M  V30 17 2 17 18
M  V30 18 1 18 19
M  V30 19 1 19 20
M  V30 20 1 20 21
M  V30 21 1 21 22
M  V30 22 2 22 23
M  V30 23 1 23 24
M  V30 24 2 24 25
M  V30 25 1 25 26
M  V30 26 2 26 27
M  V30 27 1 27 28
M  V30 28 1 28 29
M  V30 29 2 28 30
M  V30 30 1 27 31
M  V30 31 2 31 32
M  V30 32 1 32 33
M  V30 33 2 33 34
M  V30 34 2 19 35
M  V30 35 1 11 6
M  V30 36 1 35 15
M  V30 37 1 34 22
M  V30 38 1 34 26
M  V30 39 1 1 36
M  V30 40 1 1 37
M  V30 41 1 1 38
M  V30 42 1 3 39
M  V30 43 1 3 40
M  V30 44 1 4 41
M  V30 45 1 4 42
M  V30 46 1 7 43
M  V30 47 1 8 44
M  V30 48 1 9 45
M  V30 49 1 10 46
M  V30 50 1 14 47
M  V30 51 1 16 48
M  V30 52 1 17 49
M  V30 53 1 18 50
M  V30 54 1 20 51
M  V30 55 1 20 52
M  V30 56 1 21 53
M  V30 57 1 24 54
M  V30 58 1 29 55
M  V30 59 1 29 56
M  V30 60 1 31 57
M  V30 61 1 32 58
M  V30 62 1 33 59
M  V30 63 1 35 60
M  V30 END BOND
M  V30 END CTAB
M  END
>  <Dataset>  (109) 
ChEMBL_Kinases

>  <Ligand_Instance>  (109) 
nan

>  <PDB_ID>  (109) 
nan

>  <Standardized_SMILES>  (109) 
COCCOc1ccccc1C(=O)Nc1cccc(CNc2ncnc3c(C(N)=O)cccc23)c1

>  <Name>  (109) 
nan

>  <Pocket>  (109) 
nan

>  <ATP_Site>  (109) 
nan

>  <Peripheral>  (109) 
nan

>  <Num_H_Atoms_ProtBoundConf>  (109) 
nan

>  <Num_Resolved_Atoms>  (109) 
nan

>  <Num_Not_Resolved_Atoms>  (109) 
nan

$$$$
CHEMBL3685205
     RDKit          3D

  0  0  0  0  0  0  0  0  0  0999 V3000
M  V30 BEGIN CTAB
M  V30 COUNTS 80 83 0 0 0
M  V30 BEGIN ATOM
M  V30 1 C -0.869167 -2.595096 6.528773 0
M  V30 2 C -1.988557 -2.586072 5.549731 0
M  V30 3 N -1.674256 -2.062046 4.208903 0
M  V30 4 C -3.018487 -1.760314 3.574399 0
M  V30 5 C -3.720182 -0.654616 4.294336 0
M  V30 6 C -1.258495 -3.251896 3.452312 0
M  V30 7 C 0.069208 -3.834605 3.713939 0
M  V30 8 N 1.226268 -3.190114 3.359161 0
M  V30 9 C 1.868368 -2.063416 3.759224 0
M  V30 10 C 1.141917 -0.792012 3.523321 0
M  V30 11 C 0.813473 0.094196 4.514202 0
M  V30 12 C 0.137401 1.269740 4.198547 0
M  V30 13 C -0.213613 2.230061 5.247092 0
M  V30 14 N -0.910572 3.433827 4.981927 0
M  V30 15 O 0.189103 1.839691 6.408071 0
M  V30 16 C -0.173544 1.470704 2.853408 0
M  V30 17 N -0.817820 2.607110 2.634862 0
M  V30 18 C -1.179292 2.933152 1.394120 0
M  V30 19 N -0.898282 2.128238 0.371403 0
M  V30 20 C -0.249391 0.970506 0.568032 0
M  V30 21 N 0.080515 -0.093291 -0.374371 0
M  V30 22 C 0.384348 -1.075032 -1.248406 0
M  V30 23 C -0.663694 -1.527085 -2.260670 0
M  V30 24 C -1.594788 -2.495162 -2.015229 0
M  V30 25 C -2.467938 -2.834733 -3.002834 0
M  V30 26 C -2.485205 -2.276161 -4.266787 0
M  V30 27 C -1.512335 -1.284691 -4.486758 0
M  V30 28 N -1.268956 -0.582409 -5.690008 0
M  V30 29 C -0.581859 0.393610 -6.452042 0
M  V30 30 O -1.021861 1.668006 -5.975224 0
M  V30 31 C 0.916513 0.334619 -6.310319 0
M  V30 32 C 1.576631 1.561015 -6.413430 0
M  V30 33 C 2.904937 1.645110 -6.320313 0
M  V30 34 C 3.769217 0.571489 -6.117888 0
M  V30 35 O 5.110121 0.303411 -5.979982 0
M  V30 36 C 6.095235 1.343641 -6.046528 0
M  V30 37 C 3.068413 -0.647816 -6.018710 0
M  V30 38 C 1.696736 -0.785807 -6.110201 0
M  V30 39 C -0.604323 -0.908173 -3.489283 0
M  V30 40 C 0.174292 0.542741 1.855781 0
M  V30 41 C 0.854969 -0.639898 2.172980 0
M  V30 42 H -0.630611 -3.595784 6.893929 0
M  V30 43 H -1.146795 -2.004527 7.457916 0
M  V30 44 H 0.065482 -2.120307 6.126175 0
M  V30 45 H -2.352575 -3.668598 5.409984 0
M  V30 46 H -2.874157 -2.093231 5.973788 0
M  V30 47 H -2.767724 -1.374996 2.540406 0
M  V30 48 H -3.632585 -2.654158 3.529349 0
M  V30 49 H -3.074511 -0.080733 5.010483 0
M  V30 50 H -4.112592 0.128456 3.581493 0
M  V30 51 H -4.649270 -1.028083 4.825982 0
M  V30 52 H -2.057387 -4.003658 3.730788 0
M  V30 53 H -1.445678 -3.073363 2.355047 0
M  V30 54 H 0.078880 -4.863228 3.153256 0
M  V30 55 H 0.071346 -4.196878 4.806192 0
M  V30 56 H 1.817201 -3.775581 2.646278 0
M  V30 57 H 2.104431 -2.083326 4.892157 0
M  V30 58 H 2.897457 -2.008451 3.266371 0
M  V30 59 H 1.110211 -0.145486 5.522332 0
M  V30 60 H -1.819695 3.338831 5.511360 0
M  V30 61 H -0.613250 4.263127 4.388444 0
M  V30 62 H -1.700620 3.843044 1.176212 0
M  V30 63 H -0.256637 0.465182 -1.234865 0
M  V30 64 H 1.364762 -0.892215 -1.801318 0
M  V30 65 H 0.619213 -2.089418 -0.743041 0
M  V30 66 H -1.639269 -2.973339 -1.051641 0
M  V30 67 H -3.242275 -3.578726 -2.916977 0
M  V30 68 H -3.150438 -2.515347 -5.100827 0
M  V30 69 H -1.978616 -0.988531 -6.384905 0
M  V30 70 H -0.810067 0.341440 -7.530934 0
M  V30 71 H -1.904386 1.895097 -6.378942 0
M  V30 72 H 1.120890 2.558207 -6.576103 0
M  V30 73 H 3.573968 2.525116 -6.377161 0
M  V30 74 H 6.142453 1.738065 -7.094231 0
M  V30 75 H 5.807039 2.115602 -5.326287 0
M  V30 76 H 7.084785 0.911361 -5.748863 0
M  V30 77 H 3.505146 -1.643434 -5.849693 0
M  V30 78 H 1.133194 -1.680379 -6.027884 0
M  V30 79 H 0.147007 -0.159082 -3.629587 0
M  V30 80 H 1.082037 -1.261641 1.353587 0
M  V30 END ATOM
M  V30 BEGIN BOND
M  V30 1 1 1 2
M  V30 2 1 2 3
M  V30 3 1 3 4
M  V30 4 1 4 5
M  V30 5 1 3 6
M  V30 6 1 6 7
M  V30 7 1 7 8
M  V30 8 1 8 9
M  V30 9 1 9 10
M  V30 10 2 10 11
M  V30 11 1 11 12
M  V30 12 1 12 13
M  V30 13 1 13 14
M  V30 14 2 13 15
M  V30 15 2 12 16
M  V30 16 1 16 17
M  V30 17 2 17 18
M  V30 18 1 18 19
M  V30 19 2 19 20
M  V30 20 1 20 21
M  V30 21 1 21 22
M  V30 22 1 22 23
M  V30 23 2 23 24
M  V30 24 1 24 25
M  V30 25 2 25 26
M  V30 26 1 26 27
M  V30 27 1 27 28
M  V30 28 1 28 29
M  V30 29 1 29 30
M  V30 30 1 29 31
M  V30 31 2 31 32
M  V30 32 1 32 33
M  V30 33 2 33 34
M  V30 34 1 34 35
M  V30 35 1 35 36
M  V30 36 1 34 37
M  V30 37 2 37 38
M  V30 38 2 27 39
M  V30 39 1 20 40
M  V30 40 2 40 41
M  V30 41 1 41 10
M  V30 42 1 40 16
M  V30 43 1 39 23
M  V30 44 1 38 31
M  V30 45 1 1 42
M  V30 46 1 1 43
M  V30 47 1 1 44
M  V30 48 1 2 45
M  V30 49 1 2 46
M  V30 50 1 4 47
M  V30 51 1 4 48
M  V30 52 1 5 49
M  V30 53 1 5 50
M  V30 54 1 5 51
M  V30 55 1 6 52
M  V30 56 1 6 53
M  V30 57 1 7 54
M  V30 58 1 7 55
M  V30 59 1 8 56
M  V30 60 1 9 57
M  V30 61 1 9 58
M  V30 62 1 11 59
M  V30 63 1 14 60
M  V30 64 1 14 61
M  V30 65 1 18 62
M  V30 66 1 21 63
M  V30 67 1 22 64
M  V30 68 1 22 65
M  V30 69 1 24 66
M  V30 70 1 25 67
M  V30 71 1 26 68
M  V30 72 1 28 69
M  V30 73 1 29 70
M  V30 74 1 30 71
M  V30 75 1 32 72
M  V30 76 1 33 73
M  V30 77 1 36 74
M  V30 78 1 36 75
M  V30 79 1 36 76
M  V30 80 1 37 77
M  V30 81 1 38 78
M  V30 82 1 39 79
M  V30 83 1 41 80
M  V30 END BOND
M  V30 END CTAB
M  END
>  <Dataset>  (110) 
ChEMBL_Kinases

>  <Ligand_Instance>  (110) 
nan

>  <PDB_ID>  (110) 
nan

>  <Standardized_SMILES>  (110) 
CCN(CC)CCNCc1cc(C(N)=O)c2ncnc(NCc3cccc(NC(O)c4ccc(OC)cc4)c3)c2c1

>  <Name>  (110) 
nan

>  <Pocket>  (110) 
nan

>  <ATP_Site>  (110) 
nan

>  <Peripheral>  (110) 
nan

>  <Num_H_Atoms_ProtBoundConf>  (110) 
nan

>  <Num_Resolved_Atoms>  (110) 
nan

>  <Num_Not_Resolved_Atoms>  (110) 
nan

$$$$
CHEMBL4286642
     RDKit          3D

  0  0  0  0  0  0  0  0  0  0999 V3000
M  V30 BEGIN CTAB
M  V30 COUNTS 40 43 0 0 0
M  V30 BEGIN ATOM
M  V30 1 C 2.281788 -6.100427 -1.041825 0
M  V30 2 S 3.347355 -4.911201 -0.146637 0
M  V30 3 C 2.370074 -3.402039 0.038594 0
M  V30 4 N 1.609325 -3.302410 1.141029 0
M  V30 5 C 0.833011 -2.225210 1.396607 0
M  V30 6 C 0.844112 -1.204927 0.469957 0
M  V30 7 C 1.632575 -1.325671 -0.657049 0
M  V30 8 N 2.399401 -2.417351 -0.884845 0
M  V30 9 N 1.780954 -0.388958 -1.723671 0
M  V30 10 C 1.214639 0.911482 -1.821426 0
M  V30 11 N 1.443331 1.800902 -2.809385 0
M  V30 12 N 0.742596 2.918380 -2.573490 0
M  V30 13 C 0.038305 2.782831 -1.422048 0
M  V30 14 C -0.827145 3.843500 -0.898633 0
M  V30 15 C 0.335973 1.520528 -0.950184 0
M  V30 16 N -0.236344 1.033322 0.258919 0
M  V30 17 C -0.046423 -0.099481 0.879984 0
M  V30 18 C -0.809016 -0.265281 2.110417 0
M  V30 19 C -1.957139 -1.045835 1.978384 0
M  V30 20 C -2.771394 -1.278018 3.086735 0
M  V30 21 C -2.422532 -0.721405 4.321632 0
M  V30 22 C -1.267348 0.057004 4.428711 0
M  V30 23 C -0.482261 0.268723 3.314250 0
M  V30 24 C 0.746483 1.093210 3.414456 0
M  V30 25 H 1.469559 -6.348500 -0.300976 0
M  V30 26 H 1.740696 -5.549887 -1.867141 0
M  V30 27 H 2.826912 -6.980229 -1.387873 0
M  V30 28 H 0.223446 -2.156597 2.290253 0
M  V30 29 H 2.383381 -0.691393 -2.543431 0
M  V30 30 H 0.755641 3.763611 -3.207167 0
M  V30 31 H -1.465233 3.418419 -0.097241 0
M  V30 32 H -0.180068 4.622496 -0.413745 0
M  V30 33 H -1.455819 4.315079 -1.705728 0
M  V30 34 H -2.274882 -1.500662 1.050797 0
M  V30 35 H -3.679538 -1.891749 2.995388 0
M  V30 36 H -3.086716 -0.926180 5.168465 0
M  V30 37 H -1.018076 0.481585 5.412923 0
M  V30 38 H 1.453595 0.912165 2.595669 0
M  V30 39 H 1.249997 0.956947 4.408516 0
M  V30 40 H 0.460264 2.184783 3.396636 0
M  V30 END ATOM
M  V30 BEGIN BOND
M  V30 1 1 1 2
M  V30 2 1 2 3
M  V30 3 2 3 4
M  V30 4 1 4 5
M  V30 5 2 5 6
M  V30 6 1 6 7
M  V30 7 2 7 8
M  V30 8 1 7 9
M  V30 9 1 9 10
M  V30 10 2 10 11
M  V30 11 1 11 12
M  V30 12 1 12 13
M  V30 13 1 13 14
M  V30 14 2 13 15
M  V30 15 1 15 16
M  V30 16 2 16 17
M  V30 17 1 17 18
M  V30 18 2 18 19
M  V30 19 1 19 20
M  V30 20 2 20 21
M  V30 21 1 21 22
M  V30 22 2 22 23
M  V30 23 1 23 24
M  V30 24 1 8 3
M  V30 25 1 15 10
M  V30 26 1 23 18
M  V30 27 1 17 6
M  V30 28 1 1 25
M  V30 29 1 1 26
M  V30 30 1 1 27
M  V30 31 1 5 28
M  V30 32 1 9 29
M  V30 33 1 12 30
M  V30 34 1 14 31
M  V30 35 1 14 32
M  V30 36 1 14 33
M  V30 37 1 19 34
M  V30 38 1 20 35
M  V30 39 1 21 36
M  V30 40 1 22 37
M  V30 41 1 24 38
M  V30 42 1 24 39
M  V30 43 1 24 40
M  V30 END BOND
M  V30 END CTAB
M  END
>  <Dataset>  (111) 
ChEMBL_Kinases

>  <Ligand_Instance>  (111) 
nan

>  <PDB_ID>  (111) 
nan

>  <Standardized_SMILES>  (111) 
CSc1ncc2c(n1)Nc1n[nH]c(C)c1N=C2c1ccccc1C

>  <Name>  (111) 
nan

>  <Pocket>  (111) 
nan

>  <ATP_Site>  (111) 
nan

>  <Peripheral>  (111) 
nan

>  <Num_H_Atoms_ProtBoundConf>  (111) 
nan

>  <Num_Resolved_Atoms>  (111) 
nan

>  <Num_Not_Resolved_Atoms>  (111) 
nan

$$$$
CHEMBL4286639
     RDKit          3D

  0  0  0  0  0  0  0  0  0  0999 V3000
M  V30 BEGIN CTAB
M  V30 COUNTS 57 61 0 0 0
M  V30 BEGIN ATOM
M  V30 1 C 3.279662 -2.554927 3.182164 0
M  V30 2 C 4.461611 -1.683189 3.546360 0
M  V30 3 O 4.224957 -0.399072 3.005487 0
M  V30 4 C 5.095689 0.663079 3.139113 0
M  V30 5 O 6.182220 0.557849 3.764802 0
M  V30 6 C 4.768507 1.946652 2.549096 0
M  V30 7 C 5.651390 2.996710 2.693258 0
M  V30 8 C 5.311349 4.204169 2.120634 0
M  V30 9 C 4.134186 4.369198 1.426335 0
M  V30 10 C 3.229546 3.345674 1.261804 0
M  V30 11 N 2.037563 3.581606 0.536663 0
M  V30 12 C 0.968248 2.725364 0.228831 0
M  V30 13 O 1.021030 1.541779 0.637416 0
M  V30 14 N -0.171391 3.102888 -0.513249 0
M  V30 15 C -1.203200 2.138733 -0.765997 0
M  V30 16 N -1.300069 1.312167 -1.794812 0
M  V30 17 C -2.368202 0.507889 -1.791871 0
M  V30 18 C -3.323482 0.535710 -0.768449 0
M  V30 19 S -2.674071 1.795614 0.282035 0
M  V30 20 C -4.461680 -0.283181 -0.701611 0
M  V30 21 C -4.448996 -1.403352 -1.662181 0
M  V30 22 N -3.868316 -2.631153 -1.223454 0
M  V30 23 C -4.599627 -3.873291 -1.278494 0
M  V30 24 O -5.765525 -4.170731 -1.693330 0
M  V30 25 C -3.809079 -5.003875 -0.738354 0
M  V30 26 C -3.989409 -6.355627 -0.549235 0
M  V30 27 C -3.024850 -7.157432 -0.002502 0
M  V30 28 C -1.827876 -6.626450 0.379917 0
M  V30 29 C -1.622787 -5.277626 0.201416 0
M  V30 30 C -2.600450 -4.470073 -0.351740 0
M  V30 31 C -2.656575 -3.045203 -0.650727 0
M  V30 32 O -1.693035 -2.302646 -0.400281 0
M  V30 33 C -3.907182 -0.972028 -2.985623 0
M  V30 34 C -2.530912 -0.442343 -2.917616 0
M  V30 35 C 3.604990 2.160045 1.846713 0
M  V30 36 H 3.584894 -3.442914 2.593244 0
M  V30 37 H 2.711766 -2.878112 4.096827 0
M  V30 38 H 2.532853 -2.005494 2.540968 0
M  V30 39 H 5.363350 -2.160669 3.118960 0
M  V30 40 H 4.568658 -1.705627 4.633949 0
M  V30 41 H 6.575869 2.865773 3.238950 0
M  V30 42 H 5.961101 5.065098 2.198456 0
M  V30 43 H 3.912102 5.354902 0.989116 0
M  V30 44 H 1.882977 4.544847 0.143337 0
M  V30 45 H -0.242784 4.096265 -0.870941 0
M  V30 46 H -4.648052 -0.722423 0.318710 0
M  V30 47 H -5.391895 0.323205 -0.898431 0
M  V30 48 H -5.543359 -1.699742 -1.942598 0
M  V30 49 H -4.930285 -6.789693 -0.846590 0
M  V30 50 H -3.182053 -8.222261 0.140329 0
M  V30 51 H -1.073290 -7.251053 0.807114 0
M  V30 52 H -0.666965 -4.850955 0.506274 0
M  V30 53 H -4.554719 -0.162313 -3.422063 0
M  V30 54 H -3.877241 -1.840758 -3.719031 0
M  V30 55 H -2.286806 0.053476 -3.913782 0
M  V30 56 H -1.726184 -1.223195 -2.808111 0
M  V30 57 H 2.967844 1.304962 1.773885 0
M  V30 END ATOM
M  V30 BEGIN BOND
M  V30 1 1 1 2
M  V30 2 1 2 3
M  V30 3 1 3 4
M  V30 4 2 4 5
M  V30 5 1 4 6
M  V30 6 2 6 7
M  V30 7 1 7 8
M  V30 8 2 8 9
M  V30 9 1 9 10
M  V30 10 1 10 11
M  V30 11 1 11 12
M  V30 12 2 12 13
M  V30 13 1 12 14
M  V30 14 1 14 15
M  V30 15 2 15 16
M  V30 16 1 16 17
M  V30 17 2 17 18
M  V30 18 1 18 19
M  V30 19 1 18 20
M  V30 20 1 20 21
M  V30 21 1 21 22
M  V30 22 1 22 23
M  V30 23 2 23 24
M  V30 24 1 23 25
M  V30 25 2 25 26
M  V30 26 1 26 27
M  V30 27 2 27 28
M  V30 28 1 28 29
M  V30 29 2 29 30
M  V30 30 1 30 31
M  V30 31 2 31 32
M  V30 32 1 21 33
M  V30 33 1 33 34
M  V30 34 2 10 35
M  V30 35 1 35 6
M  V30 36 1 19 15
M  V30 37 1 31 22
M  V30 38 1 34 17
M  V30 39 1 30 25
M  V30 40 1 1 36
M  V30 41 1 1 37
M  V30 42 1 1 38
M  V30 43 1 2 39
M  V30 44 1 2 40
M  V30 45 1 7 41
M  V30 46 1 8 42
M  V30 47 1 9 43
M  V30 48 1 11 44
M  V30 49 1 14 45
M  V30 50 1 20 46
M  V30 51 1 20 47
M  V30 52 1 21 48
M  V30 53 1 26 49
M  V30 54 1 27 50
M  V30 55 1 28 51
M  V30 56 1 29 52
M  V30 57 1 33 53
M  V30 58 1 33 54
M  V30 59 1 34 55
M  V30 60 1 34 56
M  V30 61 1 35 57
M  V30 END BOND
M  V30 END CTAB
M  END
>  <Dataset>  (112) 
ChEMBL_Kinases

>  <Ligand_Instance>  (112) 
nan

>  <PDB_ID>  (112) 
nan

>  <Standardized_SMILES>  (112) 
CCOC(=O)c1cccc(NC(=O)Nc2nc3c(s2)CC(N2C(=O)c4ccccc4C2=O)CC3)c1

>  <Name>  (112) 
nan

>  <Pocket>  (112) 
nan

>  <ATP_Site>  (112) 
nan

>  <Peripheral>  (112) 
nan

>  <Num_H_Atoms_ProtBoundConf>  (112) 
nan

>  <Num_Resolved_Atoms>  (112) 
nan

>  <Num_Not_Resolved_Atoms>  (112) 
nan

$$$$
CHEMBL3685204
     RDKit          3D

  0  0  0  0  0  0  0  0  0  0999 V3000
M  V30 BEGIN CTAB
M  V30 COUNTS 48 52 0 0 0
M  V30 BEGIN ATOM
M  V30 1 N 0.450166 -5.510055 1.340348 0
M  V30 2 C 1.842299 -5.455519 1.594315 0
M  V30 3 O 2.412260 -6.474480 2.043766 0
M  V30 4 C 2.585284 -4.207411 1.325246 0
M  V30 5 C 3.938416 -4.157399 1.567605 0
M  V30 6 C 4.593791 -2.960180 1.298937 0
M  V30 7 C 3.859191 -1.902215 0.810271 0
M  V30 8 C 2.523590 -1.923472 0.561790 0
M  V30 9 C 1.865395 -0.815258 0.071622 0
M  V30 10 N 2.522839 0.409541 -0.209003 0
M  V30 11 C 1.882319 1.596321 -0.719441 0
M  V30 12 C 0.854950 2.173063 0.149563 0
M  V30 13 C 1.409674 3.052232 1.072498 0
M  V30 14 C 0.626567 3.736390 2.010853 0
M  V30 15 C -0.741429 3.558277 2.051482 0
M  V30 16 C -1.275674 2.683462 1.129566 0
M  V30 17 N -2.662823 2.385526 1.036354 0
M  V30 18 C -3.393134 1.543719 0.175372 0
M  V30 19 N -3.934328 1.940387 -1.008246 0
M  V30 20 C -4.609761 1.020041 -1.729758 0
M  V30 21 N -4.767504 -0.257248 -1.331039 0
M  V30 22 C -4.239925 -0.654013 -0.171765 0
M  V30 23 N -4.242701 -1.842050 0.457363 0
M  V30 24 C -3.564487 -1.741122 1.620981 0
M  V30 25 N -3.150674 -0.455749 1.677981 0
M  V30 26 C -3.543767 0.231612 0.605478 0
M  V30 27 C -0.513109 2.005937 0.202350 0
M  V30 28 N 0.556195 -1.000861 -0.117365 0
M  V30 29 C -0.086662 -2.148276 0.137301 0
M  V30 30 N 0.570145 -3.226836 0.617550 0
M  V30 31 C 1.906106 -3.113244 0.835218 0
M  V30 32 H -0.521494 -5.482965 1.023809 0
M  V30 33 H -0.115437 -5.950024 2.126360 0
M  V30 34 H 4.345107 -5.080804 1.949176 0
M  V30 35 H 5.648180 -2.971926 1.504464 0
M  V30 36 H 4.465766 -1.027374 0.638357 0
M  V30 37 H 3.531223 0.550159 -0.065885 0
M  V30 38 H 2.584352 2.361562 -1.073046 0
M  V30 39 H 1.353969 1.252284 -1.665148 0
M  V30 40 H 2.475535 3.308264 1.177639 0
M  V30 41 H 1.035794 4.424587 2.737910 0
M  V30 42 H -1.431403 4.026310 2.721553 0
M  V30 43 H -3.318402 2.862354 1.724021 0
M  V30 44 H -5.006499 1.416498 -2.654062 0
M  V30 45 H -3.364660 -2.481287 2.374162 0
M  V30 46 H -2.585110 -0.072838 2.488913 0
M  V30 47 H -0.875510 1.318676 -0.542671 0
M  V30 48 H -1.150595 -2.111807 -0.078018 0
M  V30 END ATOM
M  V30 BEGIN BOND
M  V30 1 1 1 2
M  V30 2 2 2 3
M  V30 3 1 2 4
M  V30 4 2 4 5
M  V30 5 1 5 6
M  V30 6 2 6 7
M  V30 7 1 7 8
M  V30 8 2 8 9
M  V30 9 1 9 10
M  V30 10 1 10 11
M  V30 11 1 11 12
M  V30 12 2 12 13
M  V30 13 1 13 14
M  V30 14 2 14 15
M  V30 15 1 15 16
M  V30 16 1 16 17
M  V30 17 1 17 18
M  V30 18 2 18 19
M  V30 19 1 19 20
M  V30 20 2 20 21
M  V30 21 1 21 22
M  V30 22 1 22 23
M  V30 23 2 23 24
M  V30 24 1 24 25
M  V30 25 1 25 26
M  V30 26 2 16 27
M  V30 27 1 9 28
M  V30 28 2 28 29
M  V30 29 1 29 30
M  V30 30 2 30 31
M  V30 31 1 31 4
M  V30 32 1 31 8
M  V30 33 1 27 12
M  V30 34 1 26 18
M  V30 35 2 26 22
M  V30 36 1 1 32
M  V30 37 1 1 33
M  V30 38 1 5 34
M  V30 39 1 6 35
M  V30 40 1 7 36
M  V30 41 1 10 37
M  V30 42 1 11 38
M  V30 43 1 11 39
M  V30 44 1 13 40
M  V30 45 1 14 41
M  V30 46 1 15 42
M  V30 47 1 17 43
M  V30 48 1 20 44
M  V30 49 1 24 45
M  V30 50 1 25 46
M  V30 51 1 27 47
M  V30 52 1 29 48
M  V30 END BOND
M  V30 END CTAB
M  END
>  <Dataset>  (113) 
ChEMBL_Kinases

>  <Ligand_Instance>  (113) 
nan

>  <PDB_ID>  (113) 
nan

>  <Standardized_SMILES>  (113) 
NC(=O)c1cccc2c(NCc3cccc(Nc4ncnc5nc[nH]c45)c3)ncnc12

>  <Name>  (113) 
nan

>  <Pocket>  (113) 
nan

>  <ATP_Site>  (113) 
nan

>  <Peripheral>  (113) 
nan

>  <Num_H_Atoms_ProtBoundConf>  (113) 
nan

>  <Num_Resolved_Atoms>  (113) 
nan

>  <Num_Not_Resolved_Atoms>  (113) 
nan

$$$$
CHEMBL4286456
     RDKit          3D

  0  0  0  0  0  0  0  0  0  0999 V3000
M  V30 BEGIN CTAB
M  V30 COUNTS 55 57 0 0 0
M  V30 BEGIN ATOM
M  V30 1 C 4.869380 -1.459640 6.135268 0
M  V30 2 N 4.985478 -1.276323 4.712632 0
M  V30 3 C 3.847307 -1.036443 3.892928 0
M  V30 4 O 2.674790 -0.968752 4.348943 0
M  V30 5 N 4.114109 -0.876227 2.516024 0
M  V30 6 C 3.043578 -0.620025 1.522391 0
M  V30 7 S 2.600748 1.022696 1.163419 0
M  V30 8 C 1.296159 0.550872 -0.074203 0
M  V30 9 C 0.451676 1.347624 -0.838168 0
M  V30 10 C 0.513632 2.805275 -0.727209 0
M  V30 11 C 1.509963 3.423069 -1.704793 0
M  V30 12 C 0.895748 3.289221 0.655301 0
M  V30 13 C -0.428258 0.710362 -1.684298 0
M  V30 14 C -0.383950 -0.669289 -1.689782 0
M  V30 15 N -1.308182 -1.291202 -2.575217 0
M  V30 16 S -2.299395 -2.626350 -2.193614 0
M  V30 17 O -1.421395 -3.763995 -1.759985 0
M  V30 18 O -3.079802 -3.107811 -3.379003 0
M  V30 19 C -3.412103 -2.289154 -0.892071 0
M  V30 20 C -3.129640 -2.496976 0.457947 0
M  V30 21 C -4.089187 -2.193834 1.397376 0
M  V30 22 C -5.322338 -1.690662 1.046845 0
M  V30 23 C -5.595260 -1.488178 -0.280409 0
M  V30 24 C -6.926414 -0.945026 -0.668794 0
M  V30 25 C -4.663880 -1.777826 -1.255044 0
M  V30 26 C 0.468182 -1.420732 -0.917058 0
M  V30 27 C 1.361966 -0.808777 -0.058808 0
M  V30 28 C 2.273259 -1.386170 0.775042 0
M  V30 29 C 2.471961 -2.825652 0.913665 0
M  V30 30 N 1.802262 -3.882089 0.248742 0
M  V30 31 O 3.315421 -3.321259 1.689927 0
M  V30 32 H 3.883800 -1.807135 6.478735 0
M  V30 33 H 5.656424 -2.164281 6.492637 0
M  V30 34 H 5.002132 -0.446287 6.596675 0
M  V30 35 H 5.964418 -1.331356 4.320852 0
M  V30 36 H 5.019670 -0.907094 2.009567 0
M  V30 37 H -0.479196 3.273913 -0.967984 0
M  V30 38 H 1.741150 4.422319 -1.313339 0
M  V30 39 H 2.467931 2.847552 -1.720677 0
M  V30 40 H 1.050436 3.531347 -2.713955 0
M  V30 41 H 1.994734 3.437350 0.658061 0
M  V30 42 H 0.477474 4.306676 0.860441 0
M  V30 43 H 0.606796 2.572466 1.461321 0
M  V30 44 H -1.067046 1.352304 -2.260790 0
M  V30 45 H -1.389127 -0.891784 -3.557659 0
M  V30 46 H -2.143720 -2.892041 0.638948 0
M  V30 47 H -3.810391 -2.376475 2.421006 0
M  V30 48 H -6.070162 -1.456264 1.805326 0
M  V30 49 H -6.900693 -0.502062 -1.693616 0
M  V30 50 H -7.274331 -0.188651 0.068806 0
M  V30 51 H -7.671529 -1.764992 -0.716080 0
M  V30 52 H -4.940842 -1.595354 -2.284292 0
M  V30 53 H 0.382883 -2.490619 -1.034519 0
M  V30 54 H 2.054789 -4.337158 -0.659417 0
M  V30 55 H 0.953666 -4.460037 0.439205 0
M  V30 END ATOM
M  V30 BEGIN BOND
M  V30 1 1 1 2
M  V30 2 1 2 3
M  V30 3 2 3 4
M  V30 4 1 3 5
M  V30 5 1 5 6
M  V30 6 1 6 7
M  V30 7 1 7 8
M  V30 8 2 8 9
M  V30 9 1 9 10
M  V30 10 1 10 11
M  V30 11 1 10 12
M  V30 12 1 9 13
M  V30 13 2 13 14
M  V30 14 1 14 15
M  V30 15 1 15 16
M  V30 16 2 16 17
M  V30 17 2 16 18
M  V30 18 1 16 19
M  V30 19 2 19 20
M  V30 20 1 20 21
M  V30 21 2 21 22
M  V30 22 1 22 23
M  V30 23 1 23 24
M  V30 24 2 23 25
M  V30 25 1 14 26
M  V30 26 2 26 27
M  V30 27 1 27 28
M  V30 28 1 28 29
M  V30 29 1 29 30
M  V30 30 2 29 31
M  V30 31 2 28 6
M  V30 32 1 27 8
M  V30 33 1 25 19
M  V30 34 1 1 32
M  V30 35 1 1 33
M  V30 36 1 1 34
M  V30 37 1 2 35
M  V30 38 1 5 36
M  V30 39 1 10 37
M  V30 40 1 11 38
M  V30 41 1 11 39
M  V30 42 1 11 40
M  V30 43 1 12 41
M  V30 44 1 12 42
M  V30 45 1 12 43
M  V30 46 1 13 44
M  V30 47 1 15 45
M  V30 48 1 20 46
M  V30 49 1 21 47
M  V30 50 1 22 48
M  V30 51 1 24 49
M  V30 52 1 24 50
M  V30 53 1 24 51
M  V30 54 1 25 52
M  V30 55 1 26 53
M  V30 56 1 30 54
M  V30 57 1 30 55
M  V30 END BOND
M  V30 END CTAB
M  END
>  <Dataset>  (114) 
ChEMBL_Kinases

>  <Ligand_Instance>  (114) 
nan

>  <PDB_ID>  (114) 
nan

>  <Standardized_SMILES>  (114) 
CNC(=O)Nc1sc2c(C(C)C)cc(NS(=O)(=O)c3cccc(C)c3)cc2c1C(N)=O

>  <Name>  (114) 
nan

>  <Pocket>  (114) 
nan

>  <ATP_Site>  (114) 
nan

>  <Peripheral>  (114) 
nan

>  <Num_H_Atoms_ProtBoundConf>  (114) 
nan

>  <Num_Resolved_Atoms>  (114) 
nan

>  <Num_Not_Resolved_Atoms>  (114) 
nan

$$$$
CHEMBL3685203
     RDKit          3D

  0  0  0  0  0  0  0  0  0  0999 V3000
M  V30 BEGIN CTAB
M  V30 COUNTS 69 72 0 0 0
M  V30 BEGIN ATOM
M  V30 1 C 6.691471 -6.215021 6.140502 0
M  V30 2 N 5.926929 -5.971200 4.906123 0
M  V30 3 C 6.292268 -7.080371 4.026466 0
M  V30 4 C 6.383983 -4.713748 4.393666 0
M  V30 5 C 5.692472 -4.302763 3.116234 0
M  V30 6 C 6.258256 -2.975662 2.686381 0
M  V30 7 O 5.744875 -2.446294 1.539252 0
M  V30 8 C 4.392076 -2.193636 1.618233 0
M  V30 9 C 3.592947 -3.055150 0.718992 0
M  V30 10 C 2.677656 -2.890735 -0.206491 0
M  V30 11 C 2.330386 -1.496454 -0.437188 0
M  V30 12 C 1.330491 -1.134434 -1.430542 0
M  V30 13 O 0.806230 -2.092201 -2.054690 0
M  V30 14 N 0.949478 0.201027 -1.701075 0
M  V30 15 C -0.053595 0.325948 -2.718545 0
M  V30 16 C 0.138042 0.467623 -4.079197 0
M  V30 17 C -0.972452 0.572712 -4.890869 0
M  V30 18 C -2.253551 0.539715 -4.379188 0
M  V30 19 C -2.478720 0.397344 -3.006931 0
M  V30 20 C -3.853348 0.361146 -2.444538 0
M  V30 21 N -4.361024 1.667824 -2.085632 0
M  V30 22 C -5.665700 1.774286 -1.536252 0
M  V30 23 N -6.417443 0.677128 -1.353165 0
M  V30 24 C -7.652608 0.730129 -0.838916 0
M  V30 25 N -8.238882 1.884467 -0.464959 0
M  V30 26 C -7.526675 3.028736 -0.626363 0
M  V30 27 C -8.088287 4.220900 -0.258120 0
M  V30 28 C -9.447426 4.231586 0.302046 0
M  V30 29 N -10.077643 5.435440 0.699404 0
M  V30 30 O -10.067858 3.154794 0.433611 0
M  V30 31 C -7.393857 5.391593 -0.409014 0
M  V30 32 C -6.128603 5.334430 -0.936070 0
M  V30 33 C -5.570643 4.130025 -1.304264 0
M  V30 34 C -6.262005 2.949938 -1.155703 0
M  V30 35 C -1.353987 0.293693 -2.210780 0
M  V30 36 C 3.001379 -0.659265 0.327601 0
M  V30 37 C 4.030544 -0.767400 1.375081 0
M  V30 38 H 6.256593 -5.671994 7.002774 0
M  V30 39 H 6.677729 -7.286222 6.407721 0
M  V30 40 H 7.733990 -5.864995 5.995914 0
M  V30 41 H 7.405603 -7.198577 3.945756 0
M  V30 42 H 5.938489 -8.046896 4.425792 0
M  V30 43 H 5.802879 -6.970675 3.038784 0
M  V30 44 H 6.244664 -3.917782 5.146444 0
M  V30 45 H 7.468778 -4.805357 4.220386 0
M  V30 46 H 6.007331 -5.063921 2.346919 0
M  V30 47 H 4.613002 -4.361294 3.165604 0
M  V30 48 H 6.187757 -2.255384 3.532119 0
M  V30 49 H 7.370701 -3.079014 2.521698 0
M  V30 50 H 4.077969 -2.500051 2.660903 0
M  V30 51 H 3.868983 -4.108357 0.904346 0
M  V30 52 H 2.239791 -3.716326 -0.731078 0
M  V30 53 H 1.383711 0.995872 -1.184236 0
M  V30 54 H 1.175578 0.482666 -4.384316 0
M  V30 55 H -0.769967 0.681738 -5.947032 0
M  V30 56 H -3.114686 0.623775 -5.032361 0
M  V30 57 H -4.572065 -0.109218 -3.156448 0
M  V30 58 H -3.877215 -0.322729 -1.546186 0
M  V30 59 H -3.696967 2.445944 -2.269761 0
M  V30 60 H -8.241212 -0.166002 -0.699671 0
M  V30 61 H -9.574855 6.245894 1.167208 0
M  V30 62 H -11.113570 5.527950 0.516740 0
M  V30 63 H -7.861062 6.330305 -0.108811 0
M  V30 64 H -5.616065 6.294580 -1.036454 0
M  V30 65 H -4.588544 4.151821 -1.705605 0
M  V30 66 H -1.576988 0.184379 -1.148508 0
M  V30 67 H 2.765791 0.402950 0.178272 0
M  V30 68 H 4.972866 -0.246107 1.035584 0
M  V30 69 H 3.644649 -0.258902 2.286731 0
M  V30 END ATOM
M  V30 BEGIN BOND
M  V30 1 1 1 2
M  V30 2 1 2 3
M  V30 3 1 2 4
M  V30 4 1 4 5
M  V30 5 1 5 6
M  V30 6 1 6 7
M  V30 7 1 7 8
M  V30 8 1 8 9
M  V30 9 2 9 10
M  V30 10 1 10 11
M  V30 11 1 11 12
M  V30 12 2 12 13
M  V30 13 1 12 14
M  V30 14 1 14 15
M  V30 15 2 15 16
M  V30 16 1 16 17
M  V30 17 2 17 18
M  V30 18 1 18 19
M  V30 19 1 19 20
M  V30 20 1 20 21
M  V30 21 1 21 22
M  V30 22 2 22 23
M  V30 23 1 23 24
M  V30 24 2 24 25
M  V30 25 1 25 26
M  V30 26 2 26 27
M  V30 27 1 27 28
M  V30 28 1 28 29
M  V30 29 2 28 30
M  V30 30 1 27 31
M  V30 31 2 31 32
M  V30 32 1 32 33
M  V30 33 2 33 34
M  V30 34 2 19 35
M  V30 35 2 11 36
M  V30 36 1 36 37
M  V30 37 1 37 8
M  V30 38 1 35 15
M  V30 39 1 34 22
M  V30 40 1 34 26
M  V30 41 1 1 38
M  V30 42 1 1 39
M  V30 43 1 1 40
M  V30 44 1 3 41
M  V30 45 1 3 42
M  V30 46 1 3 43
M  V30 47 1 4 44
M  V30 48 1 4 45
M  V30 49 1 5 46
M  V30 50 1 5 47
M  V30 51 1 6 48
M  V30 52 1 6 49
M  V30 53 1 8 50
M  V30 54 1 9 51
M  V30 55 1 10 52
M  V30 56 1 14 53
M  V30 57 1 16 54
M  V30 58 1 17 55
M  V30 59 1 18 56
M  V30 60 1 20 57
M  V30 61 1 20 58
M  V30 62 1 21 59
M  V30 63 1 24 60
M  V30 64 1 29 61
M  V30 65 1 29 62
M  V30 66 1 31 63
M  V30 67 1 32 64
M  V30 68 1 33 65
M  V30 69 1 35 66
M  V30 70 1 36 67
M  V30 71 1 37 68
M  V30 72 1 37 69
M  V30 END BOND
M  V30 END CTAB
M  END
>  <Dataset>  (115) 
ChEMBL_Kinases

>  <Ligand_Instance>  (115) 
nan

>  <PDB_ID>  (115) 
nan

>  <Standardized_SMILES>  (115) 
CN(C)CCCOC1C=CC(C(=O)Nc2cccc(CNc3ncnc4c(C(N)=O)cccc34)c2)=CC1

>  <Name>  (115) 
nan

>  <Pocket>  (115) 
nan

>  <ATP_Site>  (115) 
nan

>  <Peripheral>  (115) 
nan

>  <Num_H_Atoms_ProtBoundConf>  (115) 
nan

>  <Num_Resolved_Atoms>  (115) 
nan

>  <Num_Not_Resolved_Atoms>  (115) 
nan

$$$$
CHEMBL3685202
     RDKit          3D

  0  0  0  0  0  0  0  0  0  0999 V3000
M  V30 BEGIN CTAB
M  V30 COUNTS 60 63 0 0 0
M  V30 BEGIN ATOM
M  V30 1 C 8.036870 -0.678671 6.494389 0
M  V30 2 O 7.574953 -1.018169 5.223849 0
M  V30 3 C 6.431414 -0.250325 4.893080 0
M  V30 4 C 6.022705 -0.686971 3.528000 0
M  V30 5 O 4.920244 -0.087777 2.968739 0
M  V30 6 C 4.663585 1.212450 2.639200 0
M  V30 7 C 5.378735 2.379317 2.725193 0
M  V30 8 C 4.900512 3.599364 2.321642 0
M  V30 9 C 3.606160 3.653942 1.791109 0
M  V30 10 C 2.810214 2.507705 1.668853 0
M  V30 11 C 1.485996 2.701290 1.101402 0
M  V30 12 O 1.193856 3.871706 0.751619 0
M  V30 13 N 0.509329 1.719541 0.907075 0
M  V30 14 C -0.798043 1.794929 0.369211 0
M  V30 15 C -1.416010 2.914537 -0.116076 0
M  V30 16 C -2.708739 2.968610 -0.639583 0
M  V30 17 C -3.406287 1.780354 -0.660178 0
M  V30 18 C -2.830293 0.625322 -0.183890 0
M  V30 19 C -3.637353 -0.597271 -0.236836 0
M  V30 20 N -3.505066 -1.366980 -1.444289 0
M  V30 21 C -4.257466 -2.563457 -1.586792 0
M  V30 22 N -5.078071 -2.956836 -0.599817 0
M  V30 23 C -5.828622 -4.065516 -0.639624 0
M  V30 24 N -5.771042 -4.849001 -1.730096 0
M  V30 25 C -4.968702 -4.502215 -2.743326 0
M  V30 26 C -4.837634 -5.231517 -3.901547 0
M  V30 27 C -5.627626 -6.441166 -3.995554 0
M  V30 28 N -6.511375 -6.916143 -2.957959 0
M  V30 29 O -6.129785 -7.493872 -4.424284 0
M  V30 30 C -4.040952 -4.949962 -4.989134 0
M  V30 31 C -3.279263 -3.787038 -4.900436 0
M  V30 32 C -3.388164 -3.032894 -3.750946 0
M  V30 33 C -4.195759 -3.364756 -2.707382 0
M  V30 34 C -1.549485 0.643454 0.319190 0
M  V30 35 C 3.373868 1.320586 2.101032 0
M  V30 36 H 7.198853 -0.895620 7.204478 0
M  V30 37 H 8.843109 -1.397409 6.752425 0
M  V30 38 H 8.336140 0.378102 6.560522 0
M  V30 39 H 6.790715 0.791714 4.911649 0
M  V30 40 H 5.641725 -0.383580 5.657067 0
M  V30 41 H 6.901495 -0.550280 2.849654 0
M  V30 42 H 5.835174 -1.796915 3.520455 0
M  V30 43 H 6.351804 2.245640 3.132881 0
M  V30 44 H 5.535885 4.452877 2.429562 0
M  V30 45 H 3.323112 4.676668 1.500485 0
M  V30 46 H 0.851062 0.780554 1.231614 0
M  V30 47 H -0.901027 3.850019 -0.113164 0
M  V30 48 H -3.124364 3.897350 -1.004280 0
M  V30 49 H -4.410463 1.783256 -1.058395 0
M  V30 50 H -3.394348 -1.236731 0.630146 0
M  V30 51 H -4.737155 -0.349688 -0.162011 0
M  V30 52 H -2.844374 -0.953839 -2.120199 0
M  V30 53 H -6.428294 -4.233959 0.232190 0
M  V30 54 H -6.512417 -7.096043 -1.909984 0
M  V30 55 H -6.521186 -7.098840 -1.910734 0
M  V30 56 H -4.010076 -5.592174 -5.855460 0
M  V30 57 H -2.629473 -3.499203 -5.713592 0
M  V30 58 H -2.783143 -2.150156 -3.732448 0
M  V30 59 H -1.183394 -0.314618 0.670042 0
M  V30 60 H 2.684611 0.495346 1.966135 0
M  V30 END ATOM
M  V30 BEGIN BOND
M  V30 1 1 1 2
M  V30 2 1 2 3
M  V30 3 1 3 4
M  V30 4 1 4 5
M  V30 5 1 5 6
M  V30 6 2 6 7
M  V30 7 1 7 8
M  V30 8 2 8 9
M  V30 9 1 9 10
M  V30 10 1 10 11
M  V30 11 2 11 12
M  V30 12 1 11 13
M  V30 13 1 13 14
M  V30 14 2 14 15
M  V30 15 1 15 16
M  V30 16 2 16 17
M  V30 17 1 17 18
M  V30 18 1 18 19
M  V30 19 1 19 20
M  V30 20 1 20 21
M  V30 21 2 21 22
M  V30 22 1 22 23
M  V30 23 2 23 24
M  V30 24 1 24 25
M  V30 25 2 25 26
M  V30 26 1 26 27
M  V30 27 1 27 28
M  V30 28 2 27 29
M  V30 29 1 26 30
M  V30 30 2 30 31
M  V30 31 1 31 32
M  V30 32 2 32 33
M  V30 33 2 18 34
M  V30 34 2 10 35
M  V30 35 1 35 6
M  V30 36 1 34 14
M  V30 37 1 33 21
M  V30 38 1 33 25
M  V30 39 1 1 36
M  V30 40 1 1 37
M  V30 41 1 1 38
M  V30 42 1 3 39
M  V30 43 1 3 40
M  V30 44 1 4 41
M  V30 45 1 4 42
M  V30 46 1 7 43
M  V30 47 1 8 44
M  V30 48 1 9 45
M  V30 49 1 13 46
M  V30 50 1 15 47
M  V30 51 1 16 48
M  V30 52 1 17 49
M  V30 53 1 19 50
M  V30 54 1 19 51
M  V30 55 1 20 52
M  V30 56 1 23 53
M  V30 57 1 28 54
M  V30 58 1 28 55
M  V30 59 1 30 56
M  V30 60 1 31 57
M  V30 61 1 32 58
M  V30 62 1 34 59
M  V30 63 1 35 60
M  V30 END BOND
M  V30 END CTAB
M  END
>  <Dataset>  (116) 
ChEMBL_Kinases

>  <Ligand_Instance>  (116) 
nan

>  <PDB_ID>  (116) 
nan

>  <Standardized_SMILES>  (116) 
COCCOc1cccc(C(=O)Nc2cccc(CNc3ncnc4c(C(N)=O)cccc34)c2)c1

>  <Name>  (116) 
nan

>  <Pocket>  (116) 
nan

>  <ATP_Site>  (116) 
nan

>  <Peripheral>  (116) 
nan

>  <Num_H_Atoms_ProtBoundConf>  (116) 
nan

>  <Num_Resolved_Atoms>  (116) 
nan

>  <Num_Not_Resolved_Atoms>  (116) 
nan

$$$$
CHEMBL3086065
     RDKit          3D

  0  0  0  0  0  0  0  0  0  0999 V3000
M  V30 BEGIN CTAB
M  V30 COUNTS 54 56 0 0 0
M  V30 BEGIN ATOM
M  V30 1 C 5.431793 -0.450407 4.988482 0
M  V30 2 N 6.401023 -1.230652 4.283654 0
M  V30 3 S 5.757781 -1.789125 2.815535 0
M  V30 4 O 6.827653 -2.691023 2.204730 0
M  V30 5 O 4.579161 -2.721518 3.043676 0
M  V30 6 N 5.295615 -0.622844 1.683263 0
M  V30 7 C 4.406360 0.463429 1.499788 0
M  V30 8 C 4.257798 1.548423 2.328053 0
M  V30 9 C 3.378500 2.582599 2.094210 0
M  V30 10 C 2.616403 2.494930 0.952325 0
M  V30 11 C 2.668285 1.478862 0.054552 0
M  V30 12 C 1.883188 1.305112 -1.194835 0
M  V30 13 C 0.657197 0.490883 -1.009125 0
M  V30 14 C -0.553315 0.868249 -0.466556 0
M  V30 15 C -0.658812 2.281181 -0.038603 0
M  V30 16 C -1.571416 -0.049248 -0.366478 0
M  V30 17 C -2.774497 0.335369 0.176855 0
M  V30 18 C -3.854180 -0.514388 0.318737 0
M  V30 19 Cl -5.375819 -0.045501 1.001440 0
M  V30 20 C -3.728009 -1.821707 -0.104825 0
M  V30 21 O -4.731854 -2.811592 -0.031256 0
M  V30 22 C -5.603433 -3.000600 -1.110296 0
M  V30 23 O -5.138330 -2.103961 -1.892564 0
M  V30 24 N -6.669109 -3.929774 -1.237465 0
M  V30 25 C -7.175338 -4.938216 -0.330148 0
M  V30 26 C -7.287932 -3.741202 -2.554214 0
M  V30 27 C -2.521299 -2.249715 -0.661730 0
M  V30 28 C -1.470057 -1.359475 -0.781558 0
M  V30 29 O -0.324836 -1.730506 -1.299650 0
M  V30 30 C 0.649568 -0.858042 -1.396689 0
M  V30 31 O 1.693742 -1.372734 -1.920063 0
M  V30 32 C 3.580949 0.493283 0.381226 0
M  V30 33 H 4.438772 -0.414253 4.466643 0
M  V30 34 H 5.251248 -0.849116 6.020343 0
M  V30 35 H 5.841400 0.575068 5.119472 0
M  V30 36 H 7.350931 -0.851512 4.226828 0
M  V30 37 H 5.840702 -0.664756 0.761292 0
M  V30 38 H 4.848514 1.630788 3.204544 0
M  V30 39 H 3.283415 3.423090 2.763860 0
M  V30 40 H 1.927090 3.294067 0.750987 0
M  V30 41 H 1.670182 2.275887 -1.686632 0
M  V30 42 H 2.529828 0.742132 -1.918442 0
M  V30 43 H -0.357125 2.350784 1.024869 0
M  V30 44 H -1.671181 2.695435 -0.195164 0
M  V30 45 H 0.017378 2.948529 -0.610943 0
M  V30 46 H -2.946546 1.340569 0.532541 0
M  V30 47 H -8.144842 -4.600250 0.118304 0
M  V30 48 H -7.384136 -5.848824 -0.932995 0
M  V30 49 H -6.393496 -5.124965 0.435128 0
M  V30 50 H -6.473160 -3.883235 -3.322682 0
M  V30 51 H -8.035682 -4.522698 -2.761609 0
M  V30 52 H -7.646979 -2.703362 -2.706082 0
M  V30 53 H -2.382667 -3.279756 -1.009355 0
M  V30 54 H 3.680536 -0.367164 -0.302677 0
M  V30 END ATOM
M  V30 BEGIN BOND
M  V30 1 1 1 2
M  V30 2 1 2 3
M  V30 3 2 3 4
M  V30 4 2 3 5
M  V30 5 1 3 6
M  V30 6 1 6 7
M  V30 7 2 7 8
M  V30 8 1 8 9
M  V30 9 2 9 10
M  V30 10 1 10 11
M  V30 11 1 11 12
M  V30 12 1 12 13
M  V30 13 2 13 14
M  V30 14 1 14 15
M  V30 15 1 14 16
M  V30 16 2 16 17
M  V30 17 1 17 18
M  V30 18 1 18 19
M  V30 19 2 18 20
M  V30 20 1 20 21
M  V30 21 1 21 22
M  V30 22 2 22 23
M  V30 23 1 22 24
M  V30 24 1 24 25
M  V30 25 1 24 26
M  V30 26 1 20 27
M  V30 27 2 27 28
M  V30 28 1 28 29
M  V30 29 1 29 30
M  V30 30 2 30 31
M  V30 31 2 11 32
M  V30 32 1 32 7
M  V30 33 1 30 13
M  V30 34 1 28 16
M  V30 35 1 1 33
M  V30 36 1 1 34
M  V30 37 1 1 35
M  V30 38 1 2 36
M  V30 39 1 6 37
M  V30 40 1 8 38
M  V30 41 1 9 39
M  V30 42 1 10 40
M  V30 43 1 12 41
M  V30 44 1 12 42
M  V30 45 1 15 43
M  V30 46 1 15 44
M  V30 47 1 15 45
M  V30 48 1 17 46
M  V30 49 1 25 47
M  V30 50 1 25 48
M  V30 51 1 25 49
M  V30 52 1 26 50
M  V30 53 1 26 51
M  V30 54 1 26 52
M  V30 55 1 27 53
M  V30 56 1 32 54
M  V30 END BOND
M  V30 END CTAB
M  END
>  <Dataset>  (117) 
ChEMBL_Kinases

>  <Ligand_Instance>  (117) 
nan

>  <PDB_ID>  (117) 
nan

>  <Standardized_SMILES>  (117) 
CNS(=O)(=O)Nc1cccc(Cc2c(C)c3cc(Cl)c(OC(=O)N(C)C)cc3oc2=O)c1

>  <Name>  (117) 
nan

>  <Pocket>  (117) 
nan

>  <ATP_Site>  (117) 
nan

>  <Peripheral>  (117) 
nan

>  <Num_H_Atoms_ProtBoundConf>  (117) 
nan

>  <Num_Resolved_Atoms>  (117) 
nan

>  <Num_Not_Resolved_Atoms>  (117) 
nan

$$$$
CHEMBL3092176
     RDKit          3D

  0  0  0  0  0  0  0  0  0  0999 V3000
M  V30 BEGIN CTAB
M  V30 COUNTS 50 53 0 0 0
M  V30 BEGIN ATOM
M  V30 1 C 4.786873 -2.780838 2.312654 0
M  V30 2 N 4.995756 -1.923568 3.490466 0
M  V30 3 S 3.438917 -1.776635 4.256775 0
M  V30 4 O 2.960649 -3.129271 4.667071 0
M  V30 5 O 3.549777 -0.892646 5.466781 0
M  V30 6 N 2.342429 -1.021206 3.162092 0
M  V30 7 C 2.516818 0.285917 2.652450 0
M  V30 8 C 3.444919 1.150167 3.191041 0
M  V30 9 C 3.537974 2.418653 2.631516 0
M  V30 10 C 2.761566 2.855038 1.579033 0
M  V30 11 C 1.833047 1.977115 1.046857 0
M  V30 12 C 1.037746 2.506780 -0.073033 0
M  V30 13 C 0.022798 1.597212 -0.603677 0
M  V30 14 C -1.187109 1.336284 -0.003456 0
M  V30 15 C -1.527293 2.010955 1.271193 0
M  V30 16 C -2.055060 0.453957 -0.607583 0
M  V30 17 C -3.280620 0.154835 -0.051131 0
M  V30 18 C -4.165005 -0.713046 -0.620972 0
M  V30 19 C -3.851300 -1.338207 -1.808959 0
M  V30 20 O -4.595323 -2.256580 -2.569128 0
M  V30 21 C -4.435163 -3.636902 -2.325135 0
M  V30 22 N -4.878119 -4.560016 -2.757563 0
M  V30 23 C -4.764842 -5.841357 -2.569477 0
M  V30 24 C -3.879130 -6.110179 -1.597002 0
M  V30 25 S -3.279006 -4.444379 -1.032325 0
M  V30 26 C -2.628356 -1.074423 -2.415373 0
M  V30 27 C -1.760623 -0.186440 -1.801974 0
M  V30 28 O -0.589278 0.088172 -2.350563 0
M  V30 29 C 0.254866 0.919784 -1.802161 0
M  V30 30 O 1.335860 1.101755 -2.414383 0
M  V30 31 C 1.741319 0.720839 1.601320 0
M  V30 32 F 0.831345 -0.125695 1.067323 0
M  V30 33 H 4.018743 -3.542081 2.602366 0
M  V30 34 H 5.743341 -3.256831 2.086884 0
M  V30 35 H 4.390719 -2.132023 1.508120 0
M  V30 36 H 5.270407 -0.992386 3.122986 0
M  V30 37 H 1.497058 -1.583164 2.864676 0
M  V30 38 H 4.084985 0.875649 4.017121 0
M  V30 39 H 4.267437 3.089014 3.059288 0
M  V30 40 H 2.919009 3.869864 1.220113 0
M  V30 41 H 1.772780 2.748445 -0.888396 0
M  V30 42 H 0.521385 3.471283 0.208514 0
M  V30 43 H -0.682486 2.618765 1.623278 0
M  V30 44 H -2.373074 2.722619 1.092724 0
M  V30 45 H -1.766495 1.271014 2.074743 0
M  V30 46 H -3.578511 0.621428 0.887362 0
M  V30 47 H -5.138959 -1.000647 -0.253538 0
M  V30 48 H -5.068183 -6.839123 -2.847047 0
M  V30 49 H -3.224502 -6.842251 -0.849162 0
M  V30 50 H -2.268563 -1.507086 -3.353442 0
M  V30 END ATOM
M  V30 BEGIN BOND
M  V30 1 1 1 2
M  V30 2 1 2 3
M  V30 3 2 3 4
M  V30 4 2 3 5
M  V30 5 1 3 6
M  V30 6 1 6 7
M  V30 7 2 7 8
M  V30 8 1 8 9
M  V30 9 2 9 10
M  V30 10 1 10 11
M  V30 11 1 11 12
M  V30 12 1 12 13
M  V30 13 2 13 14
M  V30 14 1 14 15
M  V30 15 1 14 16
M  V30 16 2 16 17
M  V30 17 1 17 18
M  V30 18 2 18 19
M  V30 19 1 19 20
M  V30 20 1 20 21
M  V30 21 2 21 22
M  V30 22 1 22 23
M  V30 23 2 23 24
M  V30 24 1 24 25
M  V30 25 1 19 26
M  V30 26 2 26 27
M  V30 27 1 27 28
M  V30 28 1 28 29
M  V30 29 2 29 30
M  V30 30 2 11 31
M  V30 31 1 31 32
M  V30 32 1 31 7
M  V30 33 1 29 13
M  V30 34 1 27 16
M  V30 35 1 25 21
M  V30 36 1 1 33
M  V30 37 1 1 34
M  V30 38 1 1 35
M  V30 39 1 2 36
M  V30 40 1 6 37
M  V30 41 1 8 38
M  V30 42 1 9 39
M  V30 43 1 10 40
M  V30 44 1 12 41
M  V30 45 1 12 42
M  V30 46 1 15 43
M  V30 47 1 15 44
M  V30 48 1 15 45
M  V30 49 1 17 46
M  V30 50 1 18 47
M  V30 51 1 23 48
M  V30 52 1 24 49
M  V30 53 1 26 50
M  V30 END BOND
M  V30 END CTAB
M  END
>  <Dataset>  (118) 
ChEMBL_Kinases

>  <Ligand_Instance>  (118) 
nan

>  <PDB_ID>  (118) 
nan

>  <Standardized_SMILES>  (118) 
CNS(=O)(=O)Nc1cccc(Cc2c(C)c3ccc(Oc4nccs4)cc3oc2=O)c1F

>  <Name>  (118) 
nan

>  <Pocket>  (118) 
nan

>  <ATP_Site>  (118) 
nan

>  <Peripheral>  (118) 
nan

>  <Num_H_Atoms_ProtBoundConf>  (118) 
nan

>  <Num_Resolved_Atoms>  (118) 
nan

>  <Num_Not_Resolved_Atoms>  (118) 
nan

$$$$
CHEMBL3092177
     RDKit          3D

  0  0  0  0  0  0  0  0  0  0999 V3000
M  V30 BEGIN CTAB
M  V30 COUNTS 55 58 0 0 0
M  V30 BEGIN ATOM
M  V30 1 C 5.656947 -2.100710 1.016200 0
M  V30 2 N 6.233563 -1.958269 -0.295755 0
M  V30 3 S 5.108376 -1.390146 -1.449283 0
M  V30 4 O 5.749554 -1.372558 -2.807137 0
M  V30 5 O 4.003059 -2.424641 -1.516948 0
M  V30 6 N 4.471622 0.165651 -1.117485 0
M  V30 7 C 3.723117 0.852984 -0.150273 0
M  V30 8 C 4.208853 1.048671 1.121054 0
M  V30 9 C 3.430690 1.747009 2.033887 0
M  V30 10 C 2.198246 2.216739 1.626282 0
M  V30 11 C 1.632327 2.060521 0.357217 0
M  V30 12 C 0.292778 2.655103 0.289058 0
M  V30 13 C -0.856078 1.782131 0.482281 0
M  V30 14 C -1.620994 0.940558 -0.276482 0
M  V30 15 C -1.357744 0.933829 -1.715199 0
M  V30 16 C -2.649697 0.160049 0.190384 0
M  V30 17 C -3.331148 -0.645897 -0.694068 0
M  V30 18 C -4.377968 -1.440095 -0.207676 0
M  V30 19 C -4.737932 -1.434316 1.120009 0
M  V30 20 O -5.787513 -2.257604 1.498065 0
M  V30 21 C -5.561418 -3.564609 1.908025 0
M  V30 22 N -4.302711 -4.077116 1.964275 0
M  V30 23 C -4.047297 -5.333881 2.354736 0
M  V30 24 C -5.100019 -6.177776 2.726184 0
M  V30 25 C -6.371209 -5.645451 2.664655 0
M  V30 26 N -6.601114 -4.360744 2.262641 0
M  V30 27 C -4.033210 -0.616025 1.971604 0
M  V30 28 C -2.999804 0.174116 1.517586 0
M  V30 29 O -2.297490 0.973075 2.305457 0
M  V30 30 C -1.301577 1.721342 1.828588 0
M  V30 31 O -0.867571 2.347602 2.855541 0
M  V30 32 C 2.484687 1.363996 -0.448442 0
M  V30 33 C 1.973949 1.204570 -1.825737 0
M  V30 34 H 4.590013 -1.816728 1.076111 0
M  V30 35 H 5.715116 -3.155074 1.392034 0
M  V30 36 H 6.232316 -1.444072 1.711957 0
M  V30 37 H 6.559398 -2.896908 -0.614830 0
M  V30 38 H 4.681473 0.934721 -1.823944 0
M  V30 39 H 5.174799 0.678628 1.417116 0
M  V30 40 H 3.862881 1.867510 3.012094 0
M  V30 41 H 1.738594 2.750972 2.474179 0
M  V30 42 H 0.258063 3.145068 -0.752213 0
M  V30 43 H 0.209280 3.541126 0.967468 0
M  V30 44 H -0.905624 0.030611 -2.126005 0
M  V30 45 H -0.835165 1.858285 -2.042573 0
M  V30 46 H -2.377259 1.056152 -2.228998 0
M  V30 47 H -3.134025 -0.728117 -1.734647 0
M  V30 48 H -4.914993 -2.076823 -0.904919 0
M  V30 49 H -3.082705 -5.789409 2.418061 0
M  V30 50 H -4.946054 -7.199609 3.047769 0
M  V30 51 H -7.267022 -6.224598 2.934395 0
M  V30 52 H -4.301796 -0.597581 3.018385 0
M  V30 53 H 1.427455 0.285682 -2.009553 0
M  V30 54 H 2.852537 1.163039 -2.544254 0
M  V30 55 H 1.442523 2.128081 -2.169629 0
M  V30 END ATOM
M  V30 BEGIN BOND
M  V30 1 1 1 2
M  V30 2 1 2 3
M  V30 3 2 3 4
M  V30 4 2 3 5
M  V30 5 1 3 6
M  V30 6 1 6 7
M  V30 7 2 7 8
M  V30 8 1 8 9
M  V30 9 2 9 10
M  V30 10 1 10 11
M  V30 11 1 11 12
M  V30 12 1 12 13
M  V30 13 2 13 14
M  V30 14 1 14 15
M  V30 15 1 14 16
M  V30 16 2 16 17
M  V30 17 1 17 18
M  V30 18 2 18 19
M  V30 19 1 19 20
M  V30 20 1 20 21
M  V30 21 2 21 22
M  V30 22 1 22 23
M  V30 23 2 23 24
M  V30 24 1 24 25
M  V30 25 2 25 26
M  V30 26 1 19 27
M  V30 27 2 27 28
M  V30 28 1 28 29
M  V30 29 1 29 30
M  V30 30 2 30 31
M  V30 31 2 11 32
M  V30 32 1 32 33
M  V30 33 1 32 7
M  V30 34 1 30 13
M  V30 35 1 28 16
M  V30 36 1 26 21
M  V30 37 1 1 34
M  V30 38 1 1 35
M  V30 39 1 1 36
M  V30 40 1 2 37
M  V30 41 1 6 38
M  V30 42 1 8 39
M  V30 43 1 9 40
M  V30 44 1 10 41
M  V30 45 1 12 42
M  V30 46 1 12 43
M  V30 47 1 15 44
M  V30 48 1 15 45
M  V30 49 1 15 46
M  V30 50 1 17 47
M  V30 51 1 18 48
M  V30 52 1 23 49
M  V30 53 1 24 50
M  V30 54 1 25 51
M  V30 55 1 27 52
M  V30 56 1 33 53
M  V30 57 1 33 54
M  V30 58 1 33 55
M  V30 END BOND
M  V30 END CTAB
M  END
>  <Dataset>  (119) 
ChEMBL_Kinases

>  <Ligand_Instance>  (119) 
nan

>  <PDB_ID>  (119) 
nan

>  <Standardized_SMILES>  (119) 
CNS(=O)(=O)Nc1cccc(Cc2c(C)c3ccc(Oc4ncccn4)cc3oc2=O)c1C

>  <Name>  (119) 
nan

>  <Pocket>  (119) 
nan

>  <ATP_Site>  (119) 
nan

>  <Peripheral>  (119) 
nan

>  <Num_H_Atoms_ProtBoundConf>  (119) 
nan

>  <Num_Resolved_Atoms>  (119) 
nan

>  <Num_Not_Resolved_Atoms>  (119) 
nan

$$$$
CHEMBL3685201
     RDKit          3D

  0  0  0  0  0  0  0  0  0  0999 V3000
M  V30 BEGIN CTAB
M  V30 COUNTS 65 69 0 0 0
M  V30 BEGIN ATOM
M  V30 1 C 1.177062 -1.419147 5.626048 0
M  V30 2 C 0.366881 -1.138919 4.348197 0 CFG=1
M  V30 3 N 1.208554 -0.786563 3.301510 0
M  V30 4 C 2.054225 -0.432709 2.249940 0
M  V30 5 N 3.025828 -1.077074 1.586950 0
M  V30 6 C 3.740213 -0.552893 0.596153 0
M  V30 7 N 3.491957 0.697975 0.218204 0
M  V30 8 C 2.551483 1.440394 0.799835 0
M  V30 9 C 2.403551 2.718623 0.304256 0
M  V30 10 C 3.239826 3.208264 -0.791123 0
M  V30 11 N 3.057273 4.536541 -1.261915 0
M  V30 12 O 4.098240 2.426714 -1.279824 0
M  V30 13 C 1.444360 3.526054 0.869902 0
M  V30 14 C 0.678536 3.025573 1.899969 0
M  V30 15 C 0.886004 1.743706 2.337496 0
M  V30 16 C 1.826960 0.869800 1.823985 0
M  V30 17 C -0.577442 -2.273261 4.133147 0
M  V30 18 C -0.906773 -3.204431 5.094028 0
M  V30 19 C -1.781214 -4.249658 4.862474 0
M  V30 20 C -2.368962 -4.399132 3.626056 0
M  V30 21 C -2.062122 -3.477939 2.624651 0
M  V30 22 N -2.686054 -3.635737 1.355373 0
M  V30 23 C -2.231800 -3.181313 0.070558 0
M  V30 24 C -2.956500 -3.295709 -1.096116 0
M  V30 25 C -2.404829 -2.847624 -2.277180 0
M  V30 26 C -1.127402 -2.275787 -2.343038 0
M  V30 27 C -0.649074 -1.833214 -3.676518 0
M  V30 28 N -0.923273 -0.478887 -4.000143 0
M  V30 29 C -0.324145 0.496126 -3.170103 0
M  V30 30 C -1.125675 1.092834 -2.094053 0
M  V30 31 O -2.462805 0.977640 -2.138014 0
M  V30 32 C -3.059615 0.553246 -3.278835 0
M  V30 33 C -2.265838 -0.143784 -4.302986 0
M  V30 34 C -0.444909 -2.183670 -1.152661 0
M  V30 35 N -1.009068 -2.627689 -0.024406 0
M  V30 36 C -1.188752 -2.448724 2.886339 0
M  V30 37 H 1.440398 -2.515524 5.558653 0
M  V30 38 H 0.502153 -1.294548 6.473872 0
M  V30 39 H 2.087588 -0.809096 5.624128 0
M  V30 40 H -0.260191 -0.239624 4.662303 0
M  V30 41 H 1.576236 -1.792628 3.387196 0
M  V30 42 H 4.487810 -1.216226 0.172423 0
M  V30 43 H 3.079410 5.441566 -0.704686 0
M  V30 44 H 2.868200 5.060300 -2.157839 0
M  V30 45 H 1.256950 4.534042 0.549857 0
M  V30 46 H -0.070205 3.655372 2.342875 0
M  V30 47 H 0.252175 1.420499 3.142343 0
M  V30 48 H -0.445907 -3.087405 6.065297 0
M  V30 49 H -2.003976 -4.962324 5.671908 0
M  V30 50 H -3.038138 -5.233801 3.516291 0
M  V30 51 H -3.612314 -4.153849 1.318449 0
M  V30 52 H -3.938576 -3.740589 -1.011758 0
M  V30 53 H -3.054022 -2.982174 -3.136055 0
M  V30 54 H -1.124591 -2.499847 -4.451764 0
M  V30 55 H 0.449127 -2.056685 -3.796868 0
M  V30 56 H 0.638411 0.088010 -2.735428 0
M  V30 57 H 0.056222 1.311169 -3.857096 0
M  V30 58 H -0.861808 2.188485 -2.003699 0
M  V30 59 H -0.785631 0.684768 -1.100550 0
M  V30 60 H -3.928600 -0.088278 -2.983622 0
M  V30 61 H -3.547704 1.454654 -3.741534 0
M  V30 62 H -2.770152 -1.109864 -4.612466 0
M  V30 63 H -2.247783 0.446580 -5.266104 0
M  V30 64 H 0.545616 -1.743673 -1.196263 0
M  V30 65 H -0.926463 -1.716742 2.146772 0
M  V30 END ATOM
M  V30 BEGIN BOND
M  V30 1 1 1 2
M  V30 2 1 2 3
M  V30 3 1 3 4
M  V30 4 2 4 5
M  V30 5 1 5 6
M  V30 6 2 6 7
M  V30 7 1 7 8
M  V30 8 2 8 9
M  V30 9 1 9 10
M  V30 10 1 10 11
M  V30 11 2 10 12
M  V30 12 1 9 13
M  V30 13 2 13 14
M  V30 14 1 14 15
M  V30 15 2 15 16
M  V30 16 1 2 17
M  V30 17 2 17 18
M  V30 18 1 18 19
M  V30 19 2 19 20
M  V30 20 1 20 21
M  V30 21 1 21 22
M  V30 22 1 22 23
M  V30 23 2 23 24
M  V30 24 1 24 25
M  V30 25 2 25 26
M  V30 26 1 26 27
M  V30 27 1 27 28
M  V30 28 1 28 29
M  V30 29 1 29 30
M  V30 30 1 30 31
M  V30 31 1 31 32
M  V30 32 1 32 33
M  V30 33 1 26 34
M  V30 34 2 34 35
M  V30 35 2 21 36
M  V30 36 1 16 4
M  V30 37 1 36 17
M  V30 38 1 16 8
M  V30 39 1 35 23
M  V30 40 1 33 28
M  V30 41 1 1 37
M  V30 42 1 1 38
M  V30 43 1 1 39
M  V30 44 1 2 40 CFG=1
M  V30 45 1 3 41
M  V30 46 1 6 42
M  V30 47 1 11 43
M  V30 48 1 11 44
M  V30 49 1 13 45
M  V30 50 1 14 46
M  V30 51 1 15 47
M  V30 52 1 18 48
M  V30 53 1 19 49
M  V30 54 1 20 50
M  V30 55 1 22 51
M  V30 56 1 24 52
M  V30 57 1 25 53
M  V30 58 1 27 54
M  V30 59 1 27 55
M  V30 60 1 29 56
M  V30 61 1 29 57
M  V30 62 1 30 58
M  V30 63 1 30 59
M  V30 64 1 32 60
M  V30 65 1 32 61
M  V30 66 1 33 62
M  V30 67 1 33 63
M  V30 68 1 34 64
M  V30 69 1 36 65
M  V30 END BOND
M  V30 END CTAB
M  END
>  <Dataset>  (120) 
ChEMBL_Kinases

>  <Ligand_Instance>  (120) 
nan

>  <PDB_ID>  (120) 
nan

>  <Standardized_SMILES>  (120) 
C[C@@H](Nc1ncnc2c(C(N)=O)cccc12)c1cccc(Nc2ccc(CN3CCOCC3)cn2)c1

>  <Name>  (120) 
nan

>  <Pocket>  (120) 
nan

>  <ATP_Site>  (120) 
nan

>  <Peripheral>  (120) 
nan

>  <Num_H_Atoms_ProtBoundConf>  (120) 
nan

>  <Num_Resolved_Atoms>  (120) 
nan

>  <Num_Not_Resolved_Atoms>  (120) 
nan

$$$$
CHEMBL3092178
     RDKit          3D

  0  0  0  0  0  0  0  0  0  0999 V3000
M  V30 BEGIN CTAB
M  V30 COUNTS 54 56 0 0 0
M  V30 BEGIN ATOM
M  V30 1 C 5.467117 -0.505763 4.960684 0
M  V30 2 N 6.382363 -1.282970 4.204157 0
M  V30 3 S 5.721815 -1.808020 2.735569 0
M  V30 4 O 6.764899 -2.722765 2.102061 0
M  V30 5 O 4.531266 -2.743999 2.965783 0
M  V30 6 N 5.259485 -0.618426 1.625064 0
M  V30 7 C 4.374222 0.476253 1.475498 0
M  V30 8 C 4.231124 1.537856 2.337450 0
M  V30 9 C 3.354397 2.579696 2.137493 0
M  V30 10 C 2.587779 2.532247 0.999439 0
M  V30 11 C 2.636083 1.530867 0.061725 0
M  V30 12 C 1.842172 1.407093 -1.187635 0
M  V30 13 C 0.621484 0.580758 -1.018689 0
M  V30 14 C -0.583413 0.930175 -0.445779 0
M  V30 15 C -0.694604 2.315897 0.032138 0
M  V30 16 C -1.583434 -0.014333 -0.377574 0
M  V30 17 C -2.784942 0.333628 0.196444 0
M  V30 18 C -3.840969 -0.548392 0.307249 0
M  V30 19 I -5.683383 -0.070278 1.167795 0
M  V30 20 C -3.687570 -1.831111 -0.176166 0
M  V30 21 O -4.657011 -2.853715 -0.145023 0
M  V30 22 C -5.570529 -3.002583 -1.179870 0
M  V30 23 O -5.173204 -2.044943 -1.894619 0
M  V30 24 N -6.579536 -4.003854 -1.231494 0
M  V30 25 C -6.909108 -5.069717 -0.287444 0
M  V30 26 C -7.297576 -3.791046 -2.470308 0
M  V30 27 C -2.501813 -2.227474 -0.759811 0
M  V30 28 C -1.482833 -1.306322 -0.843339 0
M  V30 29 O -0.332951 -1.639637 -1.391110 0
M  V30 30 C 0.632204 -0.751300 -1.463877 0
M  V30 31 O 1.673964 -1.241794 -2.022485 0
M  V30 32 C 3.545383 0.541523 0.361207 0
M  V30 33 H 4.450181 -0.457194 4.492987 0
M  V30 34 H 5.278981 -0.928063 5.988764 0
M  V30 35 H 5.897896 0.505920 5.101662 0
M  V30 36 H 7.356799 -0.981479 4.171957 0
M  V30 37 H 5.797232 -0.653325 0.699803 0
M  V30 38 H 4.827306 1.589587 3.214281 0
M  V30 39 H 3.260752 3.402046 2.831157 0
M  V30 40 H 1.901765 3.334900 0.823288 0
M  V30 41 H 1.620776 2.395228 -1.640677 0
M  V30 42 H 2.488565 0.892636 -1.927850 0
M  V30 43 H -0.404241 2.354972 1.098750 0
M  V30 44 H -1.732903 2.678877 -0.133247 0
M  V30 45 H -0.014441 3.010355 -0.507672 0
M  V30 46 H -2.965663 1.301487 0.590239 0
M  V30 47 H -7.875258 -4.888079 0.209985 0
M  V30 48 H -6.946314 -6.026278 -0.869751 0
M  V30 49 H -6.069611 -5.135780 0.433345 0
M  V30 50 H -6.654721 -3.715570 -3.360984 0
M  V30 51 H -8.070523 -4.566181 -2.667371 0
M  V30 52 H -7.837256 -2.810478 -2.408186 0
M  V30 53 H -2.319157 -3.220064 -1.158596 0
M  V30 54 H 3.637912 -0.294522 -0.347718 0
M  V30 END ATOM
M  V30 BEGIN BOND
M  V30 1 1 1 2
M  V30 2 1 2 3
M  V30 3 2 3 4
M  V30 4 2 3 5
M  V30 5 1 3 6
M  V30 6 1 6 7
M  V30 7 2 7 8
M  V30 8 1 8 9
M  V30 9 2 9 10
M  V30 10 1 10 11
M  V30 11 1 11 12
M  V30 12 1 12 13
M  V30 13 2 13 14
M  V30 14 1 14 15
M  V30 15 1 14 16
M  V30 16 2 16 17
M  V30 17 1 17 18
M  V30 18 1 18 19
M  V30 19 2 18 20
M  V30 20 1 20 21
M  V30 21 1 21 22
M  V30 22 2 22 23
M  V30 23 1 22 24
M  V30 24 1 24 25
M  V30 25 1 24 26
M  V30 26 1 20 27
M  V30 27 2 27 28
M  V30 28 1 28 29
M  V30 29 1 29 30
M  V30 30 2 30 31
M  V30 31 2 11 32
M  V30 32 1 32 7
M  V30 33 1 30 13
M  V30 34 1 28 16
M  V30 35 1 1 33
M  V30 36 1 1 34
M  V30 37 1 1 35
M  V30 38 1 2 36
M  V30 39 1 6 37
M  V30 40 1 8 38
M  V30 41 1 9 39
M  V30 42 1 10 40
M  V30 43 1 12 41
M  V30 44 1 12 42
M  V30 45 1 15 43
M  V30 46 1 15 44
M  V30 47 1 15 45
M  V30 48 1 17 46
M  V30 49 1 25 47
M  V30 50 1 25 48
M  V30 51 1 25 49
M  V30 52 1 26 50
M  V30 53 1 26 51
M  V30 54 1 26 52
M  V30 55 1 27 53
M  V30 56 1 32 54
M  V30 END BOND
M  V30 END CTAB
M  END
>  <Dataset>  (121) 
ChEMBL_Kinases

>  <Ligand_Instance>  (121) 
nan

>  <PDB_ID>  (121) 
nan

>  <Standardized_SMILES>  (121) 
CNS(=O)(=O)Nc1cccc(Cc2c(C)c3cc(I)c(OC(=O)N(C)C)cc3oc2=O)c1

>  <Name>  (121) 
nan

>  <Pocket>  (121) 
nan

>  <ATP_Site>  (121) 
nan

>  <Peripheral>  (121) 
nan

>  <Num_H_Atoms_ProtBoundConf>  (121) 
nan

>  <Num_Resolved_Atoms>  (121) 
nan

>  <Num_Not_Resolved_Atoms>  (121) 
nan

$$$$
CHEMBL3685200
     RDKit          3D

  0  0  0  0  0  0  0  0  0  0999 V3000
M  V30 BEGIN CTAB
M  V30 COUNTS 50 53 0 0 0
M  V30 BEGIN ATOM
M  V30 1 N 0.303638 -6.122894 4.113024 0
M  V30 2 C 1.066153 -5.043580 4.636042 0
M  V30 3 O 1.208517 -5.156591 5.863250 0
M  V30 4 C 1.641948 -3.918619 3.917009 0
M  V30 5 C 2.343579 -3.004381 4.646913 0
M  V30 6 C 2.885241 -1.941113 3.938353 0
M  V30 7 C 2.703612 -1.852805 2.592796 0
M  V30 8 C 1.993156 -2.783204 1.870512 0
M  V30 9 C 1.825148 -2.668832 0.512220 0
M  V30 10 N 2.368027 -1.619838 -0.253414 0
M  V30 11 C 2.429925 -1.144089 -1.592376 0
M  V30 12 C 1.161553 -0.635317 -2.193260 0
M  V30 13 C 0.640937 0.501709 -1.345327 0
M  V30 14 C -0.574443 0.680519 -0.883065 0
M  V30 15 N -0.878560 1.836774 -0.081365 0
M  V30 16 C -1.889354 2.612092 -0.710747 0
M  V30 17 O -2.261701 2.087446 -1.810922 0
M  V30 18 C -2.406657 3.846644 -0.134803 0
M  V30 19 C -1.968426 4.402095 1.054641 0
M  V30 20 C -2.528112 5.575186 1.509808 0
M  V30 21 N -3.496135 6.163811 0.786537 0
M  V30 22 C -3.933790 5.639695 -0.369112 0
M  V30 23 C -3.412445 4.450381 -0.894405 0
M  V30 24 C -1.536105 -0.341597 -1.279695 0
M  V30 25 C -1.210751 -1.351234 -2.041465 0
M  V30 26 C 0.142293 -1.607416 -2.608696 0
M  V30 27 N 1.122569 -3.617363 -0.095088 0
M  V30 28 C 0.584576 -4.654452 0.542522 0
M  V30 29 N 0.758310 -4.753937 1.879165 0
M  V30 30 C 1.455913 -3.834114 2.561372 0
M  V30 31 H 0.513968 -6.668030 3.261172 0
M  V30 32 H -0.569149 -6.478591 4.552883 0
M  V30 33 H 2.457238 -3.127142 5.729699 0
M  V30 34 H 3.446208 -1.212556 4.532336 0
M  V30 35 H 3.169128 -0.986749 2.157508 0
M  V30 36 H 2.904950 -0.945990 0.297857 0
M  V30 37 H 2.806619 -1.966835 -2.284186 0
M  V30 38 H 3.193714 -0.344560 -1.744372 0
M  V30 39 H 1.502773 -0.102080 -3.151123 0
M  V30 40 H 1.438361 1.225741 -1.133392 0
M  V30 41 H -0.470355 2.136320 0.836130 0
M  V30 42 H -1.192036 3.890217 1.592573 0
M  V30 43 H -2.113888 5.930477 2.454239 0
M  V30 44 H -4.720737 6.164708 -0.907185 0
M  V30 45 H -3.776566 4.034217 -1.835443 0
M  V30 46 H -2.563961 -0.223785 -0.903816 0
M  V30 47 H -1.992133 -2.060122 -2.278603 0
M  V30 48 H -0.040946 -1.527907 -3.739928 0
M  V30 49 H 0.371219 -2.666466 -2.477892 0
M  V30 50 H -0.001501 -5.457282 0.080387 0
M  V30 END ATOM
M  V30 BEGIN BOND
M  V30 1 1 1 2
M  V30 2 2 2 3
M  V30 3 1 2 4
M  V30 4 2 4 5
M  V30 5 1 5 6
M  V30 6 2 6 7
M  V30 7 1 7 8
M  V30 8 2 8 9
M  V30 9 1 9 10
M  V30 10 1 10 11
M  V30 11 1 11 12
M  V30 12 1 12 13
M  V30 13 2 13 14
M  V30 14 1 14 15
M  V30 15 1 15 16
M  V30 16 2 16 17
M  V30 17 1 16 18
M  V30 18 2 18 19
M  V30 19 1 19 20
M  V30 20 2 20 21
M  V30 21 1 21 22
M  V30 22 2 22 23
M  V30 23 1 14 24
M  V30 24 2 24 25
M  V30 25 1 25 26
M  V30 26 1 9 27
M  V30 27 2 27 28
M  V30 28 1 28 29
M  V30 29 2 29 30
M  V30 30 1 30 4
M  V30 31 1 30 8
M  V30 32 1 26 12
M  V30 33 1 23 18
M  V30 34 1 1 31
M  V30 35 1 1 32
M  V30 36 1 5 33
M  V30 37 1 6 34
M  V30 38 1 7 35
M  V30 39 1 10 36
M  V30 40 1 11 37
M  V30 41 1 11 38
M  V30 42 1 12 39
M  V30 43 1 13 40
M  V30 44 1 15 41
M  V30 45 1 19 42
M  V30 46 1 20 43
M  V30 47 1 22 44
M  V30 48 1 23 45
M  V30 49 1 24 46
M  V30 50 1 25 47
M  V30 51 1 26 48
M  V30 52 1 26 49
M  V30 53 1 28 50
M  V30 END BOND
M  V30 END CTAB
M  END
>  <Dataset>  (122) 
ChEMBL_Kinases

>  <Ligand_Instance>  (122) 
nan

>  <PDB_ID>  (122) 
nan

>  <Standardized_SMILES>  (122) 
NC(=O)c1cccc2c(NCC3C=C(NC(=O)c4ccncc4)C=CC3)ncnc12

>  <Name>  (122) 
nan

>  <Pocket>  (122) 
nan

>  <ATP_Site>  (122) 
nan

>  <Peripheral>  (122) 
nan

>  <Num_H_Atoms_ProtBoundConf>  (122) 
nan

>  <Num_Resolved_Atoms>  (122) 
nan

>  <Num_Not_Resolved_Atoms>  (122) 
nan

$$$$
CHEMBL3092179
     RDKit          3D

  0  0  0  0  0  0  0  0  0  0999 V3000
M  V30 BEGIN CTAB
M  V30 COUNTS 57 59 0 0 0
M  V30 BEGIN ATOM
M  V30 1 C -6.961701 1.518657 -3.510479 0
M  V30 2 N -6.650302 2.919143 -3.576400 0
M  V30 3 S -5.841954 3.516659 -2.194465 0
M  V30 4 O -6.700908 3.467399 -0.966991 0
M  V30 5 O -5.568964 4.985423 -2.445805 0
M  V30 6 N -4.307352 2.749005 -1.937770 0
M  V30 7 C -4.147821 1.358110 -1.695846 0
M  V30 8 C -4.943905 0.659165 -0.812663 0
M  V30 9 C -4.748955 -0.691500 -0.611020 0
M  V30 10 C -3.731961 -1.280169 -1.332074 0
M  V30 11 C -2.884033 -0.640331 -2.243695 0
M  V30 12 C -1.855713 -1.468586 -2.916092 0
M  V30 13 C -0.618411 -1.597023 -2.106446 0
M  V30 14 C 0.378713 -0.658536 -1.954899 0
M  V30 15 C 0.257134 0.608706 -2.674335 0
M  V30 16 C 1.456857 -0.949281 -1.143642 0
M  V30 17 C 2.474445 -0.035969 -0.964615 0
M  V30 18 C 3.593035 -0.231125 -0.174753 0
M  V30 19 C 4.649417 0.797275 -0.028619 0
M  V30 20 C 3.705469 -1.435508 0.490658 0
M  V30 21 O 4.794573 -1.720424 1.306767 0
M  V30 22 C 4.768327 -1.408003 2.656371 0
M  V30 23 O 3.621971 -1.001755 2.274302 0
M  V30 24 N 4.547597 -1.015997 3.989326 0
M  V30 25 C 3.338807 -0.384852 4.494669 0
M  V30 26 C 5.579243 -1.237435 4.978225 0
M  V30 27 C 2.716072 -2.388579 0.348929 0
M  V30 28 C 1.623757 -2.132783 -0.454439 0
M  V30 29 O 0.654106 -3.031818 -0.609685 0
M  V30 30 C -0.385787 -2.774410 -1.380186 0
M  V30 31 O -1.221848 -3.723439 -1.427924 0
M  V30 32 C -3.151840 0.697512 -2.379108 0
M  V30 33 H -7.858475 1.269521 -4.140425 0
M  V30 34 H -7.251253 1.211595 -2.488069 0
M  V30 35 H -6.098872 0.880594 -3.844569 0
M  V30 36 H -6.141684 3.168202 -4.432372 0
M  V30 37 H -3.396906 3.297081 -1.949693 0
M  V30 38 H -5.728719 1.184464 -0.275587 0
M  V30 39 H -5.345999 -1.271127 0.066385 0
M  V30 40 H -3.591844 -2.353306 -1.158876 0
M  V30 41 H -2.287556 -2.505433 -3.026063 0
M  V30 42 H -1.641433 -1.086931 -3.936129 0
M  V30 43 H -0.348633 0.441394 -3.604018 0
M  V30 44 H -0.070391 1.465873 -2.088368 0
M  V30 45 H 1.280610 0.860046 -3.087251 0
M  V30 46 H 2.448767 0.927446 -1.453870 0
M  V30 47 H 5.561637 0.311483 0.395969 0
M  V30 48 H 4.927925 1.162041 -1.040739 0
M  V30 49 H 4.298609 1.646107 0.596500 0
M  V30 50 H 3.567083 0.499714 5.132516 0
M  V30 51 H 2.607358 -0.185875 3.697911 0
M  V30 52 H 2.899382 -1.145053 5.199688 0
M  V30 53 H 5.670569 -0.311119 5.618874 0
M  V30 54 H 6.537202 -1.385238 4.444025 0
M  V30 55 H 5.276580 -2.113668 5.604931 0
M  V30 56 H 2.814745 -3.338763 0.879950 0
M  V30 57 H -2.527048 1.232389 -3.074456 0
M  V30 END ATOM
M  V30 BEGIN BOND
M  V30 1 1 1 2
M  V30 2 1 2 3
M  V30 3 2 3 4
M  V30 4 2 3 5
M  V30 5 1 3 6
M  V30 6 1 6 7
M  V30 7 2 7 8
M  V30 8 1 8 9
M  V30 9 2 9 10
M  V30 10 1 10 11
M  V30 11 1 11 12
M  V30 12 1 12 13
M  V30 13 2 13 14
M  V30 14 1 14 15
M  V30 15 1 14 16
M  V30 16 2 16 17
M  V30 17 1 17 18
M  V30 18 1 18 19
M  V30 19 2 18 20
M  V30 20 1 20 21
M  V30 21 1 21 22
M  V30 22 2 22 23
M  V30 23 1 22 24
M  V30 24 1 24 25
M  V30 25 1 24 26
M  V30 26 1 20 27
M  V30 27 2 27 28
M  V30 28 1 28 29
M  V30 29 1 29 30
M  V30 30 2 30 31
M  V30 31 2 11 32
M  V30 32 1 32 7
M  V30 33 1 30 13
M  V30 34 1 28 16
M  V30 35 1 1 33
M  V30 36 1 1 34
M  V30 37 1 1 35
M  V30 38 1 2 36
M  V30 39 1 6 37
M  V30 40 1 8 38
M  V30 41 1 9 39
M  V30 42 1 10 40
M  V30 43 1 12 41
M  V30 44 1 12 42
M  V30 45 1 15 43
M  V30 46 1 15 44
M  V30 47 1 15 45
M  V30 48 1 17 46
M  V30 49 1 19 47
M  V30 50 1 19 48
M  V30 51 1 19 49
M  V30 52 1 25 50
M  V30 53 1 25 51
M  V30 54 1 25 52
M  V30 55 1 26 53
M  V30 56 1 26 54
M  V30 57 1 26 55
M  V30 58 1 27 56
M  V30 59 1 32 57
M  V30 END BOND
M  V30 END CTAB
M  END
>  <Dataset>  (123) 
ChEMBL_Kinases

>  <Ligand_Instance>  (123) 
nan

>  <PDB_ID>  (123) 
nan

>  <Standardized_SMILES>  (123) 
CNS(=O)(=O)Nc1cccc(Cc2c(C)c3cc(C)c(OC(=O)N(C)C)cc3oc2=O)c1

>  <Name>  (123) 
nan

>  <Pocket>  (123) 
nan

>  <ATP_Site>  (123) 
nan

>  <Peripheral>  (123) 
nan

>  <Num_H_Atoms_ProtBoundConf>  (123) 
nan

>  <Num_Resolved_Atoms>  (123) 
nan

>  <Num_Not_Resolved_Atoms>  (123) 
nan

$$$$
CHEMBL3092180
     RDKit          3D

  0  0  0  0  0  0  0  0  0  0999 V3000
M  V30 BEGIN CTAB
M  V30 COUNTS 56 58 0 0 0
M  V30 BEGIN ATOM
M  V30 1 C -0.735764 -5.546531 2.866051 0
M  V30 2 C -0.162144 -4.815114 2.081077 0
M  V30 3 C 0.530984 -3.935040 1.153323 0
M  V30 4 C 0.817513 -2.629133 1.516193 0
M  V30 5 C 1.471980 -1.744578 0.685443 0
M  V30 6 C 1.730383 -0.456216 1.099345 0
M  V30 7 C 1.350243 0.043954 2.435081 0
M  V30 8 C 2.381462 0.408917 0.256358 0
M  V30 9 C 2.752740 1.812016 0.450719 0
M  V30 10 C 1.680699 2.795898 0.285271 0
M  V30 11 C 1.589484 3.256744 -1.037710 0
M  V30 12 C 0.660238 4.197432 -1.427255 0
M  V30 13 C -0.215666 4.711371 -0.496264 0
M  V30 14 C -0.163215 4.284482 0.826653 0
M  V30 15 N -1.044828 4.775264 1.820521 0
M  V30 16 S -2.032506 4.015556 3.016062 0
M  V30 17 O -2.612413 5.074159 3.879451 0
M  V30 18 O -1.129558 3.129088 3.847161 0
M  V30 19 N -3.214979 3.010705 2.293530 0
M  V30 20 C -2.547811 1.966213 1.544141 0
M  V30 21 C 0.778357 3.346802 1.167513 0
M  V30 22 C 2.721344 -0.150748 -0.980738 0
M  V30 23 O 3.330078 0.444015 -1.935664 0
M  V30 24 O 2.462165 -1.401667 -1.361781 0
M  V30 25 C 1.831600 -2.241497 -0.549519 0
M  V30 26 C 1.564359 -3.541834 -0.953146 0
M  V30 27 C 0.908895 -4.403325 -0.101157 0
M  V30 28 O 0.587565 -5.723412 -0.393292 0
M  V30 29 C -0.614632 -6.059581 -1.007367 0
M  V30 30 O -0.870211 -4.810677 -1.001594 0
M  V30 31 N -1.796208 -6.527149 -1.625051 0
M  V30 32 C -2.672668 -5.411698 -1.935034 0
M  V30 33 C -2.058704 -7.931454 -1.893198 0
M  V30 34 H -1.242257 -6.173783 3.552555 0
M  V30 35 H 0.491416 -2.340949 2.499748 0
M  V30 36 H 0.286190 0.347644 2.450894 0
M  V30 37 H 1.479402 -0.752537 3.206522 0
M  V30 38 H 1.962510 0.921636 2.758208 0
M  V30 39 H 3.654056 2.083340 -0.180130 0
M  V30 40 H 3.170462 1.905467 1.498371 0
M  V30 41 H 2.209333 2.946449 -1.880832 0
M  V30 42 H 0.547910 4.585062 -2.428745 0
M  V30 43 H -0.960577 5.451595 -0.758840 0
M  V30 44 H -1.026854 5.833212 1.735904 0
M  V30 45 H -3.762219 2.543186 3.058346 0
M  V30 46 H -3.112443 1.001817 1.540995 0
M  V30 47 H -2.496286 2.326319 0.483328 0
M  V30 48 H -1.534924 1.766142 1.890828 0
M  V30 49 H 0.896086 2.956136 2.167790 0
M  V30 50 H 1.854697 -3.907579 -1.922032 0
M  V30 51 H -3.229757 -5.055400 -1.046867 0
M  V30 52 H -3.423228 -5.793899 -2.657803 0
M  V30 53 H -2.139574 -4.575198 -2.451431 0
M  V30 54 H -1.120677 -8.460803 -1.643120 0
M  V30 55 H -2.234345 -8.061346 -2.967250 0
M  V30 56 H -2.924198 -8.295338 -1.308717 0
M  V30 END ATOM
M  V30 BEGIN BOND
M  V30 1 3 1 2
M  V30 2 1 2 3
M  V30 3 2 3 4
M  V30 4 1 4 5
M  V30 5 1 5 6
M  V30 6 1 6 7
M  V30 7 2 6 8
M  V30 8 1 8 9
M  V30 9 1 9 10
M  V30 10 2 10 11
M  V30 11 1 11 12
M  V30 12 2 12 13
M  V30 13 1 13 14
M  V30 14 1 14 15
M  V30 15 1 15 16
M  V30 16 2 16 17
M  V30 17 2 16 18
M  V30 18 1 16 19
M  V30 19 1 19 20
M  V30 20 2 14 21
M  V30 21 1 8 22
M  V30 22 2 22 23
M  V30 23 1 22 24
M  V30 24 1 24 25
M  V30 25 1 25 26
M  V30 26 2 26 27
M  V30 27 1 27 28
M  V30 28 1 28 29
M  V30 29 2 29 30
M  V30 30 1 29 31
M  V30 31 1 31 32
M  V30 32 1 31 33
M  V30 33 1 27 3
M  V30 34 2 25 5
M  V30 35 1 21 10
M  V30 36 1 1 34
M  V30 37 1 4 35
M  V30 38 1 7 36
M  V30 39 1 7 37
M  V30 40 1 7 38
M  V30 41 1 9 39
M  V30 42 1 9 40
M  V30 43 1 11 41
M  V30 44 1 12 42
M  V30 45 1 13 43
M  V30 46 1 15 44
M  V30 47 1 19 45
M  V30 48 1 20 46
M  V30 49 1 20 47
M  V30 50 1 20 48
M  V30 51 1 21 49
M  V30 52 1 26 50
M  V30 53 1 32 51
M  V30 54 1 32 52
M  V30 55 1 32 53
M  V30 56 1 33 54
M  V30 57 1 33 55
M  V30 58 1 33 56
M  V30 END BOND
M  V30 END CTAB
M  END
>  <Dataset>  (124) 
ChEMBL_Kinases

>  <Ligand_Instance>  (124) 
nan

>  <PDB_ID>  (124) 
nan

>  <Standardized_SMILES>  (124) 
C#Cc1cc2c(C)c(Cc3cccc(NS(=O)(=O)NC)c3)c(=O)oc2cc1OC(=O)N(C)C

>  <Name>  (124) 
nan

>  <Pocket>  (124) 
nan

>  <ATP_Site>  (124) 
nan

>  <Peripheral>  (124) 
nan

>  <Num_H_Atoms_ProtBoundConf>  (124) 
nan

>  <Num_Resolved_Atoms>  (124) 
nan

>  <Num_Not_Resolved_Atoms>  (124) 
nan

$$$$
CHEMBL215677
     RDKit          3D

  0  0  0  0  0  0  0  0  0  0999 V3000
M  V30 BEGIN CTAB
M  V30 COUNTS 37 41 0 0 0
M  V30 BEGIN ATOM
M  V30 1 O 3.380444 1.188356 1.790850 0
M  V30 2 C 2.690633 0.157356 1.817984 0
M  V30 3 N 2.875051 -1.055863 2.576341 0
M  V30 4 C 1.825180 -1.952965 2.272052 0
M  V30 5 O 1.874830 -3.036440 2.865412 0
M  V30 6 C 0.931695 -1.367533 1.319445 0
M  V30 7 C 1.459595 -0.125418 1.065677 0
M  V30 8 C 0.828213 0.725154 0.167869 0
M  V30 9 C 1.348950 2.054695 -0.136088 0
M  V30 10 C 2.244152 2.395985 -1.128595 0
M  V30 11 C 2.626201 3.714460 -1.268707 0
M  V30 12 C 2.107634 4.662461 -0.416862 0
M  V30 13 C 1.200265 4.348774 0.596928 0
M  V30 14 C 0.832303 3.026516 0.719209 0
M  V30 15 Br -0.411215 2.671843 2.126755 0
M  V30 16 C -0.328027 0.315847 -0.464822 0
M  V30 17 C -0.840770 -0.936151 -0.194919 0
M  V30 18 N -1.929933 -1.569965 -0.663237 0
M  V30 19 C -1.961827 -2.794411 -0.056845 0
M  V30 20 C -2.916855 -3.794405 -0.239046 0
M  V30 21 C -2.821273 -4.992239 0.446620 0
M  V30 22 C -1.746873 -5.168418 1.320695 0
M  V30 23 O -1.656431 -6.363501 2.001200 0
M  V30 24 C -0.844973 -4.137729 1.448370 0
M  V30 25 C -0.893016 -2.942612 0.798768 0
M  V30 26 C -0.207251 -1.771088 0.696409 0
M  V30 27 H 3.719260 -1.111050 3.220344 0
M  V30 28 H 2.578177 1.575179 -1.728090 0
M  V30 29 H 3.329378 3.940818 -2.058404 0
M  V30 30 H 2.418944 5.698191 -0.540368 0
M  V30 31 H 0.820428 5.145346 1.245585 0
M  V30 32 H -0.858590 0.940933 -1.173159 0
M  V30 33 H -2.605854 -1.175223 -1.359124 0
M  V30 34 H -3.739831 -3.634567 -0.921375 0
M  V30 35 H -3.596718 -5.721405 0.256104 0
M  V30 36 H -2.074619 -6.519131 2.910684 0
M  V30 37 H -0.059630 -4.348226 2.129313 0
M  V30 END ATOM
M  V30 BEGIN BOND
M  V30 1 2 1 2
M  V30 2 1 2 3
M  V30 3 1 3 4
M  V30 4 2 4 5
M  V30 5 1 4 6
M  V30 6 2 6 7
M  V30 7 1 7 8
M  V30 8 1 8 9
M  V30 9 2 9 10
M  V30 10 1 10 11
M  V30 11 2 11 12
M  V30 12 1 12 13
M  V30 13 2 13 14
M  V30 14 1 14 15
M  V30 15 2 8 16
M  V30 16 1 16 17
M  V30 17 1 17 18
M  V30 18 1 18 19
M  V30 19 2 19 20
M  V30 20 1 20 21
M  V30 21 2 21 22
M  V30 22 1 22 23
M  V30 23 1 22 24
M  V30 24 2 24 25
M  V30 25 1 25 26
M  V30 26 1 7 2
M  V30 27 1 14 9
M  V30 28 2 26 17
M  V30 29 1 26 6
M  V30 30 1 25 19
M  V30 31 1 3 27
M  V30 32 1 10 28
M  V30 33 1 11 29
M  V30 34 1 12 30
M  V30 35 1 13 31
M  V30 36 1 16 32
M  V30 37 1 18 33
M  V30 38 1 20 34
M  V30 39 1 21 35
M  V30 40 1 23 36
M  V30 41 1 24 37
M  V30 END BOND
M  V30 END CTAB
M  END
>  <Dataset>  (125) 
ChEMBL_Kinases

>  <Ligand_Instance>  (125) 
nan

>  <PDB_ID>  (125) 
nan

>  <Standardized_SMILES>  (125) 
O=C1NC(=O)c2c1c(-c1ccccc1Br)cc1[nH]c3ccc(O)cc3c21

>  <Name>  (125) 
nan

>  <Pocket>  (125) 
nan

>  <ATP_Site>  (125) 
nan

>  <Peripheral>  (125) 
nan

>  <Num_H_Atoms_ProtBoundConf>  (125) 
nan

>  <Num_Resolved_Atoms>  (125) 
nan

>  <Num_Not_Resolved_Atoms>  (125) 
nan

$$$$
CHEMBL4584824
     RDKit          3D

  0  0  0  0  0  0  0  0  0  0999 V3000
M  V30 BEGIN CTAB
M  V30 COUNTS 44 46 0 0 0
M  V30 BEGIN ATOM
M  V30 1 C 1.401862 -6.538603 -3.157702 0
M  V30 2 O 1.661684 -5.182027 -2.938593 0
M  V30 3 C 0.754605 -4.224397 -2.566634 0
M  V30 4 C -0.598957 -4.387073 -2.329289 0
M  V30 5 C -1.424182 -3.353032 -1.958366 0
M  V30 6 C -0.866739 -2.108354 -1.821065 0
M  V30 7 C 0.468742 -1.863473 -2.038431 0
M  V30 8 C 1.083590 -0.509543 -1.890519 0 CFG=1
M  V30 9 C 0.705184 0.285140 -3.117236 0
M  V30 10 N 0.591482 0.066447 -0.673609 0
M  V30 11 C 1.495698 0.444707 0.372937 0
M  V30 12 O 2.685917 0.213652 0.084899 0
M  V30 13 C 0.935269 1.028628 1.594145 0
M  V30 14 C -0.383948 1.282365 1.915018 0
M  V30 15 C -0.665314 1.846128 3.144178 0
M  V30 16 C 0.324186 2.161943 4.056239 0
M  V30 17 C -0.047080 2.759284 5.346549 0
M  V30 18 C -1.263830 2.421517 5.939065 0
M  V30 19 C -1.586884 2.998991 7.153018 0
M  V30 20 N -0.744890 3.855697 7.729659 0
M  V30 21 N 0.405502 4.174553 7.168678 0
M  V30 22 C 0.804822 3.661481 5.986049 0
M  V30 23 C 1.642834 1.907939 3.734584 0
M  V30 24 C 1.943150 1.344686 2.510302 0
M  V30 25 C 1.259177 -2.944743 -2.411807 0
M  V30 26 H 1.822904 -6.884544 -4.145867 0
M  V30 27 H 1.891387 -7.108715 -2.336370 0
M  V30 28 H 0.323668 -6.782036 -3.182486 0
M  V30 29 H -0.974421 -5.388654 -2.454361 0
M  V30 30 H -2.465877 -3.547531 -1.789425 0
M  V30 31 H -1.517863 -1.301460 -1.530108 0
M  V30 32 H 2.181198 -0.610741 -1.902375 0
M  V30 33 H 0.571971 1.366714 -2.820422 0
M  V30 34 H -0.286293 -0.066890 -3.452683 0
M  V30 35 H 1.478123 0.171720 -3.898307 0
M  V30 36 H -0.445063 0.179672 -0.623832 0
M  V30 37 H -1.063348 1.000688 1.140984 0
M  V30 38 H -1.725826 2.021647 3.337114 0
M  V30 39 H -1.889196 1.711657 5.394429 0
M  V30 40 H -2.557070 2.660865 7.516656 0
M  V30 41 H 1.761825 3.926601 5.518886 0
M  V30 42 H 2.389756 2.171790 4.480851 0
M  V30 43 H 3.010216 1.191984 2.370122 0
M  V30 44 H 2.309914 -2.725501 -2.577288 0
M  V30 END ATOM
M  V30 BEGIN BOND
M  V30 1 1 1 2
M  V30 2 1 2 3
M  V30 3 2 3 4
M  V30 4 1 4 5
M  V30 5 2 5 6
M  V30 6 1 6 7
M  V30 7 1 7 8
M  V30 8 1 8 9
M  V30 9 1 8 10
M  V30 10 1 10 11
M  V30 11 2 11 12
M  V30 12 1 11 13
M  V30 13 2 13 14
M  V30 14 1 14 15
M  V30 15 2 15 16
M  V30 16 1 16 17
M  V30 17 2 17 18
M  V30 18 1 18 19
M  V30 19 2 19 20
M  V30 20 1 20 21
M  V30 21 2 21 22
M  V30 22 1 16 23
M  V30 23 2 23 24
M  V30 24 2 7 25
M  V30 25 1 25 3
M  V30 26 1 24 13
M  V30 27 1 22 17
M  V30 28 1 1 26
M  V30 29 1 1 27
M  V30 30 1 1 28
M  V30 31 1 4 29
M  V30 32 1 5 30
M  V30 33 1 6 31
M  V30 34 1 8 32 CFG=1
M  V30 35 1 9 33
M  V30 36 1 9 34
M  V30 37 1 9 35
M  V30 38 1 10 36
M  V30 39 1 14 37
M  V30 40 1 15 38
M  V30 41 1 18 39
M  V30 42 1 19 40
M  V30 43 1 22 41
M  V30 44 1 23 42
M  V30 45 1 24 43
M  V30 46 1 25 44
M  V30 END BOND
M  V30 END CTAB
M  END
>  <Dataset>  (126) 
ChEMBL_Kinases

>  <Ligand_Instance>  (126) 
nan

>  <PDB_ID>  (126) 
nan

>  <Standardized_SMILES>  (126) 
COc1cccc([C@@H](C)NC(=O)c2ccc(-c3ccnnc3)cc2)c1

>  <Name>  (126) 
nan

>  <Pocket>  (126) 
nan

>  <ATP_Site>  (126) 
nan

>  <Peripheral>  (126) 
nan

>  <Num_H_Atoms_ProtBoundConf>  (126) 
nan

>  <Num_Resolved_Atoms>  (126) 
nan

>  <Num_Not_Resolved_Atoms>  (126) 
nan

$$$$
CHEMBL3701749
     RDKit          3D

  0  0  0  0  0  0  0  0  0  0999 V3000
M  V30 BEGIN CTAB
M  V30 COUNTS 60 66 0 0 0
M  V30 BEGIN ATOM
M  V30 1 N 1.822431 -4.908874 1.952324 0
M  V30 2 C 1.069865 -4.659488 0.735302 0
M  V30 3 C 0.799002 -3.205406 0.591210 0
M  V30 4 C 0.137366 -2.721606 1.723661 0
M  V30 5 C -0.229352 -1.392431 1.839570 0
M  V30 6 C 0.081208 -0.542642 0.789291 0
M  V30 7 C -0.297777 0.865835 0.874865 0
M  V30 8 N -1.646522 1.046522 0.779969 0
M  V30 9 C -1.919602 2.360222 0.857848 0
M  V30 10 N -0.754275 3.022039 1.002466 0
M  V30 11 C 0.263989 2.140384 1.017337 0
M  V30 12 C 1.712654 2.149474 1.134924 0
M  V30 13 C 2.402828 2.869390 0.179724 0
M  V30 14 C 3.779698 2.936145 0.208059 0
M  V30 15 C 4.473899 2.263248 1.219708 0
M  V30 16 C 3.791553 1.544526 2.174731 0
M  V30 17 C 2.408769 1.487966 2.131659 0
M  V30 18 C -0.516497 4.435351 1.131076 0
M  V30 19 O -1.729569 5.166317 1.080271 0
M  V30 20 C -2.985789 4.597014 0.934363 0
M  V30 21 C -4.156816 5.329097 0.891097 0
M  V30 22 N -5.341240 4.698966 0.747092 0
M  V30 23 C -5.464926 3.364320 0.638830 0
M  V30 24 C -4.319079 2.575433 0.675405 0
M  V30 25 C -3.094381 3.228577 0.824788 0
M  V30 26 C 0.735533 -1.009922 -0.335427 0
M  V30 27 C 1.096231 -2.337993 -0.439767 0
M  V30 28 C 1.717593 -5.355481 -0.414029 0
M  V30 29 C 0.361578 -6.003323 -0.727336 0
M  V30 30 O 0.404267 -7.405285 -0.771532 0
M  V30 31 C -0.247461 -5.403051 -1.948241 0
M  V30 32 C -1.578219 -5.854988 -2.458819 0
M  V30 33 C -1.332764 -4.428725 -1.951867 0
M  V30 34 C -0.151775 -5.536961 0.601251 0
M  V30 35 H 2.422315 -4.084727 2.113542 0
M  V30 36 H 1.214638 -5.186303 2.751407 0
M  V30 37 H -0.157505 -3.302102 2.610383 0
M  V30 38 H -0.743313 -0.979145 2.702981 0
M  V30 39 H 1.927321 3.401791 -0.613882 0
M  V30 40 H 4.427937 3.468095 -0.485616 0
M  V30 41 H 5.562330 2.262251 1.316547 0
M  V30 42 H 4.304148 1.007633 2.980845 0
M  V30 43 H 1.810654 0.933993 2.860960 0
M  V30 44 H -0.092131 4.664311 2.130535 0
M  V30 45 H 0.110917 4.873072 0.309778 0
M  V30 46 H -4.044066 6.401669 0.977364 0
M  V30 47 H -6.464544 2.991320 0.530022 0
M  V30 48 H -4.424591 1.514558 0.587767 0
M  V30 49 H 0.996268 -0.374924 -1.180024 0
M  V30 50 H 1.597921 -2.821343 -1.242778 0
M  V30 51 H 2.434232 -6.157683 -0.120403 0
M  V30 52 H 2.141563 -4.784063 -1.230077 0
M  V30 53 H -0.244798 -7.704012 -1.435933 0
M  V30 54 H 0.507214 -5.295267 -2.783108 0
M  V30 55 H -2.242692 -6.514932 -1.870183 0
M  V30 56 H -1.794642 -5.892608 -3.541631 0
M  V30 57 H -1.309249 -3.598754 -2.711791 0
M  V30 58 H -1.952676 -4.171594 -1.093488 0
M  V30 59 H -1.109444 -4.995619 0.602094 0
M  V30 60 H -0.213549 -6.315227 1.409756 0
M  V30 END ATOM
M  V30 BEGIN BOND
M  V30 1 1 1 2
M  V30 2 1 2 3
M  V30 3 2 3 4
M  V30 4 1 4 5
M  V30 5 2 5 6
M  V30 6 1 6 7
M  V30 7 1 7 8
M  V30 8 2 8 9
M  V30 9 1 9 10
M  V30 10 1 10 11
M  V30 11 1 11 12
M  V30 12 2 12 13
M  V30 13 1 13 14
M  V30 14 2 14 15
M  V30 15 1 15 16
M  V30 16 2 16 17
M  V30 17 1 10 18
M  V30 18 1 18 19
M  V30 19 1 19 20
M  V30 20 2 20 21
M  V30 21 1 21 22
M  V30 22 2 22 23
M  V30 23 1 23 24
M  V30 24 2 24 25
M  V30 25 1 6 26
M  V30 26 2 26 27
M  V30 27 1 2 28
M  V30 28 1 28 29
M  V30 29 1 29 30
M  V30 30 1 29 31
M  V30 31 1 31 32
M  V30 32 1 32 33
M  V30 33 1 29 34
M  V30 34 1 34 2
M  V30 35 1 27 3
M  V30 36 1 33 31
M  V30 37 2 11 7
M  V30 38 1 17 12
M  V30 39 1 25 20
M  V30 40 1 25 9
M  V30 41 1 1 35
M  V30 42 1 1 36
M  V30 43 1 4 37
M  V30 44 1 5 38
M  V30 45 1 13 39
M  V30 46 1 14 40
M  V30 47 1 15 41
M  V30 48 1 16 42
M  V30 49 1 17 43
M  V30 50 1 18 44
M  V30 51 1 18 45
M  V30 52 1 21 46
M  V30 53 1 23 47
M  V30 54 1 24 48
M  V30 55 1 26 49
M  V30 56 1 27 50
M  V30 57 1 28 51
M  V30 58 1 28 52
M  V30 59 1 30 53
M  V30 60 1 31 54
M  V30 61 1 32 55
M  V30 62 1 32 56
M  V30 63 1 33 57
M  V30 64 1 33 58
M  V30 65 1 34 59
M  V30 66 1 34 60
M  V30 END BOND
M  V30 END CTAB
M  END
>  <Dataset>  (127) 
ChEMBL_Kinases

>  <Ligand_Instance>  (127) 
nan

>  <PDB_ID>  (127) 
nan

>  <Standardized_SMILES>  (127) 
NC1(c2ccc(-c3nc4n(c3-c3ccccc3)COc3cnccc3-4)cc2)CC(O)(C2CC2)C1

>  <Name>  (127) 
nan

>  <Pocket>  (127) 
nan

>  <ATP_Site>  (127) 
nan

>  <Peripheral>  (127) 
nan

>  <Num_H_Atoms_ProtBoundConf>  (127) 
nan

>  <Num_Resolved_Atoms>  (127) 
nan

>  <Num_Not_Resolved_Atoms>  (127) 
nan

$$$$
CHEMBL4583708
     RDKit          3D

  0  0  0  0  0  0  0  0  0  0999 V3000
M  V30 BEGIN CTAB
M  V30 COUNTS 38 40 0 0 0
M  V30 BEGIN ATOM
M  V30 1 N 0.663276 -2.440692 4.987289 0
M  V30 2 C 0.060536 -1.693101 3.947291 0
M  V30 3 O -1.003146 -1.290391 4.441505 0
M  V30 4 C 0.667407 -1.516869 2.633647 0
M  V30 5 C 1.903960 -2.139837 2.443758 0
M  V30 6 C 2.510696 -1.996865 1.215015 0
M  V30 7 C 1.894841 -1.258730 0.226856 0
M  V30 8 C 2.493603 -1.069260 -1.109098 0
M  V30 9 C 3.291735 -1.997587 -1.745501 0
M  V30 10 C 3.821301 -1.763181 -2.992977 0
M  V30 11 C 3.543784 -0.566914 -3.619652 0
M  V30 12 N 2.757560 0.349591 -2.995009 0
M  V30 13 C 2.226272 0.136110 -1.764430 0
M  V30 14 C 0.675046 -0.667254 0.472656 0
M  V30 15 C 0.002670 -0.757892 1.662488 0
M  V30 16 O -1.208025 -0.224570 2.043982 0
M  V30 17 C -1.959436 0.536714 1.178707 0
M  V30 18 C -2.276348 1.933248 1.743491 0
M  V30 19 C -3.240126 2.357954 0.633798 0
M  V30 20 N -3.957589 1.157048 0.253784 0
M  V30 21 C -3.388884 0.052115 1.015469 0
M  V30 22 H 1.417211 -2.471043 5.700039 0
M  V30 23 H 0.399564 -3.376840 5.353144 0
M  V30 24 H 2.354587 -2.704300 3.229085 0
M  V30 25 H 3.463161 -2.463082 1.031841 0
M  V30 26 H 3.475142 -2.911425 -1.211876 0
M  V30 27 H 4.437555 -2.486082 -3.477541 0
M  V30 28 H 3.946561 -0.358080 -4.599826 0
M  V30 29 H 1.618683 0.935206 -1.370569 0
M  V30 30 H 0.201331 -0.094315 -0.297318 0
M  V30 31 H -1.573927 0.691314 0.164590 0
M  V30 32 H -2.859391 1.875288 2.666456 0
M  V30 33 H -1.379457 2.560072 1.767695 0
M  V30 34 H -2.576564 2.623653 -0.232544 0
M  V30 35 H -3.872132 3.194411 0.927313 0
M  V30 36 H -3.800802 0.907955 -0.761778 0
M  V30 37 H -3.864036 0.020423 2.030768 0
M  V30 38 H -3.391896 -0.903926 0.489633 0
M  V30 END ATOM
M  V30 BEGIN BOND
M  V30 1 1 1 2
M  V30 2 2 2 3
M  V30 3 1 2 4
M  V30 4 2 4 5
M  V30 5 1 5 6
M  V30 6 2 6 7
M  V30 7 1 7 8
M  V30 8 2 8 9
M  V30 9 1 9 10
M  V30 10 2 10 11
M  V30 11 1 11 12
M  V30 12 2 12 13
M  V30 13 1 7 14
M  V30 14 2 14 15
M  V30 15 1 15 16
M  V30 16 1 16 17
M  V30 17 1 17 18
M  V30 18 1 18 19
M  V30 19 1 19 20
M  V30 20 1 20 21
M  V30 21 1 15 4
M  V30 22 1 21 17
M  V30 23 1 13 8
M  V30 24 1 1 22
M  V30 25 1 1 23
M  V30 26 1 5 24
M  V30 27 1 6 25
M  V30 28 1 9 26
M  V30 29 1 10 27
M  V30 30 1 11 28
M  V30 31 1 13 29
M  V30 32 1 14 30
M  V30 33 1 17 31
M  V30 34 1 18 32
M  V30 35 1 18 33
M  V30 36 1 19 34
M  V30 37 1 19 35
M  V30 38 1 20 36
M  V30 39 1 21 37
M  V30 40 1 21 38
M  V30 END BOND
M  V30 END CTAB
M  END
>  <Dataset>  (128) 
ChEMBL_Kinases

>  <Ligand_Instance>  (128) 
nan

>  <PDB_ID>  (128) 
nan

>  <Standardized_SMILES>  (128) 
NC(=O)c1ccc(-c2cccnc2)cc1OC1CCNC1

>  <Name>  (128) 
nan

>  <Pocket>  (128) 
nan

>  <ATP_Site>  (128) 
nan

>  <Peripheral>  (128) 
nan

>  <Num_H_Atoms_ProtBoundConf>  (128) 
nan

>  <Num_Resolved_Atoms>  (128) 
nan

>  <Num_Not_Resolved_Atoms>  (128) 
nan

$$$$
CHEMBL3087823
     RDKit          3D

  0  0  0  0  0  0  0  0  0  0999 V3000
M  V30 BEGIN CTAB
M  V30 COUNTS 52 56 0 0 0
M  V30 BEGIN ATOM
M  V30 1 C -0.633811 -6.565474 3.027850 0
M  V30 2 C -0.527109 -5.188863 3.571007 0
M  V30 3 N -1.119232 -4.748573 4.697642 0
M  V30 4 N -0.829723 -3.475683 4.907618 0
M  V30 5 C -1.228791 -2.580849 5.974281 0
M  V30 6 C -0.036815 -3.111009 3.886935 0
M  V30 7 C 0.185115 -4.149981 3.018099 0
M  V30 8 C 0.993427 -4.107737 1.810556 0
M  V30 9 N 1.646042 -3.029970 1.359845 0
M  V30 10 C 2.311774 -3.245862 0.236854 0
M  V30 11 C 3.113378 -2.432048 -0.572428 0
M  V30 12 O 3.322653 -1.108411 -0.224099 0
M  V30 13 C 2.476997 -0.088598 -0.631993 0
M  V30 14 C 2.584826 0.683608 -1.769194 0
M  V30 15 C 1.680285 1.677540 -2.078720 0
M  V30 16 C 0.606927 1.955263 -1.257264 0
M  V30 17 C -0.297268 3.025298 -1.666618 0
M  V30 18 O -0.042962 3.639519 -2.732424 0
M  V30 19 N -1.429930 3.378580 -0.905479 0
M  V30 20 C -2.274054 4.453621 -1.385076 0
M  V30 21 C -2.673407 5.456448 -0.326271 0
M  V30 22 C -4.016093 4.737370 -0.203425 0
M  V30 23 C -3.744183 4.105002 -1.548673 0
M  V30 24 C 0.450296 1.212860 -0.104995 0
M  V30 25 C 1.382817 0.220758 0.171250 0
M  V30 26 C 3.622617 -3.083170 -1.674364 0
M  V30 27 Cl 4.643164 -2.196305 -2.761366 0
M  V30 28 C 3.387314 -4.399048 -1.979241 0
M  V30 29 N 2.603593 -5.138687 -1.159985 0
M  V30 30 C 2.071113 -4.562224 -0.060197 0
M  V30 31 N 1.275008 -5.045514 0.908774 0
M  V30 32 H -1.288433 -7.183137 3.704759 0
M  V30 33 H 0.359448 -7.032465 3.004117 0
M  V30 34 H -1.102381 -6.539386 2.033750 0
M  V30 35 H -1.801628 -1.729103 5.550692 0
M  V30 36 H -0.286972 -2.128298 6.394614 0
M  V30 37 H -1.738283 -3.089726 6.792036 0
M  V30 38 H 0.394600 -2.108629 3.742197 0
M  V30 39 H 3.415075 0.484613 -2.420333 0
M  V30 40 H 1.865052 2.231048 -3.012740 0
M  V30 41 H -1.675736 2.892668 -0.015475 0
M  V30 42 H -1.908474 4.878880 -2.318944 0
M  V30 43 H -2.071122 5.491625 0.587178 0
M  V30 44 H -2.852363 6.486992 -0.690088 0
M  V30 45 H -4.903816 5.381272 -0.223324 0
M  V30 46 H -3.985348 3.956512 0.594872 0
M  V30 47 H -4.238302 4.581764 -2.403345 0
M  V30 48 H -3.863224 3.012373 -1.561562 0
M  V30 49 H -0.384208 1.423627 0.540896 0
M  V30 50 H 1.173041 -0.300352 1.094414 0
M  V30 51 H 3.809685 -4.862836 -2.855076 0
M  V30 52 H 0.943762 -6.031843 0.916153 0
M  V30 END ATOM
M  V30 BEGIN BOND
M  V30 1 1 1 2
M  V30 2 2 2 3
M  V30 3 1 3 4
M  V30 4 1 4 5
M  V30 5 1 4 6
M  V30 6 2 6 7
M  V30 7 1 7 8
M  V30 8 2 8 9
M  V30 9 1 9 10
M  V30 10 2 10 11
M  V30 11 1 11 12
M  V30 12 1 12 13
M  V30 13 2 13 14
M  V30 14 1 14 15
M  V30 15 2 15 16
M  V30 16 1 16 17
M  V30 17 2 17 18
M  V30 18 1 17 19
M  V30 19 1 19 20
M  V30 20 1 20 21
M  V30 21 1 21 22
M  V30 22 1 22 23
M  V30 23 1 16 24
M  V30 24 2 24 25
M  V30 25 1 11 26
M  V30 26 1 26 27
M  V30 27 2 26 28
M  V30 28 1 28 29
M  V30 29 2 29 30
M  V30 30 1 30 31
M  V30 31 1 7 2
M  V30 32 1 31 8
M  V30 33 1 30 10
M  V30 34 1 25 13
M  V30 35 1 23 20
M  V30 36 1 1 32
M  V30 37 1 1 33
M  V30 38 1 1 34
M  V30 39 1 5 35
M  V30 40 1 5 36
M  V30 41 1 5 37
M  V30 42 1 6 38
M  V30 43 1 14 39
M  V30 44 1 15 40
M  V30 45 1 19 41
M  V30 46 1 20 42
M  V30 47 1 21 43
M  V30 48 1 21 44
M  V30 49 1 22 45
M  V30 50 1 22 46
M  V30 51 1 23 47
M  V30 52 1 23 48
M  V30 53 1 24 49
M  V30 54 1 25 50
M  V30 55 1 28 51
M  V30 56 1 31 52
M  V30 END BOND
M  V30 END CTAB
M  END
>  <Dataset>  (129) 
ChEMBL_Kinases

>  <Ligand_Instance>  (129) 
nan

>  <PDB_ID>  (129) 
nan

>  <Standardized_SMILES>  (129) 
Cc1nn(C)cc1-c1nc2c(Oc3ccc(C(=O)NC4CCC4)cc3)c(Cl)cnc2[nH]1

>  <Name>  (129) 
nan

>  <Pocket>  (129) 
nan

>  <ATP_Site>  (129) 
nan

>  <Peripheral>  (129) 
nan

>  <Num_H_Atoms_ProtBoundConf>  (129) 
nan

>  <Num_Resolved_Atoms>  (129) 
nan

>  <Num_Not_Resolved_Atoms>  (129) 
nan

$$$$
CHEMBL4287422
     RDKit          3D

  0  0  0  0  0  0  0  0  0  0999 V3000
M  V30 BEGIN CTAB
M  V30 COUNTS 56 60 0 0 0
M  V30 BEGIN ATOM
M  V30 1 C 4.470470 -1.479220 -4.054536 0
M  V30 2 C 4.378488 -1.830280 -2.629301 0
M  V30 3 C 3.571590 -1.258477 -1.656301 0
M  V30 4 C 3.880339 -1.958835 -0.507833 0
M  V30 5 N 3.313637 -1.748663 0.780428 0
M  V30 6 C 2.329683 -0.736897 0.974319 0
M  V30 7 N 2.689506 0.535155 1.313662 0
M  V30 8 C 1.822646 1.518928 1.507632 0
M  V30 9 C 2.280057 2.859344 1.869927 0
M  V30 10 C 1.386122 3.888404 2.073427 0
M  V30 11 C 1.819844 5.152732 2.415279 0
M  V30 12 C 3.174097 5.384426 2.554330 0
M  V30 13 C 4.056616 4.327350 2.343143 0
M  V30 14 C 3.639905 3.056864 2.000774 0
M  V30 15 N 0.493930 1.265863 1.364957 0
M  V30 16 C 0.043563 0.041434 1.032099 0
M  V30 17 C -1.296367 -0.250928 0.879012 0
M  V30 18 C -1.788898 -1.492716 0.539387 0
M  V30 19 N -3.161972 -1.791515 0.383395 0
M  V30 20 C -4.250143 -0.878580 0.561481 0
M  V30 21 C -5.291778 -1.581483 1.435362 0
M  V30 22 C -5.920947 -2.688368 0.623264 0
M  V30 23 C -6.352098 -3.795898 1.521985 0
M  V30 24 O -7.477881 -4.323489 1.756669 0
M  V30 25 O -5.358463 -4.414518 2.283416 0
M  V30 26 C -4.979848 -3.225838 -0.426779 0
M  V30 27 C -3.535871 -3.141664 0.006660 0
M  V30 28 C -0.824250 -2.460550 0.355225 0
M  V30 29 C 0.525931 -2.215277 0.497156 0
M  V30 30 C 0.974550 -0.957266 0.838233 0
M  V30 31 N 4.809837 -2.876860 -0.809696 0
M  V30 32 N 5.126603 -2.811455 -2.107085 0
M  V30 33 H 5.176421 -0.638515 -4.219757 0
M  V30 34 H 3.473438 -1.082828 -4.395326 0
M  V30 35 H 4.691828 -2.337701 -4.715723 0
M  V30 36 H 2.864604 -0.444391 -1.792476 0
M  V30 37 H 3.603811 -2.321205 1.589131 0
M  V30 38 H 0.334065 3.650794 1.950996 0
M  V30 39 H 1.037346 5.893437 2.553430 0
M  V30 40 H 3.494930 6.382031 2.822803 0
M  V30 41 H 5.129079 4.532720 2.458735 0
M  V30 42 H 4.390298 2.274366 1.850274 0
M  V30 43 H -1.956648 0.563352 1.042592 0
M  V30 44 H -3.912537 0.043898 1.023708 0
M  V30 45 H -4.782440 -0.709287 -0.415932 0
M  V30 46 H -6.054113 -0.869182 1.805677 0
M  V30 47 H -4.729837 -2.008329 2.292579 0
M  V30 48 H -6.810768 -2.266669 0.112574 0
M  V30 49 H -5.340493 -5.400851 2.506628 0
M  V30 50 H -5.123986 -2.699696 -1.370568 0
M  V30 51 H -5.239145 -4.295694 -0.563143 0
M  V30 52 H -2.913559 -3.363406 -0.903519 0
M  V30 53 H -3.264395 -3.874830 0.778381 0
M  V30 54 H -1.093237 -3.469820 0.087029 0
M  V30 55 H 1.259886 -2.992327 0.346883 0
M  V30 56 H 5.840058 -3.483452 -2.441826 0
M  V30 END ATOM
M  V30 BEGIN BOND
M  V30 1 1 1 2
M  V30 2 2 2 3
M  V30 3 1 3 4
M  V30 4 1 4 5
M  V30 5 1 5 6
M  V30 6 2 6 7
M  V30 7 1 7 8
M  V30 8 1 8 9
M  V30 9 2 9 10
M  V30 10 1 10 11
M  V30 11 2 11 12
M  V30 12 1 12 13
M  V30 13 2 13 14
M  V30 14 2 8 15
M  V30 15 1 15 16
M  V30 16 2 16 17
M  V30 17 1 17 18
M  V30 18 1 18 19
M  V30 19 1 19 20
M  V30 20 1 20 21
M  V30 21 1 21 22
M  V30 22 1 22 23
M  V30 23 2 23 24
M  V30 24 1 23 25
M  V30 25 1 22 26
M  V30 26 1 26 27
M  V30 27 2 18 28
M  V30 28 1 28 29
M  V30 29 2 29 30
M  V30 30 2 4 31
M  V30 31 1 31 32
M  V30 32 1 32 2
M  V30 33 1 30 6
M  V30 34 1 14 9
M  V30 35 1 30 16
M  V30 36 1 27 19
M  V30 37 1 1 33
M  V30 38 1 1 34
M  V30 39 1 1 35
M  V30 40 1 3 36
M  V30 41 1 5 37
M  V30 42 1 10 38
M  V30 43 1 11 39
M  V30 44 1 12 40
M  V30 45 1 13 41
M  V30 46 1 14 42
M  V30 47 1 17 43
M  V30 48 1 20 44
M  V30 49 1 20 45
M  V30 50 1 21 46
M  V30 51 1 21 47
M  V30 52 1 22 48
M  V30 53 1 25 49
M  V30 54 1 26 50
M  V30 55 1 26 51
M  V30 56 1 27 52
M  V30 57 1 27 53
M  V30 58 1 28 54
M  V30 59 1 29 55
M  V30 60 1 32 56
M  V30 END BOND
M  V30 END CTAB
M  END
>  <Dataset>  (130) 
ChEMBL_Kinases

>  <Ligand_Instance>  (130) 
nan

>  <PDB_ID>  (130) 
nan

>  <Standardized_SMILES>  (130) 
Cc1cc(Nc2nc(-c3ccccc3)nc3cc(N4CCC(C(=O)O)CC4)ccc23)n[nH]1

>  <Name>  (130) 
nan

>  <Pocket>  (130) 
nan

>  <ATP_Site>  (130) 
nan

>  <Peripheral>  (130) 
nan

>  <Num_H_Atoms_ProtBoundConf>  (130) 
nan

>  <Num_Resolved_Atoms>  (130) 
nan

>  <Num_Not_Resolved_Atoms>  (130) 
nan

$$$$
CHEMBL3685217
     RDKit          3D

  0  0  0  0  0  0  0  0  0  0999 V3000
M  V30 BEGIN CTAB
M  V30 COUNTS 52 56 0 0 0
M  V30 BEGIN ATOM
M  V30 1 N 4.973909 -4.415635 -0.474773 0
M  V30 2 C 4.616006 -4.319506 0.888654 0
M  V30 3 O 5.058443 -5.475268 0.919553 0
M  V30 4 C 4.021745 -3.121149 1.432821 0
M  V30 5 C 3.702746 -3.098640 2.768058 0
M  V30 6 C 3.132121 -1.932654 3.247787 0
M  V30 7 C 2.928901 -0.897816 2.369737 0
M  V30 8 C 3.244384 -0.908583 1.029016 0
M  V30 9 C 3.026089 0.163386 0.155644 0
M  V30 10 N 2.438946 1.253185 0.795107 0
M  V30 11 C 1.838333 2.368031 1.449166 0
M  V30 12 C 0.500281 2.729963 0.882756 0
M  V30 13 C 0.407469 3.634758 -0.162730 0
M  V30 14 C -0.781746 3.994993 -0.728823 0
M  V30 15 C -1.946712 3.439156 -0.245029 0
M  V30 16 C -1.911925 2.538558 0.788738 0
M  V30 17 N -2.971906 1.841420 1.434474 0
M  V30 18 C -3.142032 0.585698 0.751696 0
M  V30 19 O -2.306176 0.482039 -0.206082 0
M  V30 20 C -4.137428 -0.431872 1.109113 0
M  V30 21 N -5.078477 -0.453719 2.050799 0
M  V30 22 N -5.748960 -1.617488 1.991327 0
M  V30 23 C -5.212092 -2.356704 0.976717 0
M  V30 24 C -5.527029 -3.615315 0.498689 0
M  V30 25 C -4.830813 -4.189547 -0.570444 0
M  V30 26 C -3.797717 -3.452289 -1.149944 0
M  V30 27 Cl -2.915281 -4.153463 -2.487395 0
M  V30 28 C -3.518109 -2.216919 -0.650821 0
M  V30 29 C -4.194234 -1.617095 0.413849 0
M  V30 30 C -0.685217 2.181896 1.355540 0
M  V30 31 N 3.399878 -0.032915 -1.113809 0
M  V30 32 C 3.948651 -1.159798 -1.564824 0
M  V30 33 N 4.134389 -2.148097 -0.694729 0
M  V30 34 C 3.808527 -2.072716 0.574075 0
M  V30 35 H 5.049305 -4.189031 -1.489525 0
M  V30 36 H 5.263129 -4.532978 -1.458418 0
M  V30 37 H 3.929557 -3.991726 3.309107 0
M  V30 38 H 2.877384 -1.903889 4.294826 0
M  V30 39 H 2.484649 -0.025992 2.803328 0
M  V30 40 H 2.411624 1.895449 -0.067921 0
M  V30 41 H 1.596457 2.132259 2.531872 0
M  V30 42 H 2.472865 3.282084 1.550641 0
M  V30 43 H 1.283697 4.085973 -0.564318 0
M  V30 44 H -0.865050 4.692596 -1.537219 0
M  V30 45 H -2.951144 3.632279 -0.596491 0
M  V30 46 H -3.621999 2.027916 2.252955 0
M  V30 47 H -6.532634 -1.855440 2.635630 0
M  V30 48 H -6.315513 -4.172594 0.943417 0
M  V30 49 H -5.131734 -5.178895 -0.892910 0
M  V30 50 H -2.724370 -1.673885 -1.110979 0
M  V30 51 H -0.523102 1.487477 2.170311 0
M  V30 52 H 4.186259 -1.134043 -2.624526 0
M  V30 END ATOM
M  V30 BEGIN BOND
M  V30 1 1 1 2
M  V30 2 2 2 3
M  V30 3 1 2 4
M  V30 4 2 4 5
M  V30 5 1 5 6
M  V30 6 2 6 7
M  V30 7 1 7 8
M  V30 8 2 8 9
M  V30 9 1 9 10
M  V30 10 1 10 11
M  V30 11 1 11 12
M  V30 12 2 12 13
M  V30 13 1 13 14
M  V30 14 2 14 15
M  V30 15 1 15 16
M  V30 16 1 16 17
M  V30 17 1 17 18
M  V30 18 2 18 19
M  V30 19 1 18 20
M  V30 20 2 20 21
M  V30 21 1 21 22
M  V30 22 1 22 23
M  V30 23 2 23 24
M  V30 24 1 24 25
M  V30 25 2 25 26
M  V30 26 1 26 27
M  V30 27 1 26 28
M  V30 28 2 28 29
M  V30 29 2 16 30
M  V30 30 1 9 31
M  V30 31 2 31 32
M  V30 32 1 32 33
M  V30 33 2 33 34
M  V30 34 1 34 4
M  V30 35 1 34 8
M  V30 36 1 30 12
M  V30 37 1 29 20
M  V30 38 1 29 23
M  V30 39 1 1 35
M  V30 40 1 1 36
M  V30 41 1 5 37
M  V30 42 1 6 38
M  V30 43 1 7 39
M  V30 44 1 10 40
M  V30 45 1 11 41
M  V30 46 1 11 42
M  V30 47 1 13 43
M  V30 48 1 14 44
M  V30 49 1 15 45
M  V30 50 1 17 46
M  V30 51 1 22 47
M  V30 52 1 24 48
M  V30 53 1 25 49
M  V30 54 1 28 50
M  V30 55 1 30 51
M  V30 56 1 32 52
M  V30 END BOND
M  V30 END CTAB
M  END
>  <Dataset>  (131) 
ChEMBL_Kinases

>  <Ligand_Instance>  (131) 
nan

>  <PDB_ID>  (131) 
nan

>  <Standardized_SMILES>  (131) 
NC(=O)c1cccc2c(NCc3cccc(NC(=O)c4n[nH]c5ccc(Cl)cc45)c3)ncnc12

>  <Name>  (131) 
nan

>  <Pocket>  (131) 
nan

>  <ATP_Site>  (131) 
nan

>  <Peripheral>  (131) 
nan

>  <Num_H_Atoms_ProtBoundConf>  (131) 
nan

>  <Num_Resolved_Atoms>  (131) 
nan

>  <Num_Not_Resolved_Atoms>  (131) 
nan

$$$$
CHEMBL3091536
     RDKit          3D

  0  0  0  0  0  0  0  0  0  0999 V3000
M  V30 BEGIN CTAB
M  V30 COUNTS 45 48 0 0 0
M  V30 BEGIN ATOM
M  V30 1 C 1.184718 -3.489362 2.324825 0
M  V30 2 N -0.027663 -3.092178 1.646267 0
M  V30 3 C -0.071664 -1.896317 1.044097 0
M  V30 4 N 0.944084 -0.909305 0.956785 0
M  V30 5 C 0.590520 0.335052 0.261190 0
M  V30 6 C 1.515139 0.474253 -0.907248 0
M  V30 7 O 2.827470 0.230841 -0.601257 0
M  V30 8 C 3.136093 0.164420 0.731331 0 CFG=1
M  V30 9 C 3.122176 1.510425 1.341604 0
M  V30 10 C 3.735829 2.404168 0.452531 0
M  V30 11 C 3.878894 3.757298 0.769088 0
M  V30 12 C 3.426707 4.267333 1.959306 0
M  V30 13 F 3.528604 5.560948 2.335917 0
M  V30 14 C 2.825855 3.378303 2.823456 0
M  V30 15 C 2.673432 2.041608 2.534134 0
M  V30 16 C 2.300419 -0.865122 1.418701 0
M  V30 17 N -1.242436 -1.638582 0.456964 0
M  V30 18 C -2.319195 -2.415807 0.412953 0
M  V30 19 C -3.525101 -1.972640 -0.279211 0
M  V30 20 C -4.649780 -2.768685 -0.328773 0
M  V30 21 C -5.700269 -2.204506 -1.020166 0
M  V30 22 N -5.724033 -1.010479 -1.619130 0
M  V30 23 C -4.601887 -0.272941 -1.541742 0
M  V30 24 N -3.508977 -0.748692 -0.876892 0
M  V30 25 C -2.216177 -3.624440 1.044509 0
M  V30 26 C -1.051345 -3.959289 1.666726 0
M  V30 27 O -0.928769 -5.064624 2.254791 0
M  V30 28 H 1.935001 -3.954949 1.661122 0
M  V30 29 H 1.559832 -2.721568 3.015608 0
M  V30 30 H 0.924908 -4.346238 3.036052 0
M  V30 31 H 0.504733 1.197623 0.917291 0
M  V30 32 H -0.446200 0.233510 -0.200284 0
M  V30 33 H 1.321063 1.433686 -1.404540 0
M  V30 34 H 1.230059 -0.304452 -1.672822 0
M  V30 35 H 4.199290 -0.223735 0.773269 0
M  V30 36 H 4.162594 2.201798 -0.543552 0
M  V30 37 H 4.343048 4.491861 0.119566 0
M  V30 38 H 2.431859 3.660147 3.786035 0
M  V30 39 H 2.222534 1.283090 3.141144 0
M  V30 40 H 2.794636 -1.844797 1.216599 0
M  V30 41 H 2.296006 -0.590584 2.496118 0
M  V30 42 H -4.690597 -3.723512 0.127696 0
M  V30 43 H -6.650653 -2.752563 -1.121509 0
M  V30 44 H -4.401467 0.723349 -1.954671 0
M  V30 45 H -3.030457 -4.327350 1.066268 0
M  V30 END ATOM
M  V30 BEGIN BOND
M  V30 1 1 1 2
M  V30 2 1 2 3
M  V30 3 1 3 4
M  V30 4 1 4 5
M  V30 5 1 5 6
M  V30 6 1 6 7
M  V30 7 1 7 8
M  V30 8 1 8 9
M  V30 9 2 9 10
M  V30 10 1 10 11
M  V30 11 2 11 12
M  V30 12 1 12 13
M  V30 13 1 12 14
M  V30 14 2 14 15
M  V30 15 1 8 16
M  V30 16 2 3 17
M  V30 17 1 17 18
M  V30 18 1 18 19
M  V30 19 2 19 20
M  V30 20 1 20 21
M  V30 21 2 21 22
M  V30 22 1 22 23
M  V30 23 2 23 24
M  V30 24 2 18 25
M  V30 25 1 25 26
M  V30 26 2 26 27
M  V30 27 1 26 2
M  V30 28 1 16 4
M  V30 29 1 24 19
M  V30 30 1 15 9
M  V30 31 1 1 28
M  V30 32 1 1 29
M  V30 33 1 1 30
M  V30 34 1 5 31
M  V30 35 1 5 32
M  V30 36 1 6 33
M  V30 37 1 6 34
M  V30 38 1 8 35 CFG=3
M  V30 39 1 10 36
M  V30 40 1 11 37
M  V30 41 1 14 38
M  V30 42 1 15 39
M  V30 43 1 16 40
M  V30 44 1 16 41
M  V30 45 1 20 42
M  V30 46 1 21 43
M  V30 47 1 23 44
M  V30 48 1 25 45
M  V30 END BOND
M  V30 END CTAB
M  END
>  <Dataset>  (132) 
ChEMBL_Kinases

>  <Ligand_Instance>  (132) 
nan

>  <PDB_ID>  (132) 
nan

>  <Standardized_SMILES>  (132) 
Cn1c(N2CCO[C@@H](c3ccc(F)cc3)C2)nc(-c2ccncn2)cc1=O

>  <Name>  (132) 
nan

>  <Pocket>  (132) 
nan

>  <ATP_Site>  (132) 
nan

>  <Peripheral>  (132) 
nan

>  <Num_H_Atoms_ProtBoundConf>  (132) 
nan

>  <Num_Resolved_Atoms>  (132) 
nan

>  <Num_Not_Resolved_Atoms>  (132) 
nan

$$$$
CHEMBL4287083
     RDKit          3D

  0  0  0  0  0  0  0  0  0  0999 V3000
M  V30 BEGIN CTAB
M  V30 COUNTS 45 48 0 0 0
M  V30 BEGIN ATOM
M  V30 1 C -2.044400 -6.503005 0.416281 0
M  V30 2 C -2.092207 -5.167713 -0.293104 0
M  V30 3 C -0.950657 -5.145286 -1.292253 0
M  V30 4 N -0.900020 -3.910790 -2.029360 0
M  V30 5 C -0.205352 -2.827518 -1.643480 0
M  V30 6 C -0.363732 -1.812680 -2.566288 0
M  V30 7 C 0.225563 -0.452452 -2.527137 0
M  V30 8 C 0.534578 0.207415 -3.701986 0
M  V30 9 S 1.220181 1.823511 -3.065664 0
M  V30 10 C 1.007545 1.409993 -1.388231 0
M  V30 11 C 1.400689 2.371848 -0.329459 0
M  V30 12 C 1.932883 3.595713 -0.668183 0
M  V30 13 N 2.261565 4.406799 0.350869 0
M  V30 14 C 2.090129 4.065436 1.634598 0
M  V30 15 C 1.567954 2.867889 2.040806 0
M  V30 16 N 1.423934 2.595833 3.420092 0
M  V30 17 C 0.919883 1.444265 4.062599 0
M  V30 18 O 0.523240 0.480140 3.367857 0
M  V30 19 C 0.829782 1.304030 5.534915 0
M  V30 20 C 0.534050 2.489427 6.382201 0
M  V30 21 C 1.915434 1.879372 6.407948 0
M  V30 22 C 1.233220 2.041505 0.996043 0
M  V30 23 C 0.484340 0.201258 -1.348458 0
M  V30 24 C -1.192400 -2.327033 -3.541429 0
M  V30 25 N -1.485482 -3.576281 -3.180080 0
M  V30 26 H -2.669052 -7.209622 -0.155144 0
M  V30 27 H -0.994485 -6.874355 0.396437 0
M  V30 28 H -2.432590 -6.439690 1.452762 0
M  V30 29 H -3.074591 -5.090488 -0.800294 0
M  V30 30 H -2.025054 -4.335168 0.431171 0
M  V30 31 H -1.159431 -5.983745 -2.002776 0
M  V30 32 H 0.023901 -5.291131 -0.800997 0
M  V30 33 H 0.412456 -2.685747 -0.756724 0
M  V30 34 H 0.390552 -0.174088 -4.720524 0
M  V30 35 H 2.083182 3.899456 -1.693997 0
M  V30 36 H 2.413930 4.850083 2.315131 0
M  V30 37 H 1.721529 3.326450 4.101467 0
M  V30 38 H 0.418082 0.354384 5.932171 0
M  V30 39 H 0.479744 3.520710 5.957335 0
M  V30 40 H -0.127952 2.382201 7.257843 0
M  V30 41 H 2.170925 1.384074 7.365632 0
M  V30 42 H 2.749674 2.456048 5.992629 0
M  V30 43 H 0.812698 1.071411 1.199496 0
M  V30 44 H 0.287630 -0.208131 -0.367114 0
M  V30 45 H -1.523031 -1.787333 -4.423455 0
M  V30 END ATOM
M  V30 BEGIN BOND
M  V30 1 1 1 2
M  V30 2 1 2 3
M  V30 3 1 3 4
M  V30 4 1 4 5
M  V30 5 2 5 6
M  V30 6 1 6 7
M  V30 7 2 7 8
M  V30 8 1 8 9
M  V30 9 1 9 10
M  V30 10 1 10 11
M  V30 11 2 11 12
M  V30 12 1 12 13
M  V30 13 2 13 14
M  V30 14 1 14 15
M  V30 15 1 15 16
M  V30 16 1 16 17
M  V30 17 2 17 18
M  V30 18 1 17 19
M  V30 19 1 19 20
M  V30 20 1 20 21
M  V30 21 2 15 22
M  V30 22 2 10 23
M  V30 23 1 6 24
M  V30 24 2 24 25
M  V30 25 1 25 4
M  V30 26 1 23 7
M  V30 27 1 22 11
M  V30 28 1 21 19
M  V30 29 1 1 26
M  V30 30 1 1 27
M  V30 31 1 1 28
M  V30 32 1 2 29
M  V30 33 1 2 30
M  V30 34 1 3 31
M  V30 35 1 3 32
M  V30 36 1 5 33
M  V30 37 1 8 34
M  V30 38 1 12 35
M  V30 39 1 14 36
M  V30 40 1 16 37
M  V30 41 1 19 38
M  V30 42 1 20 39
M  V30 43 1 20 40
M  V30 44 1 21 41
M  V30 45 1 21 42
M  V30 46 1 22 43
M  V30 47 1 23 44
M  V30 48 1 24 45
M  V30 END BOND
M  V30 END CTAB
M  END
>  <Dataset>  (133) 
ChEMBL_Kinases

>  <Ligand_Instance>  (133) 
nan

>  <PDB_ID>  (133) 
nan

>  <Standardized_SMILES>  (133) 
CCCn1cc(-c2csc(-c3cncc(NC(=O)C4CC4)c3)c2)cn1

>  <Name>  (133) 
nan

>  <Pocket>  (133) 
nan

>  <ATP_Site>  (133) 
nan

>  <Peripheral>  (133) 
nan

>  <Num_H_Atoms_ProtBoundConf>  (133) 
nan

>  <Num_Resolved_Atoms>  (133) 
nan

>  <Num_Not_Resolved_Atoms>  (133) 
nan

$$$$
CHEMBL3701752
     RDKit          3D

  0  0  0  0  0  0  0  0  0  0999 V3000
M  V30 BEGIN CTAB
M  V30 COUNTS 60 66 0 0 0
M  V30 BEGIN ATOM
M  V30 1 N 1.713695 -4.757351 2.613409 0
M  V30 2 C 0.909097 -4.643941 1.434590 0
M  V30 3 C 0.742834 -3.258926 0.974360 0
M  V30 4 C 0.272885 -2.454891 2.013068 0
M  V30 5 C 0.028817 -1.088530 1.811293 0
M  V30 6 C 0.261970 -0.526349 0.547036 0
M  V30 7 C -0.025683 0.893780 0.382458 0
M  V30 8 N -1.350153 1.143117 0.208403 0
M  V30 9 C -1.513624 2.475025 0.055204 0
M  V30 10 N -0.299814 3.044204 0.134897 0
M  V30 11 C 0.634731 2.099983 0.334778 0
M  V30 12 C 2.083384 2.109815 0.487459 0
M  V30 13 C 2.472818 2.574281 1.729403 0
M  V30 14 C 3.828342 2.662250 2.047592 0
M  V30 15 C 4.794288 2.284339 1.117173 0
M  V30 16 C 4.384716 1.816436 -0.136716 0
M  V30 17 C 3.041041 1.734803 -0.435953 0
M  V30 18 C -0.023877 4.463552 0.034747 0
M  V30 19 O -1.173588 5.243106 -0.229634 0
M  V30 20 C -2.455554 4.725407 -0.322321 0
M  V30 21 N -3.564326 5.467664 -0.541619 0
M  V30 22 C -4.777211 4.892492 -0.618729 0
M  V30 23 C -4.978679 3.536909 -0.484007 0
M  V30 24 C -3.874069 2.715242 -0.256067 0
M  V30 25 C -2.655862 3.343388 -0.184615 0
M  V30 26 C 0.728589 -1.336933 -0.468909 0
M  V30 27 C 0.962141 -2.674741 -0.253841 0
M  V30 28 C 1.224136 -5.703662 0.432882 0
M  V30 29 C -0.258641 -6.003495 0.293618 0
M  V30 30 O -0.581203 -7.366380 0.412966 0
M  V30 31 C -0.952888 -5.412070 -0.886808 0
M  V30 32 C -2.461379 -5.718731 -0.949032 0
M  V30 33 C -1.914995 -4.305893 -0.841537 0
M  V30 34 C -0.440798 -5.304674 1.622985 0
M  V30 35 H 2.731412 -4.597537 2.426984 0
M  V30 36 H 1.569525 -5.686180 3.114895 0
M  V30 37 H 0.051274 -2.766861 3.046007 0
M  V30 38 H -0.339170 -0.438948 2.600095 0
M  V30 39 H 1.873466 2.908004 2.569616 0
M  V30 40 H 4.229811 3.018900 3.005476 0
M  V30 41 H 5.871411 2.321218 1.275758 0
M  V30 42 H 5.090292 1.517422 -0.883976 0
M  V30 43 H 2.617975 1.390847 -1.363201 0
M  V30 44 H 0.310553 4.753455 1.077538 0
M  V30 45 H 0.746484 4.694989 -0.709443 0
M  V30 46 H -5.536434 5.644352 -0.798718 0
M  V30 47 H -5.992505 3.176369 -0.563877 0
M  V30 48 H -4.015439 1.668573 -0.151386 0
M  V30 49 H 0.915421 -0.923211 -1.449747 0
M  V30 50 H 1.323752 -3.376480 -0.977093 0
M  V30 51 H 1.728496 -6.574978 0.901770 0
M  V30 52 H 1.688314 -5.450557 -0.510693 0
M  V30 53 H -1.415945 -7.555154 -0.088332 0
M  V30 54 H -0.404628 -5.583781 -1.841611 0
M  V30 55 H -2.932210 -6.163309 -0.044389 0
M  V30 56 H -2.908419 -5.992191 -1.911112 0
M  V30 57 H -1.977356 -3.644999 -1.751591 0
M  V30 58 H -2.233296 -3.779238 0.056651 0
M  V30 59 H -0.528700 -5.983521 2.492355 0
M  V30 60 H -1.288552 -4.591373 1.664363 0
M  V30 END ATOM
M  V30 BEGIN BOND
M  V30 1 1 1 2
M  V30 2 1 2 3
M  V30 3 2 3 4
M  V30 4 1 4 5
M  V30 5 2 5 6
M  V30 6 1 6 7
M  V30 7 1 7 8
M  V30 8 2 8 9
M  V30 9 1 9 10
M  V30 10 1 10 11
M  V30 11 1 11 12
M  V30 12 2 12 13
M  V30 13 1 13 14
M  V30 14 2 14 15
M  V30 15 1 15 16
M  V30 16 2 16 17
M  V30 17 1 10 18
M  V30 18 1 18 19
M  V30 19 1 19 20
M  V30 20 2 20 21
M  V30 21 1 21 22
M  V30 22 2 22 23
M  V30 23 1 23 24
M  V30 24 2 24 25
M  V30 25 1 6 26
M  V30 26 2 26 27
M  V30 27 1 2 28
M  V30 28 1 28 29
M  V30 29 1 29 30
M  V30 30 1 29 31
M  V30 31 1 31 32
M  V30 32 1 32 33
M  V30 33 1 29 34
M  V30 34 1 34 2
M  V30 35 1 27 3
M  V30 36 1 33 31
M  V30 37 2 11 7
M  V30 38 1 17 12
M  V30 39 1 25 20
M  V30 40 1 25 9
M  V30 41 1 1 35
M  V30 42 1 1 36
M  V30 43 1 4 37
M  V30 44 1 5 38
M  V30 45 1 13 39
M  V30 46 1 14 40
M  V30 47 1 15 41
M  V30 48 1 16 42
M  V30 49 1 17 43
M  V30 50 1 18 44
M  V30 51 1 18 45
M  V30 52 1 22 46
M  V30 53 1 23 47
M  V30 54 1 24 48
M  V30 55 1 26 49
M  V30 56 1 27 50
M  V30 57 1 28 51
M  V30 58 1 28 52
M  V30 59 1 30 53
M  V30 60 1 31 54
M  V30 61 1 32 55
M  V30 62 1 32 56
M  V30 63 1 33 57
M  V30 64 1 33 58
M  V30 65 1 34 59
M  V30 66 1 34 60
M  V30 END BOND
M  V30 END CTAB
M  END
>  <Dataset>  (134) 
ChEMBL_Kinases

>  <Ligand_Instance>  (134) 
nan

>  <PDB_ID>  (134) 
nan

>  <Standardized_SMILES>  (134) 
NC1(c2ccc(-c3nc4n(c3-c3ccccc3)COc3ncccc3-4)cc2)CC(O)(C2CC2)C1

>  <Name>  (134) 
nan

>  <Pocket>  (134) 
nan

>  <ATP_Site>  (134) 
nan

>  <Peripheral>  (134) 
nan

>  <Num_H_Atoms_ProtBoundConf>  (134) 
nan

>  <Num_Resolved_Atoms>  (134) 
nan

>  <Num_Not_Resolved_Atoms>  (134) 
nan

$$$$
CHEMBL2159198
     RDKit          3D

  0  0  0  0  0  0  0  0  0  0999 V3000
M  V30 BEGIN CTAB
M  V30 COUNTS 37 40 0 0 0
M  V30 BEGIN ATOM
M  V30 1 C 0.238813 -0.458786 3.956636 0
M  V30 2 C 0.550799 -1.302465 2.805374 0
M  V30 3 N 1.135538 -2.535237 2.933219 0
M  V30 4 C 1.303291 -3.066348 1.711072 0
M  V30 5 C 1.851264 -4.278263 1.411745 0
M  V30 6 N 1.919190 -4.603386 0.106898 0
M  V30 7 C 1.472730 -3.782674 -0.861708 0
M  V30 8 N 1.443737 -3.894199 -2.188667 0
M  V30 9 C 0.889130 -2.777334 -2.736021 0
M  V30 10 C 0.574982 -1.964444 -1.667440 0
M  V30 11 C 0.931169 -2.573707 -0.482341 0
M  V30 12 C 0.808513 -2.133244 0.821215 0
M  V30 13 N 0.349870 -1.059239 1.491942 0
M  V30 14 C -0.228167 0.056742 0.831506 0
M  V30 15 C -0.976025 1.036545 1.714523 0
M  V30 16 C -1.869607 1.880057 0.769516 0
M  V30 17 C -1.157112 2.132933 -0.526955 0
M  V30 18 C 0.308314 2.284741 -0.198584 0
M  V30 19 C 0.850754 0.960378 0.248522 0
M  V30 20 H -0.802606 -0.450776 4.304562 0
M  V30 21 H 0.719865 0.564267 3.926683 0
M  V30 22 H 0.776077 -0.889079 4.865548 0
M  V30 23 H 2.217665 -4.956439 2.169601 0
M  V30 24 H 1.797823 -4.720783 -2.706613 0
M  V30 25 H 0.726744 -2.565595 -3.777932 0
M  V30 26 H 0.128354 -1.012274 -1.785023 0
M  V30 27 H -0.994655 -0.242196 0.075301 0
M  V30 28 H -0.288640 1.764531 2.199334 0
M  V30 29 H -1.688047 0.614645 2.402769 0
M  V30 30 H -2.041833 2.872218 1.235492 0
M  V30 31 H -2.831665 1.349446 0.606282 0
M  V30 32 H -1.260311 1.293694 -1.235854 0
M  V30 33 H -1.560544 3.062005 -0.981422 0
M  V30 34 H 0.484417 3.081132 0.559630 0
M  V30 35 H 0.811458 2.661916 -1.119054 0
M  V30 36 H 1.559745 1.147617 1.106097 0
M  V30 37 H 1.446615 0.547176 -0.542884 0
M  V30 END ATOM
M  V30 BEGIN BOND
M  V30 1 1 1 2
M  V30 2 2 2 3
M  V30 3 1 3 4
M  V30 4 2 4 5
M  V30 5 1 5 6
M  V30 6 2 6 7
M  V30 7 1 7 8
M  V30 8 1 8 9
M  V30 9 2 9 10
M  V30 10 1 10 11
M  V30 11 2 11 12
M  V30 12 1 12 13
M  V30 13 1 13 14
M  V30 14 1 14 15
M  V30 15 1 15 16
M  V30 16 1 16 17
M  V30 17 1 17 18
M  V30 18 1 18 19
M  V30 19 1 13 2
M  V30 20 1 19 14
M  V30 21 1 12 4
M  V30 22 1 11 7
M  V30 23 1 1 20
M  V30 24 1 1 21
M  V30 25 1 1 22
M  V30 26 1 5 23
M  V30 27 1 8 24
M  V30 28 1 9 25
M  V30 29 1 10 26
M  V30 30 1 14 27
M  V30 31 1 15 28
M  V30 32 1 15 29
M  V30 33 1 16 30
M  V30 34 1 16 31
M  V30 35 1 17 32
M  V30 36 1 17 33
M  V30 37 1 18 34
M  V30 38 1 18 35
M  V30 39 1 19 36
M  V30 40 1 19 37
M  V30 END BOND
M  V30 END CTAB
M  END
>  <Dataset>  (135) 
ChEMBL_Kinases

>  <Ligand_Instance>  (135) 
nan

>  <PDB_ID>  (135) 
nan

>  <Standardized_SMILES>  (135) 
Cc1nc2cnc3[nH]ccc3c2n1C1CCCCC1

>  <Name>  (135) 
nan

>  <Pocket>  (135) 
nan

>  <ATP_Site>  (135) 
nan

>  <Peripheral>  (135) 
nan

>  <Num_H_Atoms_ProtBoundConf>  (135) 
nan

>  <Num_Resolved_Atoms>  (135) 
nan

>  <Num_Not_Resolved_Atoms>  (135) 
nan

$$$$
CHEMBL3685209
     RDKit          3D

  0  0  0  0  0  0  0  0  0  0999 V3000
M  V30 BEGIN CTAB
M  V30 COUNTS 52 56 0 0 0
M  V30 BEGIN ATOM
M  V30 1 C -1.401871 -2.330808 -4.505257 0
M  V30 2 C -1.814371 -2.644385 -3.113775 0
M  V30 3 N -1.489377 -3.747910 -2.424032 0
M  V30 4 C -2.060780 -3.643713 -1.214098 0
M  V30 5 C -2.017820 -4.528401 -0.152533 0
M  V30 6 C -2.714358 -4.143702 0.979094 0
M  V30 7 N -3.404707 -2.987060 1.081634 0
M  V30 8 C -3.447711 -2.130147 0.056727 0
M  V30 9 N -4.110531 -0.874547 -0.043335 0
M  V30 10 C -3.533949 0.364660 0.368305 0
M  V30 11 C -4.178897 1.566621 0.170207 0
M  V30 12 C -3.528082 2.677533 0.612614 0
M  V30 13 C -2.279423 2.619468 1.233089 0
M  V30 14 C -1.650584 1.394783 1.420945 0
M  V30 15 C -0.345777 1.555229 2.109363 0
M  V30 16 N 0.705329 1.822873 1.149676 0
M  V30 17 C 1.152647 0.983772 0.104411 0
M  V30 18 N 0.627698 -0.225184 -0.130798 0
M  V30 19 C 1.006591 -1.070039 -1.100387 0
M  V30 20 N 2.011175 -0.667540 -1.917926 0
M  V30 21 C 2.599501 0.536122 -1.755127 0
M  V30 22 C 3.612017 0.895885 -2.609261 0
M  V30 23 C 4.020193 -0.032379 -3.662252 0
M  V30 24 N 3.384714 -1.295479 -3.807608 0
M  V30 25 O 4.954524 0.281075 -4.466011 0
M  V30 26 C 4.253643 2.110809 -2.495864 0
M  V30 27 C 3.823693 2.938827 -1.482932 0
M  V30 28 C 2.802050 2.544367 -0.641907 0
M  V30 29 C 2.168823 1.345303 -0.753494 0
M  V30 30 C -2.307045 0.273350 0.974648 0
M  V30 31 C -2.773619 -2.459313 -1.095143 0
M  V30 32 N -2.570918 -1.897674 -2.314164 0
M  V30 33 H -1.870069 -3.102473 -5.179418 0
M  V30 34 H -1.821741 -1.328985 -4.785527 0
M  V30 35 H -0.313965 -2.344019 -4.580040 0
M  V30 36 H -1.470168 -5.456615 -0.216963 0
M  V30 37 H -2.703122 -4.808268 1.826465 0
M  V30 38 H -5.078274 -0.851215 -0.440680 0
M  V30 39 H -5.140329 1.533228 -0.316609 0
M  V30 40 H -4.046527 3.631589 0.452858 0
M  V30 41 H -1.894274 3.604809 1.528745 0
M  V30 42 H -0.118827 0.580044 2.652215 0
M  V30 43 H -0.411514 2.288412 2.930637 0
M  V30 44 H 1.122143 2.759949 1.323705 0
M  V30 45 H 0.465419 -2.003867 -1.136263 0
M  V30 46 H 3.820168 -1.957148 -3.106402 0
M  V30 47 H 2.646181 -1.803864 -4.355993 0
M  V30 48 H 5.045230 2.322662 -3.211300 0
M  V30 49 H 4.340723 3.899552 -1.405012 0
M  V30 50 H 2.556746 3.266986 0.100197 0
M  V30 51 H -1.772682 -0.633294 1.157190 0
M  V30 52 H -2.970210 -0.962189 -2.606721 0
M  V30 END ATOM
M  V30 BEGIN BOND
M  V30 1 1 1 2
M  V30 2 2 2 3
M  V30 3 1 3 4
M  V30 4 2 4 5
M  V30 5 1 5 6
M  V30 6 2 6 7
M  V30 7 1 7 8
M  V30 8 1 8 9
M  V30 9 1 9 10
M  V30 10 2 10 11
M  V30 11 1 11 12
M  V30 12 2 12 13
M  V30 13 1 13 14
M  V30 14 1 14 15
M  V30 15 1 15 16
M  V30 16 1 16 17
M  V30 17 2 17 18
M  V30 18 1 18 19
M  V30 19 2 19 20
M  V30 20 1 20 21
M  V30 21 2 21 22
M  V30 22 1 22 23
M  V30 23 1 23 24
M  V30 24 2 23 25
M  V30 25 1 22 26
M  V30 26 2 26 27
M  V30 27 1 27 28
M  V30 28 2 28 29
M  V30 29 2 14 30
M  V30 30 2 8 31
M  V30 31 1 31 32
M  V30 32 1 32 2
M  V30 33 1 31 4
M  V30 34 1 30 10
M  V30 35 1 29 17
M  V30 36 1 29 21
M  V30 37 1 1 33
M  V30 38 1 1 34
M  V30 39 1 1 35
M  V30 40 1 5 36
M  V30 41 1 6 37
M  V30 42 1 9 38
M  V30 43 1 11 39
M  V30 44 1 12 40
M  V30 45 1 13 41
M  V30 46 1 15 42
M  V30 47 1 15 43
M  V30 48 1 16 44
M  V30 49 1 19 45
M  V30 50 1 24 46
M  V30 51 1 24 47
M  V30 52 1 26 48
M  V30 53 1 27 49
M  V30 54 1 28 50
M  V30 55 1 30 51
M  V30 56 1 32 52
M  V30 END BOND
M  V30 END CTAB
M  END
>  <Dataset>  (136) 
ChEMBL_Kinases

>  <Ligand_Instance>  (136) 
nan

>  <PDB_ID>  (136) 
nan

>  <Standardized_SMILES>  (136) 
Cc1nc2ccnc(Nc3cccc(CNc4ncnc5c(C(N)=O)cccc45)c3)c2[nH]1

>  <Name>  (136) 
nan

>  <Pocket>  (136) 
nan

>  <ATP_Site>  (136) 
nan

>  <Peripheral>  (136) 
nan

>  <Num_H_Atoms_ProtBoundConf>  (136) 
nan

>  <Num_Resolved_Atoms>  (136) 
nan

>  <Num_Not_Resolved_Atoms>  (136) 
nan

$$$$
CHEMBL3701751
     RDKit          3D

  0  0  0  0  0  0  0  0  0  0999 V3000
M  V30 BEGIN CTAB
M  V30 COUNTS 52 57 0 0 0
M  V30 BEGIN ATOM
M  V30 1 N -3.249191 -4.338111 2.901075 0
M  V30 2 C -1.786197 -4.332243 2.842524 0
M  V30 3 C -1.216016 -3.273470 2.005706 0
M  V30 4 C -0.093709 -3.344694 1.207202 0
M  V30 5 C 0.339755 -2.258266 0.459408 0
M  V30 6 C -0.368957 -1.067364 0.511639 0
M  V30 7 C 0.019901 0.122571 -0.244033 0
M  V30 8 N -0.908418 0.520073 -1.163464 0
M  V30 9 C -0.447827 1.623006 -1.799781 0
M  V30 10 N 0.758067 1.904163 -1.275498 0
M  V30 11 C 1.073876 1.008489 -0.323718 0
M  V30 12 C 2.174630 0.741873 0.594134 0
M  V30 13 C 3.449835 0.473637 0.193445 0
M  V30 14 C 4.436606 0.230875 1.116760 0
M  V30 15 C 4.130766 0.259182 2.475866 0
M  V30 16 C 2.861527 0.524105 2.946739 0
M  V30 17 C 1.929680 0.756851 1.951586 0
M  V30 18 C 1.630127 2.996403 -1.643660 0
M  V30 19 O 1.089584 3.809150 -2.666899 0
M  V30 20 C -0.145267 3.587297 -3.259035 0
M  V30 21 C -0.668580 4.381163 -4.255805 0
M  V30 22 N -1.875706 4.145517 -4.818916 0
M  V30 23 C -2.605410 3.096140 -4.397483 0
M  V30 24 C -2.155996 2.249370 -3.402918 0
M  V30 25 C -0.919748 2.520117 -2.850973 0
M  V30 26 C -1.493819 -0.989881 1.309572 0
M  V30 27 C -1.935049 -2.080314 2.064679 0
M  V30 28 C -1.211255 -4.331657 4.264528 0
M  V30 29 C -1.047495 -5.849324 4.207426 0
M  V30 30 C -1.274349 -5.716504 2.701147 0
M  V30 31 H -3.619037 -3.726783 2.131870 0
M  V30 32 H -3.527822 -3.886752 3.800882 0
M  V30 33 H 0.413770 -4.276520 1.201164 0
M  V30 34 H 1.219469 -2.327853 -0.160965 0
M  V30 35 H 3.691997 0.450631 -0.855316 0
M  V30 36 H 5.451416 0.017360 0.802712 0
M  V30 37 H 4.910745 0.066626 3.226197 0
M  V30 38 H 2.595898 0.552483 3.993875 0
M  V30 39 H 0.905662 0.971914 2.283008 0
M  V30 40 H 1.860317 3.663874 -0.789506 0
M  V30 41 H 2.620153 2.601635 -2.012056 0
M  V30 42 H -0.045280 5.219014 -4.566765 0
M  V30 43 H -3.581913 2.847674 -4.804614 0
M  V30 44 H -2.733070 1.384742 -3.040464 0
M  V30 45 H -2.041893 -0.055837 1.344901 0
M  V30 46 H -2.828748 -1.921869 2.660580 0
M  V30 47 H -0.246203 -3.768901 4.304782 0
M  V30 48 H -1.912341 -4.060670 5.057617 0
M  V30 49 H -1.809773 -6.417413 4.751843 0
M  V30 50 H -0.034401 -6.202342 4.446420 0
M  V30 51 H -2.049546 -6.483244 2.419157 0
M  V30 52 H -0.366422 -5.912464 2.137114 0
M  V30 END ATOM
M  V30 BEGIN BOND
M  V30 1 1 1 2
M  V30 2 1 2 3
M  V30 3 2 3 4
M  V30 4 1 4 5
M  V30 5 2 5 6
M  V30 6 1 6 7
M  V30 7 1 7 8
M  V30 8 2 8 9
M  V30 9 1 9 10
M  V30 10 1 10 11
M  V30 11 1 11 12
M  V30 12 2 12 13
M  V30 13 1 13 14
M  V30 14 2 14 15
M  V30 15 1 15 16
M  V30 16 2 16 17
M  V30 17 1 10 18
M  V30 18 1 18 19
M  V30 19 1 19 20
M  V30 20 2 20 21
M  V30 21 1 21 22
M  V30 22 2 22 23
M  V30 23 1 23 24
M  V30 24 2 24 25
M  V30 25 1 6 26
M  V30 26 2 26 27
M  V30 27 1 2 28
M  V30 28 1 28 29
M  V30 29 1 29 30
M  V30 30 1 30 2
M  V30 31 1 27 3
M  V30 32 2 11 7
M  V30 33 1 17 12
M  V30 34 1 25 20
M  V30 35 1 25 9
M  V30 36 1 1 31
M  V30 37 1 1 32
M  V30 38 1 4 33
M  V30 39 1 5 34
M  V30 40 1 13 35
M  V30 41 1 14 36
M  V30 42 1 15 37
M  V30 43 1 16 38
M  V30 44 1 17 39
M  V30 45 1 18 40
M  V30 46 1 18 41
M  V30 47 1 21 42
M  V30 48 1 23 43
M  V30 49 1 24 44
M  V30 50 1 26 45
M  V30 51 1 27 46
M  V30 52 1 28 47
M  V30 53 1 28 48
M  V30 54 1 29 49
M  V30 55 1 29 50
M  V30 56 1 30 51
M  V30 57 1 30 52
M  V30 END BOND
M  V30 END CTAB
M  END
>  <Dataset>  (137) 
ChEMBL_Kinases

>  <Ligand_Instance>  (137) 
nan

>  <PDB_ID>  (137) 
nan

>  <Standardized_SMILES>  (137) 
NC1(c2ccc(-c3nc4n(c3-c3ccccc3)COc3cnccc3-4)cc2)CCC1

>  <Name>  (137) 
nan

>  <Pocket>  (137) 
nan

>  <ATP_Site>  (137) 
nan

>  <Peripheral>  (137) 
nan

>  <Num_H_Atoms_ProtBoundConf>  (137) 
nan

>  <Num_Resolved_Atoms>  (137) 
nan

>  <Num_Not_Resolved_Atoms>  (137) 
nan

$$$$
CHEMBL3701750
     RDKit          3D

  0  0  0  0  0  0  0  0  0  0999 V3000
M  V30 BEGIN CTAB
M  V30 COUNTS 56 61 0 0 0
M  V30 BEGIN ATOM
M  V30 1 C 2.946820 -2.194311 4.470235 0
M  V30 2 C 4.097200 -1.347086 4.020534 0
M  V30 3 O 5.211661 -1.548280 4.830722 0
M  V30 4 C 3.755445 0.092946 3.722066 0
M  V30 5 C 3.732527 -0.147281 2.263781 0
M  V30 6 N 4.606905 0.720900 1.472516 0
M  V30 7 C 2.411909 -0.315927 1.600815 0
M  V30 8 C 1.172859 -0.288010 2.193986 0
M  V30 9 C 0.025390 -0.458056 1.443249 0
M  V30 10 C 0.147167 -0.659456 0.066997 0
M  V30 11 C -1.115241 -0.829961 -0.644602 0
M  V30 12 N -1.214979 -2.052272 -1.248356 0
M  V30 13 C -2.403871 -2.134284 -1.884969 0
M  V30 14 N -3.051660 -0.954434 -1.677323 0
M  V30 15 C -2.281550 -0.146026 -0.922945 0
M  V30 16 C -2.371182 1.189264 -0.363426 0
M  V30 17 C -3.328802 1.610984 0.558965 0
M  V30 18 C -3.355448 2.898739 1.051043 0
M  V30 19 C -2.400869 3.819804 0.621832 0
M  V30 20 C -1.436617 3.438394 -0.291216 0
M  V30 21 C -1.450047 2.146373 -0.752677 0
M  V30 22 C -4.346067 -0.588629 -2.163792 0
M  V30 23 O -4.955265 -1.593499 -2.929200 0
M  V30 24 C -4.375257 -2.815917 -3.190215 0
M  V30 25 C -4.944928 -3.833744 -3.939511 0
M  V30 26 N -4.329563 -5.006806 -4.160304 0
M  V30 27 C -3.104262 -5.280658 -3.665164 0
M  V30 28 C -2.459209 -4.314255 -2.901038 0
M  V30 29 C -3.122758 -3.118950 -2.694580 0
M  V30 30 C 1.386854 -0.690248 -0.545117 0
M  V30 31 C 2.513946 -0.516444 0.237114 0
M  V30 32 C 4.420261 -1.482575 2.528929 0
M  V30 33 H 3.254842 -3.018089 5.159054 0
M  V30 34 H 2.401906 -2.687780 3.639994 0
M  V30 35 H 2.187429 -1.532602 4.973163 0
M  V30 36 H 4.993892 -2.165363 5.570819 0
M  V30 37 H 4.643034 0.734404 3.984857 0
M  V30 38 H 2.869253 0.514192 4.211253 0
M  V30 39 H 5.059830 0.119186 0.721996 0
M  V30 40 H 5.391509 0.973769 2.116514 0
M  V30 41 H 1.172534 -0.128570 3.251045 0
M  V30 42 H -0.897674 -0.421035 1.994598 0
M  V30 43 H -4.047296 0.835956 0.852391 0
M  V30 44 H -4.129658 3.174580 1.773484 0
M  V30 45 H -2.397855 4.820819 0.985527 0
M  V30 46 H -0.687828 4.156712 -0.629548 0
M  V30 47 H -0.668545 1.880998 -1.476903 0
M  V30 48 H -4.269723 0.379200 -2.703148 0
M  V30 49 H -5.010055 -0.452491 -1.262353 0
M  V30 50 H -5.938026 -3.646640 -4.356837 0
M  V30 51 H -2.574970 -6.212383 -3.819878 0
M  V30 52 H -1.474165 -4.499533 -2.487154 0
M  V30 53 H 1.433567 -0.849658 -1.619193 0
M  V30 54 H 3.444314 -0.555712 -0.330298 0
M  V30 55 H 3.968266 -2.365086 2.078445 0
M  V30 56 H 5.517557 -1.461032 2.386666 0
M  V30 END ATOM
M  V30 BEGIN BOND
M  V30 1 1 1 2
M  V30 2 1 2 3
M  V30 3 1 2 4
M  V30 4 1 4 5
M  V30 5 1 5 6
M  V30 6 1 5 7
M  V30 7 2 7 8
M  V30 8 1 8 9
M  V30 9 2 9 10
M  V30 10 1 10 11
M  V30 11 1 11 12
M  V30 12 2 12 13
M  V30 13 1 13 14
M  V30 14 1 14 15
M  V30 15 1 15 16
M  V30 16 2 16 17
M  V30 17 1 17 18
M  V30 18 2 18 19
M  V30 19 1 19 20
M  V30 20 2 20 21
M  V30 21 1 14 22
M  V30 22 1 22 23
M  V30 23 1 23 24
M  V30 24 2 24 25
M  V30 25 1 25 26
M  V30 26 2 26 27
M  V30 27 1 27 28
M  V30 28 2 28 29
M  V30 29 1 10 30
M  V30 30 2 30 31
M  V30 31 1 5 32
M  V30 32 1 32 2
M  V30 33 1 31 7
M  V30 34 2 15 11
M  V30 35 1 21 16
M  V30 36 1 29 24
M  V30 37 1 29 13
M  V30 38 1 1 33
M  V30 39 1 1 34
M  V30 40 1 1 35
M  V30 41 1 3 36
M  V30 42 1 4 37
M  V30 43 1 4 38
M  V30 44 1 6 39
M  V30 45 1 6 40
M  V30 46 1 8 41
M  V30 47 1 9 42
M  V30 48 1 17 43
M  V30 49 1 18 44
M  V30 50 1 19 45
M  V30 51 1 20 46
M  V30 52 1 21 47
M  V30 53 1 22 48
M  V30 54 1 22 49
M  V30 55 1 25 50
M  V30 56 1 27 51
M  V30 57 1 28 52
M  V30 58 1 30 53
M  V30 59 1 31 54
M  V30 60 1 32 55
M  V30 61 1 32 56
M  V30 END BOND
M  V30 END CTAB
M  END
>  <Dataset>  (138) 
ChEMBL_Kinases

>  <Ligand_Instance>  (138) 
nan

>  <PDB_ID>  (138) 
nan

>  <Standardized_SMILES>  (138) 
CC1(O)CC(N)(c2ccc(-c3nc4n(c3-c3ccccc3)COc3cnccc3-4)cc2)C1

>  <Name>  (138) 
nan

>  <Pocket>  (138) 
nan

>  <ATP_Site>  (138) 
nan

>  <Peripheral>  (138) 
nan

>  <Num_H_Atoms_ProtBoundConf>  (138) 
nan

>  <Num_Resolved_Atoms>  (138) 
nan

>  <Num_Not_Resolved_Atoms>  (138) 
nan

$$$$
CHEMBL3091797
     RDKit          3D

  0  0  0  0  0  0  0  0  0  0999 V3000
M  V30 BEGIN CTAB
M  V30 COUNTS 30 33 0 0 0
M  V30 BEGIN ATOM
M  V30 1 N 0.544458 -5.418604 3.274666 0
M  V30 2 C -0.348252 -4.323046 3.506603 0
M  V30 3 N -1.284610 -4.377752 4.492159 0
M  V30 4 C -2.115659 -3.320649 4.685137 0
M  V30 5 N -2.011260 -2.228592 3.905661 0
M  V30 6 C -1.084568 -2.169479 2.927212 0
M  V30 7 C -0.208967 -3.222570 2.686473 0
M  V30 8 O 0.545006 -2.851784 1.691422 0
M  V30 9 C 0.226973 -1.638182 1.266413 0
M  V30 10 C 0.738559 -0.837991 0.252990 0
M  V30 11 C 0.172542 0.418963 0.053333 0
M  V30 12 C 0.675616 1.295719 -0.998655 0
M  V30 13 C 2.073820 1.335770 -1.018168 0
M  V30 14 C 2.763379 2.103526 -1.934200 0
M  V30 15 C 2.029947 2.839212 -2.840903 0
M  V30 16 Cl 2.866434 3.822399 -4.014938 0
M  V30 17 C 0.650884 2.796444 -2.817701 0
M  V30 18 C -0.049646 2.032944 -1.907055 0
M  V30 19 Cl -1.774960 1.896536 -1.777573 0
M  V30 20 C -0.868532 0.865625 0.836193 0
M  V30 21 N -1.340807 0.062522 1.811451 0
M  V30 22 C -0.821095 -1.157490 2.035403 0
M  V30 23 H 0.362450 -6.383310 2.901963 0
M  V30 24 H 1.511849 -5.112782 3.551120 0
M  V30 25 H -2.835938 -3.429622 5.484514 0
M  V30 26 H 1.546076 -1.155540 -0.372065 0
M  V30 27 H 2.726391 0.784161 -0.336198 0
M  V30 28 H 3.835056 2.160992 -1.981597 0
M  V30 29 H 0.036379 3.366447 -3.521160 0
M  V30 30 H -1.358651 1.828994 0.740404 0
M  V30 END ATOM
M  V30 BEGIN BOND
M  V30 1 1 1 2
M  V30 2 2 2 3
M  V30 3 1 3 4
M  V30 4 2 4 5
M  V30 5 1 5 6
M  V30 6 2 6 7
M  V30 7 1 7 8
M  V30 8 1 8 9
M  V30 9 2 9 10
M  V30 10 1 10 11
M  V30 11 1 11 12
M  V30 12 2 12 13
M  V30 13 1 13 14
M  V30 14 2 14 15
M  V30 15 1 15 16
M  V30 16 1 15 17
M  V30 17 2 17 18
M  V30 18 1 18 19
M  V30 19 2 11 20
M  V30 20 1 20 21
M  V30 21 2 21 22
M  V30 22 1 7 2
M  V30 23 1 22 9
M  V30 24 1 22 6
M  V30 25 1 18 12
M  V30 26 1 1 23
M  V30 27 1 1 24
M  V30 28 1 4 25
M  V30 29 1 10 26
M  V30 30 1 13 27
M  V30 31 1 14 28
M  V30 32 1 17 29
M  V30 33 1 20 30
M  V30 END BOND
M  V30 END CTAB
M  END
>  <Dataset>  (139) 
ChEMBL_Kinases

>  <Ligand_Instance>  (139) 
nan

>  <PDB_ID>  (139) 
nan

>  <Standardized_SMILES>  (139) 
Nc1ncnc2c1oc1cc(-c3ccc(Cl)cc3Cl)cnc12

>  <Name>  (139) 
nan

>  <Pocket>  (139) 
nan

>  <ATP_Site>  (139) 
nan

>  <Peripheral>  (139) 
nan

>  <Num_H_Atoms_ProtBoundConf>  (139) 
nan

>  <Num_Resolved_Atoms>  (139) 
nan

>  <Num_Not_Resolved_Atoms>  (139) 
nan

$$$$
CHEMBL3091798
     RDKit          3D

  0  0  0  0  0  0  0  0  0  0999 V3000
M  V30 BEGIN CTAB
M  V30 COUNTS 33 37 0 0 0
M  V30 BEGIN ATOM
M  V30 1 N 3.014124 -5.501129 1.474256 0
M  V30 2 C 3.548039 -4.190802 1.659819 0
M  V30 3 N 4.810944 -3.957870 2.070904 0
M  V30 4 C 5.305455 -2.717186 2.242960 0
M  V30 5 N 4.553423 -1.618529 2.010118 0
M  V30 6 C 3.271169 -1.768076 1.593566 0
M  V30 7 C 2.798805 -3.055556 1.428208 0
M  V30 8 O 1.541400 -2.943279 1.022193 0
M  V30 9 C 1.213204 -1.658016 0.928318 0
M  V30 10 C 0.019981 -1.041095 0.547904 0
M  V30 11 C -0.031201 0.351331 0.544710 0
M  V30 12 C -1.295891 0.984379 0.141392 0
M  V30 13 C -1.675639 2.211825 0.683082 0
M  V30 14 C -2.866195 2.825801 0.315394 0
M  V30 15 C -3.615096 2.127378 -0.608743 0
M  V30 16 C -3.303566 0.913768 -1.185149 0
M  V30 17 C -2.093220 0.334393 -0.782732 0
M  V30 18 O -4.344884 0.575774 -2.065736 0
M  V30 19 C -5.484511 1.385609 -1.740835 0
M  V30 20 O -4.854789 2.511908 -1.154262 0
M  V30 21 C 1.076118 1.110454 0.910556 0
M  V30 22 N 2.227050 0.484230 1.277193 0
M  V30 23 C 2.293215 -0.851580 1.285769 0
M  V30 24 H 2.005601 -5.578004 1.757226 0
M  V30 25 H 3.692073 -6.213056 1.082314 0
M  V30 26 H 6.320885 -2.555199 2.573315 0
M  V30 27 H -0.826110 -1.662784 0.267929 0
M  V30 28 H -1.044866 2.711916 1.405019 0
M  V30 29 H -3.204619 3.775080 0.705824 0
M  V30 30 H -1.846822 -0.611986 -1.229903 0
M  V30 31 H -6.092706 1.626592 -2.626377 0
M  V30 32 H -6.079869 0.835773 -0.965972 0
M  V30 33 H 0.909476 2.175865 0.866846 0
M  V30 END ATOM
M  V30 BEGIN BOND
M  V30 1 1 1 2
M  V30 2 2 2 3
M  V30 3 1 3 4
M  V30 4 2 4 5
M  V30 5 1 5 6
M  V30 6 2 6 7
M  V30 7 1 7 8
M  V30 8 1 8 9
M  V30 9 2 9 10
M  V30 10 1 10 11
M  V30 11 1 11 12
M  V30 12 2 12 13
M  V30 13 1 13 14
M  V30 14 2 14 15
M  V30 15 1 15 16
M  V30 16 2 16 17
M  V30 17 1 16 18
M  V30 18 1 18 19
M  V30 19 1 19 20
M  V30 20 2 11 21
M  V30 21 1 21 22
M  V30 22 2 22 23
M  V30 23 1 7 2
M  V30 24 1 23 9
M  V30 25 1 23 6
M  V30 26 1 17 12
M  V30 27 1 20 15
M  V30 28 1 1 24
M  V30 29 1 1 25
M  V30 30 1 4 26
M  V30 31 1 10 27
M  V30 32 1 13 28
M  V30 33 1 14 29
M  V30 34 1 17 30
M  V30 35 1 19 31
M  V30 36 1 19 32
M  V30 37 1 21 33
M  V30 END BOND
M  V30 END CTAB
M  END
>  <Dataset>  (140) 
ChEMBL_Kinases

>  <Ligand_Instance>  (140) 
nan

>  <PDB_ID>  (140) 
nan

>  <Standardized_SMILES>  (140) 
Nc1ncnc2c1oc1cc(-c3ccc4c(c3)OCO4)cnc12

>  <Name>  (140) 
nan

>  <Pocket>  (140) 
nan

>  <ATP_Site>  (140) 
nan

>  <Peripheral>  (140) 
nan

>  <Num_H_Atoms_ProtBoundConf>  (140) 
nan

>  <Num_Resolved_Atoms>  (140) 
nan

>  <Num_Not_Resolved_Atoms>  (140) 
nan

$$$$
CHEMBL215764
     RDKit          3D

  0  0  0  0  0  0  0  0  0  0999 V3000
M  V30 BEGIN CTAB
M  V30 COUNTS 42 46 0 0 0
M  V30 BEGIN ATOM
M  V30 1 C 4.093988 -2.144560 2.873686 0
M  V30 2 C 3.295606 -1.549298 1.772886 0
M  V30 3 O 2.086788 -1.417942 2.094753 0
M  V30 4 C 3.752983 -1.136336 0.456137 0
M  V30 5 C 5.076670 -1.276649 0.094848 0
M  V30 6 C 5.410330 -0.851428 -1.185828 0
M  V30 7 C 4.467615 -0.312610 -2.062087 0
M  V30 8 C 3.157091 -0.196829 -1.644658 0
M  V30 9 C 2.775710 -0.612095 -0.363593 0
M  V30 10 C 1.377898 -0.468420 0.029337 0
M  V30 11 C 0.981857 0.705314 0.635879 0
M  V30 12 C -0.336345 0.855032 1.012612 0
M  V30 13 N -0.970644 1.880091 1.610389 0
M  V30 14 C -2.274591 1.500164 1.752230 0
M  V30 15 C -3.282081 2.247507 2.316729 0
M  V30 16 C -4.575411 1.739312 2.399991 0
M  V30 17 C -4.807592 0.455074 1.893534 0
M  V30 18 O -6.091971 -0.061123 1.971174 0
M  V30 19 C -3.742635 -0.221956 1.346200 0
M  V30 20 C -2.464871 0.235303 1.244351 0
M  V30 21 C -1.245296 -0.152624 0.786842 0
M  V30 22 C -0.861024 -1.307509 0.191334 0
M  V30 23 C 0.445294 -1.478684 -0.191971 0
M  V30 24 C 0.698870 -2.769639 -0.816050 0
M  V30 25 O 1.781669 -3.216910 -1.267248 0
M  V30 26 N -0.591054 -3.402821 -0.788147 0
M  V30 27 C -1.521731 -2.523113 -0.183905 0
M  V30 28 O -2.674814 -2.942942 -0.095096 0
M  V30 29 H 5.166064 -2.012214 2.648602 0
M  V30 30 H 3.821058 -1.713667 3.860903 0
M  V30 31 H 3.908666 -3.255636 2.866158 0
M  V30 32 H 5.821227 -1.686192 0.745461 0
M  V30 33 H 6.446623 -0.928963 -1.552182 0
M  V30 34 H 4.754326 0.014055 -3.062476 0
M  V30 35 H 2.376894 0.215225 -2.282366 0
M  V30 36 H 1.718287 1.504743 0.811368 0
M  V30 37 H -0.504092 2.773028 1.890518 0
M  V30 38 H -3.103724 3.238944 2.707927 0
M  V30 39 H -5.333973 2.362275 2.851374 0
M  V30 40 H -6.481463 -0.311861 2.869210 0
M  V30 41 H -4.003751 -1.185219 0.986845 0
M  V30 42 H -0.683558 -4.381371 -1.193956 0
M  V30 END ATOM
M  V30 BEGIN BOND
M  V30 1 1 1 2
M  V30 2 2 2 3
M  V30 3 1 2 4
M  V30 4 2 4 5
M  V30 5 1 5 6
M  V30 6 2 6 7
M  V30 7 1 7 8
M  V30 8 2 8 9
M  V30 9 1 9 10
M  V30 10 2 10 11
M  V30 11 1 11 12
M  V30 12 1 12 13
M  V30 13 1 13 14
M  V30 14 2 14 15
M  V30 15 1 15 16
M  V30 16 2 16 17
M  V30 17 1 17 18
M  V30 18 1 17 19
M  V30 19 2 19 20
M  V30 20 1 20 21
M  V30 21 1 21 22
M  V30 22 2 22 23
M  V30 23 1 23 24
M  V30 24 2 24 25
M  V30 25 1 24 26
M  V30 26 1 26 27
M  V30 27 2 27 28
M  V30 28 1 9 4
M  V30 29 1 23 10
M  V30 30 2 21 12
M  V30 31 1 27 22
M  V30 32 1 20 14
M  V30 33 1 1 29
M  V30 34 1 1 30
M  V30 35 1 1 31
M  V30 36 1 5 32
M  V30 37 1 6 33
M  V30 38 1 7 34
M  V30 39 1 8 35
M  V30 40 1 11 36
M  V30 41 1 13 37
M  V30 42 1 15 38
M  V30 43 1 16 39
M  V30 44 1 18 40
M  V30 45 1 19 41
M  V30 46 1 26 42
M  V30 END BOND
M  V30 END CTAB
M  END
>  <Dataset>  (141) 
ChEMBL_Kinases

>  <Ligand_Instance>  (141) 
nan

>  <PDB_ID>  (141) 
nan

>  <Standardized_SMILES>  (141) 
CC(=O)c1ccccc1-c1cc2[nH]c3ccc(O)cc3c2c2c1C(=O)NC2=O

>  <Name>  (141) 
nan

>  <Pocket>  (141) 
nan

>  <ATP_Site>  (141) 
nan

>  <Peripheral>  (141) 
nan

>  <Num_H_Atoms_ProtBoundConf>  (141) 
nan

>  <Num_Resolved_Atoms>  (141) 
nan

>  <Num_Not_Resolved_Atoms>  (141) 
nan

$$$$
CHEMBL3685211
     RDKit          3D

  0  0  0  0  0  0  0  0  0  0999 V3000
M  V30 BEGIN CTAB
M  V30 COUNTS 56 59 0 0 0
M  V30 BEGIN ATOM
M  V30 1 C 5.983021 -4.685626 2.915471 0
M  V30 2 O 5.663519 -3.524161 3.687503 0
M  V30 3 C 4.822768 -2.558495 3.145659 0
M  V30 4 C 4.511479 -1.429284 3.896506 0
M  V30 5 C 3.672218 -0.447007 3.379631 0
M  V30 6 C 3.132918 -0.563252 2.125322 0
M  V30 7 C 2.263215 0.483411 1.633480 0
M  V30 8 O 2.027415 1.453541 2.398334 0
M  V30 9 N 1.681907 0.437808 0.330329 0
M  V30 10 C 0.820694 1.517548 -0.096466 0
M  V30 11 C 1.296395 2.648684 -0.739630 0
M  V30 12 C 0.429030 3.657385 -1.131571 0
M  V30 13 C -0.924465 3.538114 -0.880508 0
M  V30 14 C -1.877421 4.602033 -1.289003 0
M  V30 15 C -1.448443 2.424655 -0.239660 0
M  V30 16 C -2.908683 2.310300 0.030438 0
M  V30 17 N -3.274208 0.984424 0.529817 0
M  V30 18 C -3.046329 -0.130682 -0.325384 0
M  V30 19 N -2.520019 0.045882 -1.548357 0
M  V30 20 C -2.278273 -0.950569 -2.416260 0
M  V30 21 N -2.564272 -2.244803 -2.091596 0
M  V30 22 C -3.093737 -2.487909 -0.879337 0
M  V30 23 C -3.373628 -3.791422 -0.572836 0
M  V30 24 C -3.102228 -4.865251 -1.538430 0
M  V30 25 N -2.545152 -4.520997 -2.801709 0
M  V30 26 O -3.354616 -6.077328 -1.262653 0
M  V30 27 C -3.917143 -4.062740 0.664484 0
M  V30 28 C -4.163432 -3.027012 1.553599 0
M  V30 29 C -3.873970 -1.714221 1.226705 0
M  V30 30 C -3.330348 -1.441668 -0.010460 0
M  V30 31 C -0.553797 1.444401 0.134004 0
M  V30 32 C 3.462720 -1.681796 1.425352 0
M  V30 33 C 4.286562 -2.705154 1.860642 0
M  V30 34 H 6.274790 -4.399600 1.892243 0
M  V30 35 H 6.800588 -5.251887 3.381732 0
M  V30 36 H 5.088880 -5.357199 2.908500 0
M  V30 37 H 4.959313 -1.364558 4.898580 0
M  V30 38 H 3.503325 0.388758 4.061875 0
M  V30 39 H 1.867865 -0.360061 -0.317074 0
M  V30 40 H 2.369284 2.695240 -0.914748 0
M  V30 41 H 0.831413 4.529312 -1.632322 0
M  V30 42 H -1.342677 5.245777 -2.039619 0
M  V30 43 H -2.096124 5.251221 -0.444729 0
M  V30 44 H -2.769803 4.203439 -1.807308 0
M  V30 45 H -3.160221 3.094478 0.751363 0
M  V30 46 H -3.519553 2.545021 -0.889458 0
M  V30 47 H -3.679725 0.952379 1.486044 0
M  V30 48 H -1.845039 -0.578959 -3.357172 0
M  V30 49 H -1.538625 -4.736666 -2.974139 0
M  V30 50 H -2.932238 -4.076493 -3.645392 0
M  V30 51 H -4.127709 -5.107442 0.874845 0
M  V30 52 H -4.592964 -3.307933 2.512892 0
M  V30 53 H -4.078159 -0.952498 1.937145 0
M  V30 54 H -0.877377 0.553396 0.638551 0
M  V30 55 H 3.066536 -1.830738 0.427031 0
M  V30 56 H 4.518025 -3.579663 1.260588 0
M  V30 END ATOM
M  V30 BEGIN BOND
M  V30 1 1 1 2
M  V30 2 1 2 3
M  V30 3 2 3 4
M  V30 4 1 4 5
M  V30 5 2 5 6
M  V30 6 1 6 7
M  V30 7 2 7 8
M  V30 8 1 7 9
M  V30 9 1 9 10
M  V30 10 2 10 11
M  V30 11 1 11 12
M  V30 12 2 12 13
M  V30 13 1 13 14
M  V30 14 1 13 15
M  V30 15 1 15 16
M  V30 16 1 16 17
M  V30 17 1 17 18
M  V30 18 2 18 19
M  V30 19 1 19 20
M  V30 20 2 20 21
M  V30 21 1 21 22
M  V30 22 2 22 23
M  V30 23 1 23 24
M  V30 24 1 24 25
M  V30 25 2 24 26
M  V30 26 1 23 27
M  V30 27 2 27 28
M  V30 28 1 28 29
M  V30 29 2 29 30
M  V30 30 2 15 31
M  V30 31 1 6 32
M  V30 32 2 32 33
M  V30 33 1 33 3
M  V30 34 1 31 10
M  V30 35 1 30 18
M  V30 36 1 30 22
M  V30 37 1 1 34
M  V30 38 1 1 35
M  V30 39 1 1 36
M  V30 40 1 4 37
M  V30 41 1 5 38
M  V30 42 1 9 39
M  V30 43 1 11 40
M  V30 44 1 12 41
M  V30 45 1 14 42
M  V30 46 1 14 43
M  V30 47 1 14 44
M  V30 48 1 16 45
M  V30 49 1 16 46
M  V30 50 1 17 47
M  V30 51 1 20 48
M  V30 52 1 25 49
M  V30 53 1 25 50
M  V30 54 1 27 51
M  V30 55 1 28 52
M  V30 56 1 29 53
M  V30 57 1 31 54
M  V30 58 1 32 55
M  V30 59 1 33 56
M  V30 END BOND
M  V30 END CTAB
M  END
>  <Dataset>  (142) 
ChEMBL_Kinases

>  <Ligand_Instance>  (142) 
nan

>  <PDB_ID>  (142) 
nan

>  <Standardized_SMILES>  (142) 
COc1ccc(C(=O)Nc2ccc(C)c(CNc3ncnc4c(C(N)=O)cccc34)c2)cc1

>  <Name>  (142) 
nan

>  <Pocket>  (142) 
nan

>  <ATP_Site>  (142) 
nan

>  <Peripheral>  (142) 
nan

>  <Num_H_Atoms_ProtBoundConf>  (142) 
nan

>  <Num_Resolved_Atoms>  (142) 
nan

>  <Num_Not_Resolved_Atoms>  (142) 
nan

$$$$
CHEMBL3091817
     RDKit          3D

  0  0  0  0  0  0  0  0  0  0999 V3000
M  V30 BEGIN CTAB
M  V30 COUNTS 30 33 0 0 0
M  V30 BEGIN ATOM
M  V30 1 N 3.532991 -3.396105 4.075380 0
M  V30 2 C 2.770206 -3.824097 2.954004 0
M  V30 3 N 2.832087 -5.140266 2.594260 0
M  V30 4 C 2.115376 -5.584404 1.525801 0
M  V30 5 N 1.341297 -4.754860 0.808626 0
M  V30 6 C 1.257760 -3.450110 1.136826 0
M  V30 7 C 1.973794 -2.973872 2.215122 0
M  V30 8 O 1.730185 -1.673923 2.336265 0
M  V30 9 C 0.894203 -1.274620 1.396145 0
M  V30 10 C 0.356224 -0.015031 1.125790 0
M  V30 11 C -0.515490 0.060634 0.031754 0
M  V30 12 C -1.124408 1.339916 -0.323698 0
M  V30 13 C -2.369792 1.481682 -0.900780 0
M  V30 14 C -2.928924 2.692958 -1.229223 0
M  V30 15 C -2.174493 3.811051 -0.952642 0
M  V30 16 C -0.923121 3.769163 -0.379023 0
M  V30 17 C -0.432673 2.516341 -0.079245 0
M  V30 18 C -0.829503 -1.043576 -0.739875 0
M  V30 19 N -0.272295 -2.228839 -0.419968 0
M  V30 20 C 0.571268 -2.373293 0.614821 0
M  V30 21 H 4.530706 -3.339768 4.373567 0
M  V30 22 H 2.857379 -3.040167 4.786985 0
M  V30 23 H 2.202846 -6.630668 1.289043 0
M  V30 24 H 0.593507 0.856596 1.721531 0
M  V30 25 H -2.891527 0.532253 -1.081420 0
M  V30 26 H -3.910290 2.698519 -1.677720 0
M  V30 27 H -2.621106 4.774521 -1.214970 0
M  V30 28 H -0.391292 4.688042 -0.192233 0
M  V30 29 H 0.538496 2.447494 0.368249 0
M  V30 30 H -1.510537 -0.942712 -1.580467 0
M  V30 END ATOM
M  V30 BEGIN BOND
M  V30 1 1 1 2
M  V30 2 2 2 3
M  V30 3 1 3 4
M  V30 4 2 4 5
M  V30 5 1 5 6
M  V30 6 2 6 7
M  V30 7 1 7 8
M  V30 8 1 8 9
M  V30 9 2 9 10
M  V30 10 1 10 11
M  V30 11 1 11 12
M  V30 12 2 12 13
M  V30 13 1 13 14
M  V30 14 2 14 15
M  V30 15 1 15 16
M  V30 16 2 16 17
M  V30 17 2 11 18
M  V30 18 1 18 19
M  V30 19 2 19 20
M  V30 20 1 7 2
M  V30 21 1 20 9
M  V30 22 1 20 6
M  V30 23 1 17 12
M  V30 24 1 1 21
M  V30 25 1 1 22
M  V30 26 1 4 23
M  V30 27 1 10 24
M  V30 28 1 13 25
M  V30 29 1 14 26
M  V30 30 1 15 27
M  V30 31 1 16 28
M  V30 32 1 17 29
M  V30 33 1 18 30
M  V30 END BOND
M  V30 END CTAB
M  END
>  <Dataset>  (143) 
ChEMBL_Kinases

>  <Ligand_Instance>  (143) 
nan

>  <PDB_ID>  (143) 
nan

>  <Standardized_SMILES>  (143) 
Nc1ncnc2c1oc1cc(-c3ccccc3)cnc12

>  <Name>  (143) 
nan

>  <Pocket>  (143) 
nan

>  <ATP_Site>  (143) 
nan

>  <Peripheral>  (143) 
nan

>  <Num_H_Atoms_ProtBoundConf>  (143) 
nan

>  <Num_Resolved_Atoms>  (143) 
nan

>  <Num_Not_Resolved_Atoms>  (143) 
nan

$$$$
CHEMBL215762
     RDKit          3D

  0  0  0  0  0  0  0  0  0  0999 V3000
M  V30 BEGIN CTAB
M  V30 COUNTS 41 45 0 0 0
M  V30 BEGIN ATOM
M  V30 1 O 3.030701 1.056521 2.413688 0
M  V30 2 C 2.385966 -0.020193 2.527298 0
M  V30 3 N 2.643702 -1.062524 3.488071 0
M  V30 4 C 1.697925 -2.082644 3.270445 0
M  V30 5 O 1.768690 -3.071309 4.013799 0
M  V30 6 C 0.820760 -1.739221 2.188200 0
M  V30 7 C 1.260246 -0.506482 1.771960 0
M  V30 8 C 0.640819 0.144192 0.721517 0
M  V30 9 C 0.924774 1.448771 0.141568 0
M  V30 10 C 1.084170 1.505580 -1.248333 0
M  V30 11 C 1.344852 2.642655 -1.984374 0
M  V30 12 C 1.454265 3.815416 -1.269465 0
M  V30 13 C 1.735424 5.071686 -2.017093 0
M  V30 14 O 3.114001 5.277228 -2.122076 0
M  V30 15 C 1.307876 3.829001 0.101766 0
M  V30 16 C 1.047712 2.660495 0.784720 0
M  V30 17 C -0.443489 -0.468145 0.081669 0
M  V30 18 C -0.877038 -1.712167 0.511022 0
M  V30 19 N -1.887514 -2.515168 0.074453 0
M  V30 20 C -1.846359 -3.605175 0.862342 0
M  V30 21 C -2.699159 -4.687513 0.771606 0
M  V30 22 C -2.566561 -5.756169 1.634386 0
M  V30 23 C -1.544197 -5.689047 2.587368 0
M  V30 24 O -1.429602 -6.778125 3.446581 0
M  V30 25 C -0.740741 -4.586295 2.615878 0
M  V30 26 C -0.832473 -3.510703 1.788241 0
M  V30 27 C -0.230597 -2.322691 1.561406 0
M  V30 28 H 3.431601 -0.963168 4.181769 0
M  V30 29 H 0.999022 0.580667 -1.822651 0
M  V30 30 H 1.451816 2.585079 -3.057965 0
M  V30 31 H 1.230510 5.091164 -3.002886 0
M  V30 32 H 1.323068 5.965826 -1.469391 0
M  V30 33 H 3.427882 5.898502 -1.415790 0
M  V30 34 H 1.395903 4.746245 0.638196 0
M  V30 35 H 0.919851 2.642121 1.850632 0
M  V30 36 H -1.002180 -0.043637 -0.755511 0
M  V30 37 H -2.551201 -2.298116 -0.722950 0
M  V30 38 H -3.493574 -4.755609 0.042040 0
M  V30 39 H -3.236962 -6.599271 1.557737 0
M  V30 40 H -1.504547 -6.644721 4.441287 0
M  V30 41 H -0.002506 -4.639106 3.373922 0
M  V30 END ATOM
M  V30 BEGIN BOND
M  V30 1 2 1 2
M  V30 2 1 2 3
M  V30 3 1 3 4
M  V30 4 2 4 5
M  V30 5 1 4 6
M  V30 6 2 6 7
M  V30 7 1 7 8
M  V30 8 1 8 9
M  V30 9 2 9 10
M  V30 10 1 10 11
M  V30 11 2 11 12
M  V30 12 1 12 13
M  V30 13 1 13 14
M  V30 14 1 12 15
M  V30 15 2 15 16
M  V30 16 2 8 17
M  V30 17 1 17 18
M  V30 18 1 18 19
M  V30 19 1 19 20
M  V30 20 2 20 21
M  V30 21 1 21 22
M  V30 22 2 22 23
M  V30 23 1 23 24
M  V30 24 1 23 25
M  V30 25 2 25 26
M  V30 26 1 26 27
M  V30 27 1 7 2
M  V30 28 1 16 9
M  V30 29 2 27 18
M  V30 30 1 27 6
M  V30 31 1 26 20
M  V30 32 1 3 28
M  V30 33 1 10 29
M  V30 34 1 11 30
M  V30 35 1 13 31
M  V30 36 1 13 32
M  V30 37 1 14 33
M  V30 38 1 15 34
M  V30 39 1 16 35
M  V30 40 1 17 36
M  V30 41 1 19 37
M  V30 42 1 21 38
M  V30 43 1 22 39
M  V30 44 1 24 40
M  V30 45 1 25 41
M  V30 END BOND
M  V30 END CTAB
M  END
>  <Dataset>  (144) 
ChEMBL_Kinases

>  <Ligand_Instance>  (144) 
nan

>  <PDB_ID>  (144) 
nan

>  <Standardized_SMILES>  (144) 
O=C1NC(=O)c2c1c(-c1ccc(CO)cc1)cc1[nH]c3ccc(O)cc3c21

>  <Name>  (144) 
nan

>  <Pocket>  (144) 
nan

>  <ATP_Site>  (144) 
nan

>  <Peripheral>  (144) 
nan

>  <Num_H_Atoms_ProtBoundConf>  (144) 
nan

>  <Num_Resolved_Atoms>  (144) 
nan

>  <Num_Not_Resolved_Atoms>  (144) 
nan

$$$$
CHEMBL3091818
     RDKit          3D

  0  0  0  0  0  0  0  0  0  0999 V3000
M  V30 BEGIN CTAB
M  V30 COUNTS 33 36 0 0 0
M  V30 BEGIN ATOM
M  V30 1 C -2.297857 -5.896682 2.751263 0
M  V30 2 C -1.768942 -4.686527 2.073309 0
M  V30 3 C -0.618405 -4.019856 2.512980 0
M  V30 4 C -0.144140 -2.895581 1.867273 0
M  V30 5 C -0.786835 -2.382196 0.759488 0
M  V30 6 C -0.359738 -1.200130 0.013434 0
M  V30 7 C -0.516618 -0.942987 -1.333139 0
M  V30 8 N -0.052901 0.213097 -1.842581 0
M  V30 9 C 0.565749 1.134475 -1.067446 0
M  V30 10 C 0.749541 0.922989 0.299932 0
M  V30 11 C 0.272514 -0.272724 0.839187 0
M  V30 12 O 1.373478 1.985712 0.769206 0
M  V30 13 C 1.596395 2.846446 -0.190448 0
M  V30 14 C 2.215094 4.081010 -0.148929 0
M  V30 15 N 2.747951 4.652983 1.040325 0
M  V30 16 N 2.340937 4.822400 -1.288849 0
M  V30 17 C 1.841952 4.309328 -2.452890 0
M  V30 18 N 1.239800 3.110134 -2.499611 0
M  V30 19 C 1.107260 2.367912 -1.389379 0
M  V30 20 C -1.923775 -3.014033 0.298802 0
M  V30 21 C -2.392039 -4.152900 0.964263 0
M  V30 22 H -1.988037 -5.930285 3.827610 0
M  V30 23 H -2.002349 -6.840845 2.290332 0
M  V30 24 H -3.406276 -5.820676 2.722778 0
M  V30 25 H -0.113978 -4.422697 3.381935 0
M  V30 26 H 0.735301 -2.383077 2.200504 0
M  V30 27 H -1.016302 -1.722835 -1.877187 0
M  V30 28 H 0.448366 -0.371003 1.902558 0
M  V30 29 H 3.450696 4.417726 1.774538 0
M  V30 30 H 2.486228 5.568751 1.464686 0
M  V30 31 H 1.981773 4.957150 -3.307733 0
M  V30 32 H -2.543522 -2.732846 -0.561607 0
M  V30 33 H -3.280342 -4.684304 0.640506 0
M  V30 END ATOM
M  V30 BEGIN BOND
M  V30 1 1 1 2
M  V30 2 2 2 3
M  V30 3 1 3 4
M  V30 4 2 4 5
M  V30 5 1 5 6
M  V30 6 2 6 7
M  V30 7 1 7 8
M  V30 8 2 8 9
M  V30 9 1 9 10
M  V30 10 2 10 11
M  V30 11 1 10 12
M  V30 12 1 12 13
M  V30 13 2 13 14
M  V30 14 1 14 15
M  V30 15 1 14 16
M  V30 16 2 16 17
M  V30 17 1 17 18
M  V30 18 2 18 19
M  V30 19 1 5 20
M  V30 20 2 20 21
M  V30 21 1 21 2
M  V30 22 1 11 6
M  V30 23 1 19 13
M  V30 24 1 19 9
M  V30 25 1 1 22
M  V30 26 1 1 23
M  V30 27 1 1 24
M  V30 28 1 3 25
M  V30 29 1 4 26
M  V30 30 1 7 27
M  V30 31 1 11 28
M  V30 32 1 15 29
M  V30 33 1 15 30
M  V30 34 1 17 31
M  V30 35 1 20 32
M  V30 36 1 21 33
M  V30 END BOND
M  V30 END CTAB
M  END
>  <Dataset>  (145) 
ChEMBL_Kinases

>  <Ligand_Instance>  (145) 
nan

>  <PDB_ID>  (145) 
nan

>  <Standardized_SMILES>  (145) 
Cc1ccc(-c2cnc3c(c2)oc2c(N)ncnc23)cc1

>  <Name>  (145) 
nan

>  <Pocket>  (145) 
nan

>  <ATP_Site>  (145) 
nan

>  <Peripheral>  (145) 
nan

>  <Num_H_Atoms_ProtBoundConf>  (145) 
nan

>  <Num_Resolved_Atoms>  (145) 
nan

>  <Num_Not_Resolved_Atoms>  (145) 
nan

$$$$
CHEMBL215815
     RDKit          3D

  0  0  0  0  0  0  0  0  0  0999 V3000
M  V30 BEGIN CTAB
M  V30 COUNTS 37 41 0 0 0
M  V30 BEGIN ATOM
M  V30 1 O 3.425183 1.145113 1.711762 0
M  V30 2 C 2.725386 0.123574 1.760316 0
M  V30 3 N 2.910183 -1.088867 2.517964 0
M  V30 4 C 1.840701 -1.973292 2.240375 0
M  V30 5 O 1.889384 -3.055692 2.836586 0
M  V30 6 C 0.934907 -1.381759 1.308412 0
M  V30 7 C 1.470807 -0.147132 1.036096 0
M  V30 8 C 0.830193 0.708021 0.149909 0
M  V30 9 C 1.361238 2.030390 -0.171323 0
M  V30 10 C 2.239068 2.362748 -1.185326 0
M  V30 11 C 2.630243 3.680724 -1.332295 0
M  V30 12 C 2.174048 4.689592 -0.497391 0
M  V30 13 C 1.307665 4.345446 0.499186 0
M  V30 14 C 0.886947 3.027788 0.683277 0
M  V30 15 I -0.440639 2.694714 2.260964 0
M  V30 16 C -0.346072 0.312510 -0.455456 0
M  V30 17 C -0.867956 -0.931619 -0.168538 0
M  V30 18 N -1.976167 -1.551818 -0.610172 0
M  V30 19 C -2.009118 -2.773381 0.002110 0
M  V30 20 C -2.984213 -3.765901 -0.154207 0
M  V30 21 C -2.889248 -4.959684 0.531824 0
M  V30 22 C -1.792997 -5.140942 1.381827 0
M  V30 23 O -1.703565 -6.339008 2.066268 0
M  V30 24 C -0.876893 -4.124814 1.485203 0
M  V30 25 C -0.922798 -2.931444 0.833212 0
M  V30 26 C -0.223269 -1.770246 0.711868 0
M  V30 27 H 3.766735 -1.154039 3.142365 0
M  V30 28 H 2.552621 1.547488 -1.790919 0
M  V30 29 H 3.323236 3.885086 -2.147907 0
M  V30 30 H 2.496965 5.722327 -0.633116 0
M  V30 31 H 0.966385 5.156436 1.138438 0
M  V30 32 H -0.849569 0.972379 -1.145601 0
M  V30 33 H -2.657151 -1.147624 -1.289766 0
M  V30 34 H -3.818322 -3.593470 -0.818903 0
M  V30 35 H -3.642680 -5.713177 0.404073 0
M  V30 36 H -2.053310 -6.471300 2.992697 0
M  V30 37 H -0.080279 -4.345550 2.149158 0
M  V30 END ATOM
M  V30 BEGIN BOND
M  V30 1 2 1 2
M  V30 2 1 2 3
M  V30 3 1 3 4
M  V30 4 2 4 5
M  V30 5 1 4 6
M  V30 6 2 6 7
M  V30 7 1 7 8
M  V30 8 1 8 9
M  V30 9 2 9 10
M  V30 10 1 10 11
M  V30 11 2 11 12
M  V30 12 1 12 13
M  V30 13 2 13 14
M  V30 14 1 14 15
M  V30 15 2 8 16
M  V30 16 1 16 17
M  V30 17 1 17 18
M  V30 18 1 18 19
M  V30 19 2 19 20
M  V30 20 1 20 21
M  V30 21 2 21 22
M  V30 22 1 22 23
M  V30 23 1 22 24
M  V30 24 2 24 25
M  V30 25 1 25 26
M  V30 26 1 7 2
M  V30 27 1 14 9
M  V30 28 2 26 17
M  V30 29 1 26 6
M  V30 30 1 25 19
M  V30 31 1 3 27
M  V30 32 1 10 28
M  V30 33 1 11 29
M  V30 34 1 12 30
M  V30 35 1 13 31
M  V30 36 1 16 32
M  V30 37 1 18 33
M  V30 38 1 20 34
M  V30 39 1 21 35
M  V30 40 1 23 36
M  V30 41 1 24 37
M  V30 END BOND
M  V30 END CTAB
M  END
>  <Dataset>  (146) 
ChEMBL_Kinases

>  <Ligand_Instance>  (146) 
nan

>  <PDB_ID>  (146) 
nan

>  <Standardized_SMILES>  (146) 
O=C1NC(=O)c2c1c(-c1ccccc1I)cc1[nH]c3ccc(O)cc3c21

>  <Name>  (146) 
nan

>  <Pocket>  (146) 
nan

>  <ATP_Site>  (146) 
nan

>  <Peripheral>  (146) 
nan

>  <Num_H_Atoms_ProtBoundConf>  (146) 
nan

>  <Num_Resolved_Atoms>  (146) 
nan

>  <Num_Not_Resolved_Atoms>  (146) 
nan

$$$$
CHEMBL4286199
     RDKit          3D

  0  0  0  0  0  0  0  0  0  0999 V3000
M  V30 BEGIN CTAB
M  V30 COUNTS 54 57 0 0 0
M  V30 BEGIN ATOM
M  V30 1 C -0.349383 -5.840838 3.625724 0
M  V30 2 C 0.111761 -4.469358 3.950084 0
M  V30 3 O -0.184665 -4.314876 5.183167 0
M  V30 4 N 0.742441 -3.535944 3.082261 0
M  V30 5 C 1.137581 -2.211776 3.567439 0 CFG=1
M  V30 6 C 2.613861 -2.015379 3.563699 0
M  V30 7 C 3.204858 -1.412632 2.345125 0
M  V30 8 C 2.141212 -1.068457 1.334993 0 CFG=2
M  V30 9 N 2.632888 -0.494373 0.127308 0
M  V30 10 C 1.908910 -0.079453 -1.025091 0
M  V30 11 N 2.525424 0.453117 -2.094548 0
M  V30 12 C 1.873998 0.847921 -3.194456 0
M  V30 13 C 0.503455 0.676712 -3.175394 0
M  V30 14 C -0.186470 0.128446 -2.089814 0
M  V30 15 C -1.622129 0.038723 -2.293366 0
M  V30 16 C -2.803237 0.529860 -1.784876 0
M  V30 17 C -2.687843 1.468673 -0.654326 0
M  V30 18 C -3.177191 2.719173 -1.008765 0
M  V30 19 C -3.155365 3.746877 -0.065024 0
M  V30 20 C -2.647854 3.482513 1.187216 0
M  V30 21 C -2.160947 2.225338 1.529104 0
M  V30 22 C -2.181316 1.209984 0.600076 0
M  V30 23 N -3.838042 0.011255 -2.473853 0
M  V30 24 O -3.377373 -0.782761 -3.392341 0
M  V30 25 C -2.047372 -0.804264 -3.329419 0
M  V30 26 C -1.324072 -1.663587 -4.308447 0
M  V30 27 N 0.584296 -0.232782 -1.034791 0
M  V30 28 C 1.132319 -0.196241 2.044152 0
M  V30 29 C 0.336526 -1.105604 2.953192 0
M  V30 30 H 0.197317 -6.624734 4.207868 0
M  V30 31 H -0.162613 -6.089792 2.555521 0
M  V30 32 H -1.439653 -5.987969 3.823832 0
M  V30 33 H 0.832002 -3.986380 2.147886 0
M  V30 34 H 0.818622 -2.226969 4.653683 0
M  V30 35 H 3.056774 -3.043332 3.720227 0
M  V30 36 H 2.920787 -1.468013 4.495810 0
M  V30 37 H 3.983224 -2.075622 1.871460 0
M  V30 38 H 3.769152 -0.494041 2.650337 0
M  V30 39 H 1.625050 -2.009207 1.058090 0
M  V30 40 H 3.668013 -0.367601 0.100345 0
M  V30 41 H 2.398255 1.271489 -4.035299 0
M  V30 42 H -0.004326 1.010158 -4.093305 0
M  V30 43 H -3.589889 3.008481 -1.963470 0
M  V30 44 H -3.529407 4.752081 -0.293518 0
M  V30 45 H -2.593576 4.232911 1.987774 0
M  V30 46 H -1.746571 1.927644 2.481445 0
M  V30 47 H -1.862352 0.189109 0.657766 0
M  V30 48 H -1.656624 -1.318359 -5.326068 0
M  V30 49 H -1.634634 -2.723131 -4.139749 0
M  V30 50 H -0.225296 -1.538246 -4.177391 0
M  V30 51 H 0.447193 0.231543 1.297968 0
M  V30 52 H 1.627381 0.623921 2.596133 0
M  V30 53 H -0.432467 -1.598536 2.288237 0
M  V30 54 H -0.281675 -0.529122 3.674084 0
M  V30 END ATOM
M  V30 BEGIN BOND
M  V30 1 1 1 2
M  V30 2 2 2 3
M  V30 3 1 2 4
M  V30 4 1 4 5
M  V30 5 1 5 6
M  V30 6 1 6 7
M  V30 7 1 7 8
M  V30 8 1 8 9
M  V30 9 1 9 10
M  V30 10 2 10 11
M  V30 11 1 11 12
M  V30 12 2 12 13
M  V30 13 1 13 14
M  V30 14 1 14 15
M  V30 15 1 15 16
M  V30 16 1 16 17
M  V30 17 2 17 18
M  V30 18 1 18 19
M  V30 19 2 19 20
M  V30 20 1 20 21
M  V30 21 2 21 22
M  V30 22 2 16 23
M  V30 23 1 23 24
M  V30 24 1 24 25
M  V30 25 1 25 26
M  V30 26 2 14 27
M  V30 27 1 8 28
M  V30 28 1 28 29
M  V30 29 1 29 5
M  V30 30 1 27 10
M  V30 31 2 25 15
M  V30 32 1 22 17
M  V30 33 1 1 30
M  V30 34 1 1 31
M  V30 35 1 1 32
M  V30 36 1 4 33
M  V30 37 1 5 34 CFG=1
M  V30 38 1 6 35
M  V30 39 1 6 36
M  V30 40 1 7 37
M  V30 41 1 7 38
M  V30 42 1 8 39 CFG=3
M  V30 43 1 9 40
M  V30 44 1 12 41
M  V30 45 1 13 42
M  V30 46 1 18 43
M  V30 47 1 19 44
M  V30 48 1 20 45
M  V30 49 1 21 46
M  V30 50 1 22 47
M  V30 51 1 26 48
M  V30 52 1 26 49
M  V30 53 1 26 50
M  V30 54 1 28 51
M  V30 55 1 28 52
M  V30 56 1 29 53
M  V30 57 1 29 54
M  V30 END BOND
M  V30 END CTAB
M  END
>  <Dataset>  (147) 
ChEMBL_Kinases

>  <Ligand_Instance>  (147) 
nan

>  <PDB_ID>  (147) 
nan

>  <Standardized_SMILES>  (147) 
CC(=O)N[C@H]1CC[C@H](Nc2nccc(-c3c(-c4ccccc4)noc3C)n2)CC1

>  <Name>  (147) 
nan

>  <Pocket>  (147) 
nan

>  <ATP_Site>  (147) 
nan

>  <Peripheral>  (147) 
nan

>  <Num_H_Atoms_ProtBoundConf>  (147) 
nan

>  <Num_Resolved_Atoms>  (147) 
nan

>  <Num_Not_Resolved_Atoms>  (147) 
nan

$$$$
CHEMBL4585158
     RDKit          3D

  0  0  0  0  0  0  0  0  0  0999 V3000
M  V30 BEGIN CTAB
M  V30 COUNTS 42 44 0 0 0
M  V30 BEGIN ATOM
M  V30 1 C 2.320452 -5.018591 1.850373 0
M  V30 2 O 1.055813 -4.524269 2.308618 0
M  V30 3 C 0.586622 -3.318123 1.792805 0
M  V30 4 C 1.349036 -2.641906 0.863170 0
M  V30 5 C 0.844641 -1.451342 0.379813 0
M  V30 6 N 1.613484 -0.754925 -0.579512 0
M  V30 7 C 1.491003 0.507331 -1.218210 0
M  V30 8 C 1.349596 0.599545 -2.608032 0
M  V30 9 C 1.225197 1.766170 -3.331230 0
M  V30 10 N 1.245007 2.896294 -2.611492 0
M  V30 11 C 1.375849 2.925697 -1.276423 0
M  V30 12 C 1.393002 4.132034 -0.593128 0
M  V30 13 C 1.534142 4.124786 0.781424 0
M  V30 14 C 1.655758 2.948721 1.464416 0
M  V30 15 C 1.800292 3.023251 2.904634 0
M  V30 16 N 1.906293 3.073414 4.056131 0
M  V30 17 C 1.637647 1.752384 0.777226 0
M  V30 18 C 1.497562 1.735743 -0.592497 0
M  V30 19 C -0.377127 -1.014366 0.849836 0
M  V30 20 C -1.144817 -1.686103 1.779754 0
M  V30 21 O -2.369034 -1.201334 2.219255 0
M  V30 22 C -2.800296 0.028086 1.664165 0
M  V30 23 C -0.634258 -2.870354 2.255033 0
M  V30 24 O -1.366430 -3.597360 3.199840 0
M  V30 25 C -2.286742 -4.558672 2.686432 0
M  V30 26 H 2.642816 -5.892656 2.423983 0
M  V30 27 H 3.091049 -4.208098 1.948250 0
M  V30 28 H 2.284326 -5.306908 0.773856 0
M  V30 29 H 2.305790 -2.999341 0.505269 0
M  V30 30 H 2.473679 -1.142389 -0.979268 0
M  V30 31 H 1.338695 -0.352990 -3.156739 0
M  V30 32 H 1.121343 1.709867 -4.408270 0
M  V30 33 H 1.291269 5.039267 -1.198132 0
M  V30 34 H 1.539674 5.103625 1.254954 0
M  V30 35 H 1.742030 0.845305 1.353646 0
M  V30 36 H -0.759354 -0.077006 0.459978 0
M  V30 37 H -3.816411 0.305831 2.008108 0
M  V30 38 H -2.042680 0.781873 1.975232 0
M  V30 39 H -2.795677 0.009857 0.544483 0
M  V30 40 H -2.915673 -4.126694 1.858101 0
M  V30 41 H -1.655128 -5.327705 2.182460 0
M  V30 42 H -2.883548 -5.030493 3.463402 0
M  V30 END ATOM
M  V30 BEGIN BOND
M  V30 1 1 1 2
M  V30 2 1 2 3
M  V30 3 2 3 4
M  V30 4 1 4 5
M  V30 5 1 5 6
M  V30 6 1 6 7
M  V30 7 2 7 8
M  V30 8 1 8 9
M  V30 9 2 9 10
M  V30 10 1 10 11
M  V30 11 2 11 12
M  V30 12 1 12 13
M  V30 13 2 13 14
M  V30 14 1 14 15
M  V30 15 3 15 16
M  V30 16 1 14 17
M  V30 17 2 17 18
M  V30 18 2 5 19
M  V30 19 1 19 20
M  V30 20 1 20 21
M  V30 21 1 21 22
M  V30 22 2 20 23
M  V30 23 1 23 24
M  V30 24 1 24 25
M  V30 25 1 23 3
M  V30 26 1 18 7
M  V30 27 1 18 11
M  V30 28 1 1 26
M  V30 29 1 1 27
M  V30 30 1 1 28
M  V30 31 1 4 29
M  V30 32 1 6 30
M  V30 33 1 8 31
M  V30 34 1 9 32
M  V30 35 1 12 33
M  V30 36 1 13 34
M  V30 37 1 17 35
M  V30 38 1 19 36
M  V30 39 1 22 37
M  V30 40 1 22 38
M  V30 41 1 22 39
M  V30 42 1 25 40
M  V30 43 1 25 41
M  V30 44 1 25 42
M  V30 END BOND
M  V30 END CTAB
M  END
>  <Dataset>  (148) 
ChEMBL_Kinases

>  <Ligand_Instance>  (148) 
nan

>  <PDB_ID>  (148) 
nan

>  <Standardized_SMILES>  (148) 
COc1cc(Nc2ccnc3ccc(C#N)cc23)cc(OC)c1OC

>  <Name>  (148) 
nan

>  <Pocket>  (148) 
nan

>  <ATP_Site>  (148) 
nan

>  <Peripheral>  (148) 
nan

>  <Num_H_Atoms_ProtBoundConf>  (148) 
nan

>  <Num_Resolved_Atoms>  (148) 
nan

>  <Num_Not_Resolved_Atoms>  (148) 
nan

$$$$
CHEMBL2153524
     RDKit          3D

  0  0  0  0  0  0  0  0  0  0999 V3000
M  V30 BEGIN CTAB
M  V30 COUNTS 38 41 0 0 0
M  V30 BEGIN ATOM
M  V30 1 C 1.694934 -5.065802 4.306695 0
M  V30 2 O 1.171167 -4.474947 3.152536 0
M  V30 3 C 1.495311 -3.223647 2.666758 0
M  V30 4 C 2.398070 -2.356675 3.257700 0
M  V30 5 C 2.706975 -1.110207 2.757150 0
M  V30 6 C 2.090580 -0.689184 1.602309 0
M  V30 7 N 2.374345 0.599432 1.076782 0
M  V30 8 C 1.862526 1.210133 -0.114010 0
M  V30 9 N 2.576497 1.518840 -1.213414 0
M  V30 10 C 1.846448 2.092025 -2.215701 0
M  V30 11 N 0.536256 2.335165 -2.135667 0
M  V30 12 C -0.205063 2.039260 -1.053656 0
M  V30 13 C 0.489287 1.471146 -0.046270 0
M  V30 14 S -0.676636 1.177187 1.210194 0
M  V30 15 C -2.110912 1.889935 0.217083 0
M  V30 16 N -3.393869 1.958783 0.663885 0
M  V30 17 C -4.317547 2.514038 -0.204848 0
M  V30 18 C -3.808952 2.924274 -1.415642 0
M  V30 19 C -2.497630 2.814455 -1.783110 0
M  V30 20 C -1.539014 2.277912 -0.972378 0
M  V30 21 C 1.180837 -1.538931 0.988204 0
M  V30 22 C 0.882890 -2.792973 1.510719 0
M  V30 23 O -0.025883 -3.615029 0.881277 0
M  V30 24 C -0.654536 -3.169600 -0.291556 0
M  V30 25 H 2.572418 -4.493873 4.642846 0
M  V30 26 H 0.965229 -5.115122 5.151646 0
M  V30 27 H 2.046243 -6.115399 4.105818 0
M  V30 28 H 2.923472 -2.602826 4.160606 0
M  V30 29 H 3.420817 -0.442801 3.238788 0
M  V30 30 H 3.027302 1.228473 1.566746 0
M  V30 31 H 2.404412 2.356107 -3.126792 0
M  V30 32 H -5.306888 2.539761 0.205377 0
M  V30 33 H -4.552044 3.350510 -2.075600 0
M  V30 34 H -2.234930 3.183632 -2.776790 0
M  V30 35 H 0.669474 -1.256910 0.082783 0
M  V30 36 H -1.255983 -4.029489 -0.702873 0
M  V30 37 H 0.072210 -2.872812 -1.080505 0
M  V30 38 H -1.353093 -2.335975 -0.154908 0
M  V30 END ATOM
M  V30 BEGIN BOND
M  V30 1 1 1 2
M  V30 2 1 2 3
M  V30 3 2 3 4
M  V30 4 1 4 5
M  V30 5 2 5 6
M  V30 6 1 6 7
M  V30 7 1 7 8
M  V30 8 2 8 9
M  V30 9 1 9 10
M  V30 10 2 10 11
M  V30 11 1 11 12
M  V30 12 2 12 13
M  V30 13 1 13 14
M  V30 14 1 14 15
M  V30 15 2 15 16
M  V30 16 1 16 17
M  V30 17 2 17 18
M  V30 18 1 18 19
M  V30 19 2 19 20
M  V30 20 1 6 21
M  V30 21 2 21 22
M  V30 22 1 22 23
M  V30 23 1 23 24
M  V30 24 1 22 3
M  V30 25 1 13 8
M  V30 26 1 20 15
M  V30 27 1 20 12
M  V30 28 1 1 25
M  V30 29 1 1 26
M  V30 30 1 1 27
M  V30 31 1 4 28
M  V30 32 1 5 29
M  V30 33 1 7 30
M  V30 34 1 10 31
M  V30 35 1 17 32
M  V30 36 1 18 33
M  V30 37 1 19 34
M  V30 38 1 21 35
M  V30 39 1 24 36
M  V30 40 1 24 37
M  V30 41 1 24 38
M  V30 END BOND
M  V30 END CTAB
M  END
>  <Dataset>  (149) 
ChEMBL_Kinases

>  <Ligand_Instance>  (149) 
nan

>  <PDB_ID>  (149) 
nan

>  <Standardized_SMILES>  (149) 
COc1ccc(Nc2ncnc3c2sc2ncccc23)cc1OC

>  <Name>  (149) 
nan

>  <Pocket>  (149) 
nan

>  <ATP_Site>  (149) 
nan

>  <Peripheral>  (149) 
nan

>  <Num_H_Atoms_ProtBoundConf>  (149) 
nan

>  <Num_Resolved_Atoms>  (149) 
nan

>  <Num_Not_Resolved_Atoms>  (149) 
nan

$$$$
CHEMBL3092195
     RDKit          3D

  0  0  0  0  0  0  0  0  0  0999 V3000
M  V30 BEGIN CTAB
M  V30 COUNTS 52 55 0 0 0
M  V30 BEGIN ATOM
M  V30 1 C 4.984687 -1.945672 2.985228 0
M  V30 2 N 5.697565 -0.707554 2.906619 0
M  V30 3 S 5.074461 0.494247 3.993131 0
M  V30 4 O 5.124829 -0.077214 5.399849 0
M  V30 5 O 5.908821 1.725205 3.968024 0
M  V30 6 N 3.439308 0.813319 3.558929 0
M  V30 7 C 3.120339 1.336565 2.260760 0
M  V30 8 C 4.088666 1.389325 1.292484 0
M  V30 9 C 3.717426 1.895002 0.065402 0
M  V30 10 C 2.410745 2.304654 -0.089894 0
M  V30 11 C 1.396240 2.270314 0.860102 0
M  V30 12 C 0.079825 2.764077 0.397181 0
M  V30 13 C -0.889936 1.742566 0.017633 0
M  V30 14 C -1.788536 0.968530 0.680170 0
M  V30 15 C -1.937050 1.245655 2.104472 0
M  V30 16 C -2.549123 0.019642 0.042149 0
M  V30 17 C -3.436357 -0.730424 0.781606 0
M  V30 18 C -4.228366 -1.700773 0.192125 0
M  V30 19 C -4.167654 -1.963345 -1.159611 0
M  V30 20 O -4.924279 -2.913174 -1.820101 0
M  V30 21 C -4.411359 -4.218137 -1.913165 0
M  V30 22 N -5.160742 -5.111837 -2.558918 0
M  V30 23 C -4.731236 -6.398714 -2.690728 0
M  V30 24 C -3.518896 -6.753195 -2.147763 0
M  V30 25 C -2.757878 -5.828634 -1.487230 0
M  V30 26 N -3.200473 -4.540395 -1.362165 0
M  V30 27 C -3.273278 -1.202589 -1.881534 0
M  V30 28 C -2.480059 -0.235467 -1.310824 0
M  V30 29 O -1.615410 0.508364 -1.967784 0
M  V30 30 C -0.891532 1.411181 -1.353092 0
M  V30 31 O -0.152054 1.973252 -2.222788 0
M  V30 32 C 1.826763 1.761983 2.048470 0
M  V30 33 F 0.962951 1.691172 3.049631 0
M  V30 34 H 4.269336 -2.015029 2.132695 0
M  V30 35 H 5.710585 -2.789013 2.813539 0
M  V30 36 H 4.385354 -2.089537 3.905023 0
M  V30 37 H 6.708953 -0.900093 3.164088 0
M  V30 38 H 2.687470 0.618722 4.258343 0
M  V30 39 H 5.088530 1.063839 1.451420 0
M  V30 40 H 4.456922 1.948131 -0.711924 0
M  V30 41 H 2.226168 2.694362 -1.106545 0
M  V30 42 H 0.254176 3.434071 -0.469529 0
M  V30 43 H -0.354705 3.479611 1.165637 0
M  V30 44 H -1.543986 2.237851 2.412731 0
M  V30 45 H -1.415992 0.467850 2.690138 0
M  V30 46 H -3.026514 1.164524 2.379515 0
M  V30 47 H -3.595784 -0.649141 1.845230 0
M  V30 48 H -4.932298 -2.303264 0.749705 0
M  V30 49 H -5.255489 -7.217483 -3.197661 0
M  V30 50 H -3.040675 -7.741411 -2.169419 0
M  V30 51 H -1.791970 -5.917440 -1.000237 0
M  V30 52 H -3.184147 -1.371018 -2.967425 0
M  V30 END ATOM
M  V30 BEGIN BOND
M  V30 1 1 1 2
M  V30 2 1 2 3
M  V30 3 2 3 4
M  V30 4 2 3 5
M  V30 5 1 3 6
M  V30 6 1 6 7
M  V30 7 2 7 8
M  V30 8 1 8 9
M  V30 9 2 9 10
M  V30 10 1 10 11
M  V30 11 1 11 12
M  V30 12 1 12 13
M  V30 13 2 13 14
M  V30 14 1 14 15
M  V30 15 1 14 16
M  V30 16 2 16 17
M  V30 17 1 17 18
M  V30 18 2 18 19
M  V30 19 1 19 20
M  V30 20 1 20 21
M  V30 21 2 21 22
M  V30 22 1 22 23
M  V30 23 2 23 24
M  V30 24 1 24 25
M  V30 25 2 25 26
M  V30 26 1 19 27
M  V30 27 2 27 28
M  V30 28 1 28 29
M  V30 29 1 29 30
M  V30 30 2 30 31
M  V30 31 2 11 32
M  V30 32 1 32 33
M  V30 33 1 32 7
M  V30 34 1 30 13
M  V30 35 1 28 16
M  V30 36 1 26 21
M  V30 37 1 1 34
M  V30 38 1 1 35
M  V30 39 1 1 36
M  V30 40 1 2 37
M  V30 41 1 6 38
M  V30 42 1 8 39
M  V30 43 1 9 40
M  V30 44 1 10 41
M  V30 45 1 12 42
M  V30 46 1 12 43
M  V30 47 1 15 44
M  V30 48 1 15 45
M  V30 49 1 15 46
M  V30 50 1 17 47
M  V30 51 1 18 48
M  V30 52 1 23 49
M  V30 53 1 24 50
M  V30 54 1 25 51
M  V30 55 1 27 52
M  V30 END BOND
M  V30 END CTAB
M  END
>  <Dataset>  (150) 
ChEMBL_Kinases

>  <Ligand_Instance>  (150) 
nan

>  <PDB_ID>  (150) 
nan

>  <Standardized_SMILES>  (150) 
CNS(=O)(=O)Nc1cccc(Cc2c(C)c3ccc(Oc4ncccn4)cc3oc2=O)c1F

>  <Name>  (150) 
nan

>  <Pocket>  (150) 
nan

>  <ATP_Site>  (150) 
nan

>  <Peripheral>  (150) 
nan

>  <Num_H_Atoms_ProtBoundConf>  (150) 
nan

>  <Num_Resolved_Atoms>  (150) 
nan

>  <Num_Not_Resolved_Atoms>  (150) 
nan

$$$$
CHEMBL3092196
     RDKit          3D

  0  0  0  0  0  0  0  0  0  0999 V3000
M  V30 BEGIN CTAB
M  V30 COUNTS 50 53 0 0 0
M  V30 BEGIN ATOM
M  V30 1 C 3.124721 -3.426661 2.580667 0
M  V30 2 N 3.674033 -2.430316 3.494076 0
M  V30 3 S 5.301070 -2.032914 3.051214 0
M  V30 4 O 6.131029 -3.304824 3.056746 0
M  V30 5 O 5.898754 -1.075319 4.034691 0
M  V30 6 N 5.252318 -1.361428 1.459078 0
M  V30 7 C 4.512466 -0.168853 1.254962 0
M  V30 8 C 4.541429 0.927103 2.072362 0
M  V30 9 C 3.769730 2.023344 1.760279 0
M  V30 10 C 2.963942 2.056396 0.646536 0
M  V30 11 C 2.879869 0.997289 -0.222675 0
M  V30 12 C 2.057560 0.882290 -1.456705 0
M  V30 13 C 0.760554 0.234055 -1.260016 0
M  V30 14 C -0.376264 0.777861 -0.701666 0
M  V30 15 C -0.342652 2.166465 -0.251927 0
M  V30 16 C -1.503674 -0.030056 -0.602530 0
M  V30 17 C -2.667162 0.491824 -0.040624 0
M  V30 18 C -3.833395 -0.230462 0.101419 0
M  V30 19 C -3.865618 -1.550857 -0.334588 0
M  V30 20 O -4.932087 -2.439813 -0.281663 0
M  V30 21 C -6.185553 -1.931169 0.311833 0
M  V30 22 N -6.838600 -1.158806 0.792453 0
M  V30 23 C -8.083518 -1.210324 1.194093 0
M  V30 24 C -8.691792 -2.388656 1.000907 0
M  V30 25 S -7.351380 -3.428796 0.198379 0
M  V30 26 C -2.740052 -2.086028 -0.888360 0
M  V30 27 C -1.585752 -1.343628 -1.019340 0
M  V30 28 O -0.490272 -1.847683 -1.551282 0
M  V30 29 C 0.592396 -1.091545 -1.652798 0
M  V30 30 O 1.536671 -1.749585 -2.186796 0
M  V30 31 C 3.680949 -0.098123 0.131679 0
M  V30 32 H 3.786832 -4.299134 2.485262 0
M  V30 33 H 2.980549 -2.907767 1.589071 0
M  V30 34 H 2.106894 -3.715465 2.906473 0
M  V30 35 H 3.074645 -1.592503 3.557020 0
M  V30 36 H 5.758465 -1.834117 0.685191 0
M  V30 37 H 5.173511 0.900917 2.946018 0
M  V30 38 H 3.772831 2.915117 2.397019 0
M  V30 39 H 2.368486 2.911113 0.406902 0
M  V30 40 H 1.946209 1.907640 -1.875905 0
M  V30 41 H 2.662273 0.243923 -2.167563 0
M  V30 42 H 0.386147 2.729236 -0.907039 0
M  V30 43 H -0.168725 2.330691 0.816423 0
M  V30 44 H -1.310278 2.717132 -0.459847 0
M  V30 45 H -2.714883 1.509362 0.321465 0
M  V30 46 H -4.746377 0.122293 0.523416 0
M  V30 47 H -8.470027 -0.275365 1.640272 0
M  V30 48 H -9.892813 -2.396222 1.402986 0
M  V30 49 H -2.655456 -3.106800 -1.262033 0
M  V30 50 H 3.653515 -0.972268 -0.526271 0
M  V30 END ATOM
M  V30 BEGIN BOND
M  V30 1 1 1 2
M  V30 2 1 2 3
M  V30 3 2 3 4
M  V30 4 2 3 5
M  V30 5 1 3 6
M  V30 6 1 6 7
M  V30 7 2 7 8
M  V30 8 1 8 9
M  V30 9 2 9 10
M  V30 10 1 10 11
M  V30 11 1 11 12
M  V30 12 1 12 13
M  V30 13 2 13 14
M  V30 14 1 14 15
M  V30 15 1 14 16
M  V30 16 2 16 17
M  V30 17 1 17 18
M  V30 18 2 18 19
M  V30 19 1 19 20
M  V30 20 1 20 21
M  V30 21 2 21 22
M  V30 22 1 22 23
M  V30 23 2 23 24
M  V30 24 1 24 25
M  V30 25 1 19 26
M  V30 26 2 26 27
M  V30 27 1 27 28
M  V30 28 1 28 29
M  V30 29 2 29 30
M  V30 30 2 11 31
M  V30 31 1 31 7
M  V30 32 1 29 13
M  V30 33 1 27 16
M  V30 34 1 25 21
M  V30 35 1 1 32
M  V30 36 1 1 33
M  V30 37 1 1 34
M  V30 38 1 2 35
M  V30 39 1 6 36
M  V30 40 1 8 37
M  V30 41 1 9 38
M  V30 42 1 10 39
M  V30 43 1 12 40
M  V30 44 1 12 41
M  V30 45 1 15 42
M  V30 46 1 15 43
M  V30 47 1 15 44
M  V30 48 1 17 45
M  V30 49 1 18 46
M  V30 50 1 23 47
M  V30 51 1 24 48
M  V30 52 1 26 49
M  V30 53 1 31 50
M  V30 END BOND
M  V30 END CTAB
M  END
>  <Dataset>  (151) 
ChEMBL_Kinases

>  <Ligand_Instance>  (151) 
nan

>  <PDB_ID>  (151) 
nan

>  <Standardized_SMILES>  (151) 
CNS(=O)(=O)Nc1cccc(Cc2c(C)c3ccc(Oc4nccs4)cc3oc2=O)c1

>  <Name>  (151) 
nan

>  <Pocket>  (151) 
nan

>  <ATP_Site>  (151) 
nan

>  <Peripheral>  (151) 
nan

>  <Num_H_Atoms_ProtBoundConf>  (151) 
nan

>  <Num_Resolved_Atoms>  (151) 
nan

>  <Num_Not_Resolved_Atoms>  (151) 
nan

$$$$
CHEMBL3092460
     RDKit          3D

  0  0  0  0  0  0  0  0  0  0999 V3000
M  V30 BEGIN CTAB
M  V30 COUNTS 40 43 0 0 0
M  V30 BEGIN ATOM
M  V30 1 N 2.557379 -7.624276 0.570588 0
M  V30 2 C 2.840177 -6.419100 1.272006 0
M  V30 3 N 3.510409 -6.169295 2.407862 0
M  V30 4 N 3.501839 -4.855770 2.659330 0
M  V30 5 C 2.817217 -4.220528 1.678958 0
M  V30 6 N 2.535933 -2.917702 1.486635 0
M  V30 7 C 1.817981 -2.510982 0.406130 0
M  V30 8 C 1.504656 -1.104850 0.182853 0
M  V30 9 C 0.793488 -0.595572 -0.865945 0
M  V30 10 C 0.544959 0.753963 -0.995665 0
M  V30 11 C 0.994912 1.659952 -0.083843 0
M  V30 12 N 0.795380 3.066819 -0.122796 0
M  V30 13 S -0.769563 3.688554 -0.499544 0
M  V30 14 O -0.754778 5.178582 -0.637350 0
M  V30 15 O -1.190001 3.154660 -1.859162 0
M  V30 16 C -1.972631 3.211029 0.647982 0
M  V30 17 C -1.857601 2.433488 1.778653 0
M  V30 18 C -2.955709 2.169930 2.566849 0
M  V30 19 C -4.212663 2.664308 2.269539 0
M  V30 20 C -4.342663 3.447019 1.136427 0
M  V30 21 Cl -5.944234 4.045058 0.805635 0
M  V30 22 C -3.236917 3.717266 0.335419 0
M  V30 23 Cl -3.602605 4.728538 -1.058143 0
M  V30 24 C 1.724052 1.150477 0.994016 0
M  V30 25 C 1.965720 -0.183528 1.115759 0
M  V30 26 C 1.399057 -3.490646 -0.470201 0
M  V30 27 N 1.684500 -4.802367 -0.272935 0
M  V30 28 C 2.396856 -5.198994 0.800551 0
M  V30 29 H 1.551204 -7.869659 0.524937 0
M  V30 30 H 3.268862 -8.235272 0.127425 0
M  V30 31 H 3.954399 -4.381956 3.487931 0
M  V30 32 H 0.426382 -1.280118 -1.598833 0
M  V30 33 H -0.020163 1.132561 -1.834516 0
M  V30 34 H 1.610220 3.715056 0.080025 0
M  V30 35 H -0.848582 2.089279 1.938298 0
M  V30 36 H -2.724032 1.552610 3.414540 0
M  V30 37 H -5.032835 2.412630 2.940855 0
M  V30 38 H 2.101049 1.825528 1.741000 0
M  V30 39 H 2.546308 -0.523817 1.987234 0
M  V30 40 H 0.825517 -3.261318 -1.352675 0
M  V30 END ATOM
M  V30 BEGIN BOND
M  V30 1 1 1 2
M  V30 2 2 2 3
M  V30 3 1 3 4
M  V30 4 1 4 5
M  V30 5 2 5 6
M  V30 6 1 6 7
M  V30 7 1 7 8
M  V30 8 2 8 9
M  V30 9 1 9 10
M  V30 10 2 10 11
M  V30 11 1 11 12
M  V30 12 1 12 13
M  V30 13 2 13 14
M  V30 14 2 13 15
M  V30 15 1 13 16
M  V30 16 2 16 17
M  V30 17 1 17 18
M  V30 18 2 18 19
M  V30 19 1 19 20
M  V30 20 1 20 21
M  V30 21 2 20 22
M  V30 22 1 22 23
M  V30 23 1 11 24
M  V30 24 2 24 25
M  V30 25 2 7 26
M  V30 26 1 26 27
M  V30 27 2 27 28
M  V30 28 1 28 2
M  V30 29 1 28 5
M  V30 30 1 25 8
M  V30 31 1 22 16
M  V30 32 1 1 29
M  V30 33 1 1 30
M  V30 34 1 4 31
M  V30 35 1 9 32
M  V30 36 1 10 33
M  V30 37 1 12 34
M  V30 38 1 17 35
M  V30 39 1 18 36
M  V30 40 1 19 37
M  V30 41 1 24 38
M  V30 42 1 25 39
M  V30 43 1 26 40
M  V30 END BOND
M  V30 END CTAB
M  END
>  <Dataset>  (152) 
ChEMBL_Kinases

>  <Ligand_Instance>  (152) 
nan

>  <PDB_ID>  (152) 
nan

>  <Standardized_SMILES>  (152) 
Nc1n[nH]c2nc(-c3ccc(NS(=O)(=O)c4cccc(Cl)c4Cl)cc3)cnc12

>  <Name>  (152) 
nan

>  <Pocket>  (152) 
nan

>  <ATP_Site>  (152) 
nan

>  <Peripheral>  (152) 
nan

>  <Num_H_Atoms_ProtBoundConf>  (152) 
nan

>  <Num_Resolved_Atoms>  (152) 
nan

>  <Num_Not_Resolved_Atoms>  (152) 
nan

$$$$
CHEMBL4585481
     RDKit          3D

  0  0  0  0  0  0  0  0  0  0999 V3000
M  V30 BEGIN CTAB
M  V30 COUNTS 60 62 0 0 0
M  V30 BEGIN ATOM
M  V30 1 C 0.228675 2.537825 5.533997 0
M  V30 2 O 1.250849 3.454876 5.263207 0
M  V30 3 C 2.009122 3.515190 4.117655 0
M  V30 4 C 2.981352 4.463106 4.010216 0
M  V30 5 C 3.727047 4.502988 2.853693 0
M  V30 6 C 3.463232 3.586689 1.851419 0
M  V30 7 C 2.467792 2.600944 1.934379 0
M  V30 8 C 2.372225 1.738492 0.735874 0 CFG=1
M  V30 9 C 3.724148 1.237678 0.245691 0
M  V30 10 N 1.492051 0.632998 1.045366 0
M  V30 11 C 0.432492 0.222761 0.152228 0
M  V30 12 O 0.620017 1.071056 -0.796152 0
M  V30 13 C -0.542651 -0.833995 0.303742 0
M  V30 14 C -0.940031 -1.123640 1.584297 0
M  V30 15 C -1.978378 -2.020693 1.710505 0
M  V30 16 C -2.622698 -2.628114 0.671180 0
M  V30 17 C -3.767912 -3.441514 0.891174 0
M  V30 18 C -4.242610 -4.160851 -0.221838 0
M  V30 19 C -5.342699 -5.060812 -0.206299 0
M  V30 20 N -5.906957 -5.163076 1.012902 0
M  V30 21 C -5.550606 -4.542505 2.116838 0
M  V30 22 N -4.677807 -3.997703 1.536368 0
M  V30 23 C -2.164579 -2.289763 -0.571071 0
M  V30 24 C -1.136842 -1.406002 -0.800203 0
M  V30 25 N -0.734813 -1.142619 -2.133824 0
M  V30 26 C -1.174087 -1.639775 -3.402726 0
M  V30 27 C -0.873890 -3.070652 -3.708293 0
M  V30 28 C 0.568340 -3.470407 -3.738118 0
M  V30 29 C 1.313580 -3.298065 -2.440318 0
M  V30 30 N 0.663445 -4.071945 -1.399390 0
M  V30 31 C 1.736850 2.603353 3.135281 0
M  V30 32 H 0.506932 1.487590 5.288938 0
M  V30 33 H -0.086962 2.597123 6.617809 0
M  V30 34 H -0.646117 2.792637 4.920007 0
M  V30 35 H 3.130436 5.158526 4.847065 0
M  V30 36 H 4.490124 5.265872 2.801806 0
M  V30 37 H 4.135691 3.739290 0.988746 0
M  V30 38 H 2.015930 2.408318 -0.071298 0
M  V30 39 H 3.824013 1.282030 -0.859612 0
M  V30 40 H 4.579568 1.736223 0.691140 0
M  V30 41 H 3.759553 0.128757 0.467078 0
M  V30 42 H 1.594197 0.079309 1.934504 0
M  V30 43 H -0.444663 -0.651273 2.415733 0
M  V30 44 H -2.320309 -2.281904 2.706719 0
M  V30 45 H -3.869197 -4.175250 -1.275407 0
M  V30 46 H -5.717601 -5.635062 -1.096370 0
M  V30 47 H -6.018925 -4.641518 3.079685 0
M  V30 48 H -2.630684 -2.711017 -1.437415 0
M  V30 49 H 0.012486 -0.452967 -2.268001 0
M  V30 50 H -0.823220 -1.033996 -4.265842 0
M  V30 51 H -2.314519 -1.566247 -3.474179 0
M  V30 52 H -1.348776 -3.306791 -4.716493 0
M  V30 53 H -1.416004 -3.795020 -3.026047 0
M  V30 54 H 0.684586 -4.537075 -4.044409 0
M  V30 55 H 1.056172 -2.875103 -4.569084 0
M  V30 56 H 2.353778 -3.744462 -2.542469 0
M  V30 57 H 1.409657 -2.250814 -2.143195 0
M  V30 58 H 1.114751 -3.918519 -0.475815 0
M  V30 59 H 0.537882 -5.063018 -1.637201 0
M  V30 60 H 0.993237 1.813568 3.120700 0
M  V30 END ATOM
M  V30 BEGIN BOND
M  V30 1 1 1 2
M  V30 2 1 2 3
M  V30 3 2 3 4
M  V30 4 1 4 5
M  V30 5 2 5 6
M  V30 6 1 6 7
M  V30 7 1 7 8
M  V30 8 1 8 9
M  V30 9 1 8 10
M  V30 10 1 10 11
M  V30 11 2 11 12
M  V30 12 1 11 13
M  V30 13 2 13 14
M  V30 14 1 14 15
M  V30 15 2 15 16
M  V30 16 1 16 17
M  V30 17 2 17 18
M  V30 18 1 18 19
M  V30 19 2 19 20
M  V30 20 1 20 21
M  V30 21 2 21 22
M  V30 22 1 16 23
M  V30 23 2 23 24
M  V30 24 1 24 25
M  V30 25 1 25 26
M  V30 26 1 26 27
M  V30 27 1 27 28
M  V30 28 1 28 29
M  V30 29 1 29 30
M  V30 30 2 7 31
M  V30 31 1 31 3
M  V30 32 1 24 13
M  V30 33 1 22 17
M  V30 34 1 1 32
M  V30 35 1 1 33
M  V30 36 1 1 34
M  V30 37 1 4 35
M  V30 38 1 5 36
M  V30 39 1 6 37
M  V30 40 1 8 38 CFG=3
M  V30 41 1 9 39
M  V30 42 1 9 40
M  V30 43 1 9 41
M  V30 44 1 10 42
M  V30 45 1 14 43
M  V30 46 1 15 44
M  V30 47 1 18 45
M  V30 48 1 19 46
M  V30 49 1 21 47
M  V30 50 1 23 48
M  V30 51 1 25 49
M  V30 52 1 26 50
M  V30 53 1 26 51
M  V30 54 1 27 52
M  V30 55 1 27 53
M  V30 56 1 28 54
M  V30 57 1 28 55
M  V30 58 1 29 56
M  V30 59 1 29 57
M  V30 60 1 30 58
M  V30 61 1 30 59
M  V30 62 1 31 60
M  V30 END BOND
M  V30 END CTAB
M  END
>  <Dataset>  (153) 
ChEMBL_Kinases

>  <Ligand_Instance>  (153) 
nan

>  <PDB_ID>  (153) 
nan

>  <Standardized_SMILES>  (153) 
COc1cccc([C@@H](C)NC(=O)c2ccc(-c3ccncn3)cc2NCCCCN)c1

>  <Name>  (153) 
nan

>  <Pocket>  (153) 
nan

>  <ATP_Site>  (153) 
nan

>  <Peripheral>  (153) 
nan

>  <Num_H_Atoms_ProtBoundConf>  (153) 
nan

>  <Num_Resolved_Atoms>  (153) 
nan

>  <Num_Not_Resolved_Atoms>  (153) 
nan

$$$$
CHEMBL4286011
     RDKit          3D

  0  0  0  0  0  0  0  0  0  0999 V3000
M  V30 BEGIN CTAB
M  V30 COUNTS 50 53 0 0 0
M  V30 BEGIN ATOM
M  V30 1 C 1.329450 -7.157944 0.027338 0
M  V30 2 C 1.370702 -5.676141 0.097607 0
M  V30 3 C 0.783893 -5.069097 1.184816 0
M  V30 4 C 0.840522 -3.702894 1.216606 0
M  V30 5 C 1.386730 -2.816079 0.338134 0
M  V30 6 C 1.436803 -1.382760 0.205780 0
M  V30 7 N 2.275278 -0.934168 -0.696127 0
M  V30 8 C 2.622864 0.369215 -1.116710 0
M  V30 9 C 2.492516 1.501847 -0.296369 0
M  V30 10 N 2.973154 2.552819 -1.002917 0
M  V30 11 N 3.376667 2.094603 -2.196188 0
M  V30 12 C 3.178055 0.747151 -2.311226 0
M  V30 13 C 3.484153 -0.135958 -3.457793 0
M  V30 14 N 1.937683 1.621830 1.039993 0
M  V30 15 C 0.823687 0.766854 1.395990 0
M  V30 16 N -0.070362 1.452308 2.174596 0
M  V30 17 C -1.234314 0.816335 2.507342 0
M  V30 18 N -2.225675 1.441518 3.313045 0
M  V30 19 C -3.240073 2.199951 2.635193 0
M  V30 20 C -3.993357 1.266122 1.686940 0
M  V30 21 C -2.669502 3.321525 1.825794 0
M  V30 22 C -4.261536 2.756234 3.617740 0
M  V30 23 N -1.469065 -0.455584 2.062543 0
M  V30 24 C -0.611225 -1.143905 1.302210 0
M  V30 25 C 0.564317 -0.516945 0.966773 0
M  V30 26 C 1.948283 -3.532905 -0.711911 0
M  V30 27 C 1.966817 -4.900833 -0.872913 0
M  V30 28 H 2.129806 -7.564956 0.679228 0
M  V30 29 H 0.359577 -7.478254 0.462517 0
M  V30 30 H 1.444204 -7.479723 -1.028077 0
M  V30 31 H 0.299388 -5.576989 1.985320 0
M  V30 32 H 0.445611 -3.199640 2.113420 0
M  V30 33 H 3.784384 2.731316 -2.909716 0
M  V30 34 H 2.603576 -0.155909 -4.138861 0
M  V30 35 H 4.328854 0.268505 -4.062274 0
M  V30 36 H 3.681508 -1.163119 -3.122128 0
M  V30 37 H 2.295794 2.297530 1.701902 0
M  V30 38 H -1.915310 1.150688 4.264235 0
M  V30 39 H -4.328563 0.385980 2.284135 0
M  V30 40 H -4.837514 1.792510 1.196693 0
M  V30 41 H -3.283829 0.975304 0.905219 0
M  V30 42 H -3.385309 3.625613 1.027661 0
M  V30 43 H -2.424842 4.218978 2.446303 0
M  V30 44 H -1.719025 3.025902 1.347108 0
M  V30 45 H -4.748430 1.891172 4.147069 0
M  V30 46 H -5.066258 3.194559 2.992144 0
M  V30 47 H -3.836595 3.500147 4.295438 0
M  V30 48 H -0.810198 -2.100965 0.901765 0
M  V30 49 H 2.453136 -3.042010 -1.549682 0
M  V30 50 H 2.415091 -5.421176 -1.706441 0
M  V30 END ATOM
M  V30 BEGIN BOND
M  V30 1 1 1 2
M  V30 2 2 2 3
M  V30 3 1 3 4
M  V30 4 2 4 5
M  V30 5 1 5 6
M  V30 6 2 6 7
M  V30 7 1 7 8
M  V30 8 1 8 9
M  V30 9 2 9 10
M  V30 10 1 10 11
M  V30 11 1 11 12
M  V30 12 1 12 13
M  V30 13 1 9 14
M  V30 14 1 14 15
M  V30 15 2 15 16
M  V30 16 1 16 17
M  V30 17 1 17 18
M  V30 18 1 18 19
M  V30 19 1 19 20
M  V30 20 1 19 21
M  V30 21 1 19 22
M  V30 22 2 17 23
M  V30 23 1 23 24
M  V30 24 2 24 25
M  V30 25 1 5 26
M  V30 26 2 26 27
M  V30 27 1 27 2
M  V30 28 1 25 6
M  V30 29 2 12 8
M  V30 30 1 25 15
M  V30 31 1 1 28
M  V30 32 1 1 29
M  V30 33 1 1 30
M  V30 34 1 3 31
M  V30 35 1 4 32
M  V30 36 1 11 33
M  V30 37 1 13 34
M  V30 38 1 13 35
M  V30 39 1 13 36
M  V30 40 1 14 37
M  V30 41 1 18 38
M  V30 42 1 20 39
M  V30 43 1 20 40
M  V30 44 1 20 41
M  V30 45 1 21 42
M  V30 46 1 21 43
M  V30 47 1 21 44
M  V30 48 1 22 45
M  V30 49 1 22 46
M  V30 50 1 22 47
M  V30 51 1 24 48
M  V30 52 1 26 49
M  V30 53 1 27 50
M  V30 END BOND
M  V30 END CTAB
M  END
>  <Dataset>  (154) 
ChEMBL_Kinases

>  <Ligand_Instance>  (154) 
nan

>  <PDB_ID>  (154) 
nan

>  <Standardized_SMILES>  (154) 
Cc1ccc(C2=Nc3c(n[nH]c3C)Nc3nc(NC(C)(C)C)ncc32)cc1

>  <Name>  (154) 
nan

>  <Pocket>  (154) 
nan

>  <ATP_Site>  (154) 
nan

>  <Peripheral>  (154) 
nan

>  <Num_H_Atoms_ProtBoundConf>  (154) 
nan

>  <Num_Resolved_Atoms>  (154) 
nan

>  <Num_Not_Resolved_Atoms>  (154) 
nan

$$$$
CHEMBL215485
     RDKit          3D

  0  0  0  0  0  0  0  0  0  0999 V3000
M  V30 BEGIN CTAB
M  V30 COUNTS 41 45 0 0 0
M  V30 BEGIN ATOM
M  V30 1 C 1.326025 -1.645012 -3.709216 0
M  V30 2 O 1.487928 -1.259899 -2.356242 0
M  V30 3 C 2.699182 -0.999193 -1.759956 0
M  V30 4 C 3.945770 -1.061554 -2.348304 0
M  V30 5 C 5.100331 -0.775396 -1.643054 0
M  V30 6 C 4.995066 -0.414961 -0.302297 0
M  V30 7 C 3.736461 -0.348856 0.303142 0
M  V30 8 Cl 3.769494 0.117727 1.989606 0
M  V30 9 C 2.586348 -0.643768 -0.435213 0
M  V30 10 C 1.386688 -0.514258 0.383728 0
M  V30 11 C 0.752366 0.710488 0.432366 0
M  V30 12 C -0.384463 0.852674 1.201959 0
M  V30 13 N -1.177849 1.917958 1.417905 0
M  V30 14 C -2.164616 1.499812 2.265954 0
M  V30 15 C -3.201714 2.267047 2.756118 0
M  V30 16 C -4.144932 1.712641 3.618181 0
M  V30 17 C -4.004280 0.364103 3.965414 0
M  V30 18 O -4.936821 -0.189834 4.819651 0
M  V30 19 C -2.941643 -0.326943 3.431573 0
M  V30 20 C -1.998430 0.171897 2.587986 0
M  V30 21 C -0.880758 -0.215292 1.913601 0
M  V30 22 C -0.260499 -1.421285 1.868831 0
M  V30 23 C 0.872122 -1.582812 1.108692 0
M  V30 24 C 1.415213 -2.931757 1.166909 0
M  V30 25 O 2.432179 -3.386367 0.587312 0
M  V30 26 N 0.505205 -3.618045 2.048936 0
M  V30 27 C -0.496224 -2.707597 2.465835 0
M  V30 28 O -1.347324 -3.160954 3.228103 0
M  V30 29 H 1.319916 -2.764933 -3.811994 0
M  V30 30 H 2.082836 -1.198108 -4.387990 0
M  V30 31 H 0.318180 -1.312133 -4.080934 0
M  V30 32 H 3.960242 -1.348470 -3.395437 0
M  V30 33 H 6.065422 -0.832976 -2.132342 0
M  V30 34 H 5.921651 -0.203516 0.197465 0
M  V30 35 H 1.109879 1.586524 -0.115747 0
M  V30 36 H -1.040204 2.868579 1.002976 0
M  V30 37 H -3.306678 3.307897 2.485526 0
M  V30 38 H -4.935877 2.359650 3.971438 0
M  V30 39 H -4.789319 0.010538 5.810300 0
M  V30 40 H -2.906445 -1.340326 3.743158 0
M  V30 41 H 0.682404 -4.639343 2.261145 0
M  V30 END ATOM
M  V30 BEGIN BOND
M  V30 1 1 1 2
M  V30 2 1 2 3
M  V30 3 2 3 4
M  V30 4 1 4 5
M  V30 5 2 5 6
M  V30 6 1 6 7
M  V30 7 1 7 8
M  V30 8 2 7 9
M  V30 9 1 9 10
M  V30 10 2 10 11
M  V30 11 1 11 12
M  V30 12 1 12 13
M  V30 13 1 13 14
M  V30 14 2 14 15
M  V30 15 1 15 16
M  V30 16 2 16 17
M  V30 17 1 17 18
M  V30 18 1 17 19
M  V30 19 2 19 20
M  V30 20 1 20 21
M  V30 21 1 21 22
M  V30 22 2 22 23
M  V30 23 1 23 24
M  V30 24 2 24 25
M  V30 25 1 24 26
M  V30 26 1 26 27
M  V30 27 2 27 28
M  V30 28 1 9 3
M  V30 29 1 23 10
M  V30 30 2 21 12
M  V30 31 1 27 22
M  V30 32 1 20 14
M  V30 33 1 1 29
M  V30 34 1 1 30
M  V30 35 1 1 31
M  V30 36 1 4 32
M  V30 37 1 5 33
M  V30 38 1 6 34
M  V30 39 1 11 35
M  V30 40 1 13 36
M  V30 41 1 15 37
M  V30 42 1 16 38
M  V30 43 1 18 39
M  V30 44 1 19 40
M  V30 45 1 26 41
M  V30 END BOND
M  V30 END CTAB
M  END
>  <Dataset>  (155) 
ChEMBL_Kinases

>  <Ligand_Instance>  (155) 
nan

>  <PDB_ID>  (155) 
nan

>  <Standardized_SMILES>  (155) 
COc1cccc(Cl)c1-c1cc2[nH]c3ccc(O)cc3c2c2c1C(=O)NC2=O

>  <Name>  (155) 
nan

>  <Pocket>  (155) 
nan

>  <ATP_Site>  (155) 
nan

>  <Peripheral>  (155) 
nan

>  <Num_H_Atoms_ProtBoundConf>  (155) 
nan

>  <Num_Resolved_Atoms>  (155) 
nan

>  <Num_Not_Resolved_Atoms>  (155) 
nan

$$$$
CHEMBL3681949
     RDKit          3D

  0  0  0  0  0  0  0  0  0  0999 V3000
M  V30 BEGIN CTAB
M  V30 COUNTS 109 113 0 0 0
M  V30 BEGIN ATOM
M  V30 1 C -1.626623 -2.391932 4.642226 0
M  V30 2 C -2.266827 -1.448931 4.254912 0
M  V30 3 C -3.017000 -0.322405 3.817200 0
M  V30 4 C -2.983855 0.922256 4.462576 0
M  V30 5 C -3.714748 2.042736 4.089022 0
M  V30 6 N -3.536731 3.224636 4.855046 0
M  V30 7 C -2.389125 3.571700 5.620834 0
M  V30 8 N -2.440314 4.554159 6.528345 0
M  V30 9 C -1.374700 4.930753 7.249428 0
M  V30 10 C -0.185883 4.242848 7.009317 0
M  V30 11 C -0.097475 3.233664 6.087417 0
M  V30 12 O 1.151222 2.606225 5.915807 0
M  V30 13 C 1.319329 1.641059 4.935331 0
M  V30 14 C 1.619786 0.304826 5.149454 0
M  V30 15 C 1.768476 -0.584392 4.111886 0
M  V30 16 C 1.634533 -0.227778 2.811015 0
M  V30 17 N 1.742670 -0.978392 1.612459 0
M  V30 18 C 2.796157 -1.254868 0.738917 0
M  V30 19 O 3.969558 -0.870958 0.871082 0
M  V30 20 N 2.318040 -2.042302 -0.335751 0
M  V30 21 C 2.953914 -2.571654 -1.494170 0
M  V30 22 C 3.569463 -3.779582 -1.732563 0
M  V30 23 C 4.116550 -4.028973 -2.970788 0
M  V30 24 C 4.761463 -5.331171 -3.189840 0
M  V30 25 C 3.708006 -6.301813 -3.714429 0
M  V30 26 C 5.423391 -5.894194 -1.958079 0
M  V30 27 C 5.844265 -5.189305 -4.256297 0
M  V30 28 C 4.101301 -3.144496 -4.028651 0
M  V30 29 C 3.470418 -1.920480 -3.764802 0
M  V30 30 N 3.427860 -0.964633 -4.816455 0
M  V30 31 S 3.703399 -1.034214 -6.476208 0
M  V30 32 C 2.132493 -0.764155 -7.314966 0
M  V30 33 O 4.647791 0.008153 -6.989975 0
M  V30 34 O 4.203313 -2.352418 -6.992221 0
M  V30 35 C 2.914001 -1.638220 -2.541893 0
M  V30 36 O 2.316112 -0.363520 -2.435490 0
M  V30 37 C 0.930980 -0.346538 -2.792505 0
M  V30 38 C 1.331691 1.118391 2.546966 0
M  V30 39 C 1.185778 1.619457 1.252560 0
M  V30 40 C 0.906832 2.933009 0.943407 0
M  V30 41 C 0.764221 3.803720 2.000603 0
M  V30 42 C 0.900903 3.345349 3.290076 0
M  V30 43 C 1.183588 2.012264 3.612222 0
M  V30 44 N -1.225496 2.933335 5.418161 0
M  V30 45 C -4.524315 1.903719 3.005388 0
M  V30 46 C -4.614897 0.715327 2.313981 0
M  V30 47 C -5.511705 0.699305 1.171549 0
M  V30 48 O -6.134961 1.725125 0.825405 0
M  V30 49 N -5.757589 -0.438413 0.369631 0
M  V30 50 C -6.613579 -0.637711 -0.805202 0
M  V30 51 C -6.457569 -2.103750 -1.188375 0
M  V30 52 O -5.247184 -2.487682 -1.498741 0
M  V30 53 C -4.449619 -2.285676 -2.504918 0
M  V30 54 C -4.148273 -0.887359 -2.913046 0
M  V30 55 O -3.570141 -0.074867 -1.942505 0
M  V30 56 C -3.331865 1.154660 -2.609080 0
M  V30 57 C -2.721702 2.184255 -1.723162 0
M  V30 58 O -3.532742 2.493522 -0.643788 0
M  V30 59 C -2.909409 3.483545 0.145409 0
M  V30 60 C -3.877410 -0.367755 2.713963 0
M  V30 61 H -1.053273 -3.218551 5.000742 0
M  V30 62 H -2.303675 0.896463 5.316827 0
M  V30 63 H -4.340431 3.897205 4.843492 0
M  V30 64 H -1.415865 5.729785 7.989105 0
M  V30 65 H 0.690909 4.517834 7.570875 0
M  V30 66 H 1.731711 -0.011497 6.159683 0
M  V30 67 H 2.001323 -1.624322 4.242784 0
M  V30 68 H 0.730232 -1.291746 1.568846 0
M  V30 69 H 1.341470 -2.418249 -0.511866 0
M  V30 70 H 3.549064 -4.424237 -0.873748 0
M  V30 71 H 3.326109 -5.928458 -4.689803 0
M  V30 72 H 2.873329 -6.278755 -2.984506 0
M  V30 73 H 4.119461 -7.337219 -3.812577 0
M  V30 74 H 5.448137 -5.178639 -1.114611 0
M  V30 75 H 4.917007 -6.845971 -1.691045 0
M  V30 76 H 6.499391 -6.169554 -2.133103 0
M  V30 77 H 6.611773 -5.964688 -4.070425 0
M  V30 78 H 6.349849 -4.206202 -4.173422 0
M  V30 79 H 5.344965 -5.325784 -5.234830 0
M  V30 80 H 4.556144 -3.427244 -4.964707 0
M  V30 81 H 3.180667 0.027717 -4.614078 0
M  V30 82 H 1.343123 -0.455630 -6.569091 0
M  V30 83 H 2.176508 0.061381 -8.032784 0
M  V30 84 H 1.748051 -1.664843 -7.787980 0
M  V30 85 H 0.374619 -1.177696 -2.315538 0
M  V30 86 H 0.462473 0.635625 -2.664701 0
M  V30 87 H 0.930791 -0.615102 -3.889333 0
M  V30 88 H 1.296086 0.946534 0.409335 0
M  V30 89 H 0.805415 3.257561 -0.079141 0
M  V30 90 H 0.545534 4.826205 1.735838 0
M  V30 91 H 0.778740 4.138498 4.008848 0
M  V30 92 H -5.106553 2.778429 2.699733 0
M  V30 93 H -5.200929 -1.276253 0.720264 0
M  V30 94 H -7.663393 -0.467752 -0.462542 0
M  V30 95 H -6.353307 0.020420 -1.619438 0
M  V30 96 H -7.261176 -2.343283 -1.963777 0
M  V30 97 H -6.783053 -2.641200 -0.225281 0
M  V30 98 H -3.422761 -2.774790 -2.306202 0
M  V30 99 H -4.774663 -2.890390 -3.434526 0
M  V30 100 H -3.340774 -0.891138 -3.735210 0
M  V30 101 H -5.021980 -0.440840 -3.407986 0
M  V30 102 H -2.700556 0.975304 -3.511531 0
M  V30 103 H -4.327471 1.508182 -3.000582 0
M  V30 104 H -2.455022 3.109933 -2.293088 0
M  V30 105 H -1.777699 1.759863 -1.308200 0
M  V30 106 H -2.726547 4.404753 -0.472136 0
M  V30 107 H -3.628409 3.710853 0.956840 0
M  V30 108 H -1.928593 3.148771 0.520354 0
M  V30 109 H -3.916003 -1.308919 2.208207 0
M  V30 END ATOM
M  V30 BEGIN BOND
M  V30 1 3 1 2
M  V30 2 1 2 3
M  V30 3 2 3 4
M  V30 4 1 4 5
M  V30 5 1 5 6
M  V30 6 1 6 7
M  V30 7 2 7 8
M  V30 8 1 8 9
M  V30 9 2 9 10
M  V30 10 1 10 11
M  V30 11 1 11 12
M  V30 12 1 12 13
M  V30 13 2 13 14
M  V30 14 1 14 15
M  V30 15 2 15 16
M  V30 16 1 16 17
M  V30 17 1 17 18
M  V30 18 2 18 19
M  V30 19 1 18 20
M  V30 20 1 20 21
M  V30 21 2 21 22
M  V30 22 1 22 23
M  V30 23 1 23 24
M  V30 24 1 24 25
M  V30 25 1 24 26
M  V30 26 1 24 27
M  V30 27 2 23 28
M  V30 28 1 28 29
M  V30 29 1 29 30
M  V30 30 1 30 31
M  V30 31 1 31 32
M  V30 32 2 31 33
M  V30 33 2 31 34
M  V30 34 2 29 35
M  V30 35 1 35 36
M  V30 36 1 36 37
M  V30 37 1 16 38
M  V30 38 2 38 39
M  V30 39 1 39 40
M  V30 40 2 40 41
M  V30 41 1 41 42
M  V30 42 2 42 43
M  V30 43 2 11 44
M  V30 44 2 5 45
M  V30 45 1 45 46
M  V30 46 1 46 47
M  V30 47 2 47 48
M  V30 48 1 47 49
M  V30 49 1 49 50
M  V30 50 1 50 51
M  V30 51 1 51 52
M  V30 52 1 52 53
M  V30 53 1 53 54
M  V30 54 1 54 55
M  V30 55 1 55 56
M  V30 56 1 56 57
M  V30 57 1 57 58
M  V30 58 1 58 59
M  V30 59 2 46 60
M  V30 60 1 60 3
M  V30 61 1 44 7
M  V30 62 1 43 13
M  V30 63 1 35 21
M  V30 64 1 43 38
M  V30 65 1 1 61
M  V30 66 1 4 62
M  V30 67 1 6 63
M  V30 68 1 9 64
M  V30 69 1 10 65
M  V30 70 1 14 66
M  V30 71 1 15 67
M  V30 72 1 17 68
M  V30 73 1 20 69
M  V30 74 1 22 70
M  V30 75 1 25 71
M  V30 76 1 25 72
M  V30 77 1 25 73
M  V30 78 1 26 74
M  V30 79 1 26 75
M  V30 80 1 26 76
M  V30 81 1 27 77
M  V30 82 1 27 78
M  V30 83 1 27 79
M  V30 84 1 28 80
M  V30 85 1 30 81
M  V30 86 1 32 82
M  V30 87 1 32 83
M  V30 88 1 32 84
M  V30 89 1 37 85
M  V30 90 1 37 86
M  V30 91 1 37 87
M  V30 92 1 39 88
M  V30 93 1 40 89
M  V30 94 1 41 90
M  V30 95 1 42 91
M  V30 96 1 45 92
M  V30 97 1 49 93
M  V30 98 1 50 94
M  V30 99 1 50 95
M  V30 100 1 51 96
M  V30 101 1 51 97
M  V30 102 1 53 98
M  V30 103 1 53 99
M  V30 104 1 54 100
M  V30 105 1 54 101
M  V30 106 1 56 102
M  V30 107 1 56 103
M  V30 108 1 57 104
M  V30 109 1 57 105
M  V30 110 1 59 106
M  V30 111 1 59 107
M  V30 112 1 59 108
M  V30 113 1 60 109
M  V30 END BOND
M  V30 END CTAB
M  END
>  <Dataset>  (156) 
ChEMBL_Kinases

>  <Ligand_Instance>  (156) 
nan

>  <PDB_ID>  (156) 
nan

>  <Standardized_SMILES>  (156) 
C#Cc1cc(Nc2nccc(Oc3ccc(NC(=O)Nc4cc(C(C)(C)C)cc(NS(C)(=O)=O)c4OC)c4ccccc34)n2)cc(C(=O)NCCOCCOCCOC)c1

>  <Name>  (156) 
TOP-1288

>  <Pocket>  (156) 
nan

>  <ATP_Site>  (156) 
nan

>  <Peripheral>  (156) 
nan

>  <Num_H_Atoms_ProtBoundConf>  (156) 
nan

>  <Num_Resolved_Atoms>  (156) 
nan

>  <Num_Not_Resolved_Atoms>  (156) 
nan

$$$$
CHEMBL2153266
     RDKit          3D

  0  0  0  0  0  0  0  0  0  0999 V3000
M  V30 BEGIN CTAB
M  V30 COUNTS 31 34 0 0 0
M  V30 BEGIN ATOM
M  V30 1 N -2.109084 -0.202599 4.349245 0
M  V30 2 C -1.335453 -1.136533 3.606707 0
M  V30 3 N -0.624392 -0.868087 2.495347 0
M  V30 4 C -0.044586 -1.994170 2.101101 0
M  V30 5 C 0.789806 -2.252559 1.015310 0
M  V30 6 C 1.135668 -1.162693 0.109694 0
M  V30 7 C 2.419227 -0.896540 -0.376300 0
M  V30 8 N 2.633859 0.138076 -1.210913 0
M  V30 9 C 1.590595 0.933423 -1.585651 0
M  V30 10 C 1.911182 1.976328 -2.449857 0
M  V30 11 C 0.843941 2.768851 -2.817063 0
M  V30 12 C -0.468071 2.627380 -2.419668 0
M  V30 13 C -0.699875 1.570608 -1.564518 0
M  V30 14 C 0.303465 0.725262 -1.143004 0
M  V30 15 C 0.100235 -0.337603 -0.289419 0
M  V30 16 N 1.246299 -3.528955 0.853337 0
M  V30 17 C 0.913618 -4.518682 1.702220 0
M  V30 18 C 0.087088 -4.244977 2.771033 0
M  V30 19 C -0.422228 -2.971079 3.008928 0
M  V30 20 N -1.226509 -2.433959 3.945951 0
M  V30 21 H -1.549342 0.667191 4.587169 0
M  V30 22 H -3.091183 -0.199009 4.699029 0
M  V30 23 H 3.190857 -1.587290 -0.021177 0
M  V30 24 H 2.904374 2.180691 -2.824708 0
M  V30 25 H 1.080117 3.596207 -3.498617 0
M  V30 26 H -1.232605 3.305227 -2.766509 0
M  V30 27 H -1.725511 1.394171 -1.203796 0
M  V30 28 H -0.922077 -0.514733 0.071114 0
M  V30 29 H 1.282606 -5.534070 1.565077 0
M  V30 30 H -0.208009 -5.020736 3.485129 0
M  V30 31 H -1.619375 -3.003451 4.720275 0
M  V30 END ATOM
M  V30 BEGIN BOND
M  V30 1 1 1 2
M  V30 2 2 2 3
M  V30 3 1 3 4
M  V30 4 2 4 5
M  V30 5 1 5 6
M  V30 6 2 6 7
M  V30 7 1 7 8
M  V30 8 2 8 9
M  V30 9 1 9 10
M  V30 10 2 10 11
M  V30 11 1 11 12
M  V30 12 2 12 13
M  V30 13 1 13 14
M  V30 14 2 14 15
M  V30 15 1 5 16
M  V30 16 2 16 17
M  V30 17 1 17 18
M  V30 18 2 18 19
M  V30 19 1 19 20
M  V30 20 1 20 2
M  V30 21 1 19 4
M  V30 22 1 15 6
M  V30 23 1 14 9
M  V30 24 1 1 21
M  V30 25 1 1 22
M  V30 26 1 7 23
M  V30 27 1 10 24
M  V30 28 1 11 25
M  V30 29 1 12 26
M  V30 30 1 13 27
M  V30 31 1 15 28
M  V30 32 1 17 29
M  V30 33 1 18 30
M  V30 34 1 20 31
M  V30 END BOND
M  V30 END CTAB
M  END
>  <Dataset>  (157) 
ChEMBL_Kinases

>  <Ligand_Instance>  (157) 
nan

>  <PDB_ID>  (157) 
nan

>  <Standardized_SMILES>  (157) 
Nc1nc2c(-c3cnc4ccccc4c3)nccc2[nH]1

>  <Name>  (157) 
nan

>  <Pocket>  (157) 
nan

>  <ATP_Site>  (157) 
nan

>  <Peripheral>  (157) 
nan

>  <Num_H_Atoms_ProtBoundConf>  (157) 
nan

>  <Num_Resolved_Atoms>  (157) 
nan

>  <Num_Not_Resolved_Atoms>  (157) 
nan

$$$$
CHEMBL3681222
     RDKit          3D

  0  0  0  0  0  0  0  0  0  0999 V3000
M  V30 BEGIN CTAB
M  V30 COUNTS 44 47 0 0 0
M  V30 BEGIN ATOM
M  V30 1 N 2.049923 -1.343761 4.030046 0
M  V30 2 C 2.947779 -0.917121 2.994702 0
M  V30 3 N 4.265498 -1.177198 3.040774 0
M  V30 4 C 5.031095 -0.742589 2.031696 0
M  V30 5 N 4.525223 -0.070977 1.002452 0
M  V30 6 N 3.236041 0.225258 0.883996 0
M  V30 7 C 2.467607 0.875091 -0.023242 0
M  V30 8 C 3.048546 1.458750 -1.236599 0
M  V30 9 C 3.963413 0.724105 -1.993763 0
M  V30 10 C 4.527334 1.234530 -3.132420 0
M  V30 11 N 4.180151 2.488056 -3.524885 0
M  V30 12 C 3.299036 3.208036 -2.804182 0
M  V30 13 C 2.700271 2.734701 -1.643102 0
M  V30 14 C 1.154572 0.854324 0.425792 0
M  V30 15 C 1.167450 0.164130 1.642042 0
M  V30 16 C -0.066511 -0.064443 2.430874 0
M  V30 17 O -0.245694 0.785726 3.368885 0
M  V30 18 N -1.012703 -1.131763 2.203233 0
M  V30 19 C -2.128538 -1.147431 3.092417 0
M  V30 20 C -3.038307 -2.306299 2.742053 0
M  V30 21 C -3.569264 -2.218796 1.358567 0
M  V30 22 C -3.042947 -2.728782 0.192105 0
M  V30 23 C -3.692645 -2.543263 -1.000467 0
M  V30 24 C -4.881171 -1.855711 -1.117057 0
M  V30 25 C -5.373044 -1.362987 0.069065 0
M  V30 26 N -4.746580 -1.537527 1.243409 0
M  V30 27 C 2.482592 -0.221120 1.910252 0
M  V30 28 H 2.351742 -0.798555 4.879423 0
M  V30 29 H 1.243307 -1.999566 4.148725 0
M  V30 30 H 6.080028 -0.981970 2.124768 0
M  V30 31 H 4.262241 -0.276149 -1.710731 0
M  V30 32 H 5.240984 0.714151 -3.760301 0
M  V30 33 H 3.082460 4.206055 -3.199153 0
M  V30 34 H 1.997239 3.343931 -1.092650 0
M  V30 35 H 0.361064 1.306717 -0.124429 0
M  V30 36 H -0.665696 -1.696663 1.395349 0
M  V30 37 H -1.860183 -1.284476 4.173599 0
M  V30 38 H -2.763327 -0.240281 3.037717 0
M  V30 39 H -2.382726 -3.221273 2.852905 0
M  V30 40 H -3.864211 -2.319775 3.472695 0
M  V30 41 H -2.118473 -3.260180 0.326066 0
M  V30 42 H -3.168736 -2.994459 -1.831674 0
M  V30 43 H -5.344814 -1.741346 -2.072285 0
M  V30 44 H -6.302139 -0.809921 0.070924 0
M  V30 END ATOM
M  V30 BEGIN BOND
M  V30 1 1 1 2
M  V30 2 2 2 3
M  V30 3 1 3 4
M  V30 4 2 4 5
M  V30 5 1 5 6
M  V30 6 1 6 7
M  V30 7 1 7 8
M  V30 8 2 8 9
M  V30 9 1 9 10
M  V30 10 2 10 11
M  V30 11 1 11 12
M  V30 12 2 12 13
M  V30 13 2 7 14
M  V30 14 1 14 15
M  V30 15 1 15 16
M  V30 16 2 16 17
M  V30 17 1 16 18
M  V30 18 1 18 19
M  V30 19 1 19 20
M  V30 20 1 20 21
M  V30 21 2 21 22
M  V30 22 1 22 23
M  V30 23 2 23 24
M  V30 24 1 24 25
M  V30 25 2 25 26
M  V30 26 2 15 27
M  V30 27 1 27 2
M  V30 28 1 27 6
M  V30 29 1 13 8
M  V30 30 1 26 21
M  V30 31 1 1 28
M  V30 32 1 1 29
M  V30 33 1 4 30
M  V30 34 1 9 31
M  V30 35 1 10 32
M  V30 36 1 12 33
M  V30 37 1 13 34
M  V30 38 1 14 35
M  V30 39 1 18 36
M  V30 40 1 19 37
M  V30 41 1 19 38
M  V30 42 1 20 39
M  V30 43 1 20 40
M  V30 44 1 22 41
M  V30 45 1 23 42
M  V30 46 1 24 43
M  V30 47 1 25 44
M  V30 END BOND
M  V30 END CTAB
M  END
>  <Dataset>  (158) 
ChEMBL_Kinases

>  <Ligand_Instance>  (158) 
nan

>  <PDB_ID>  (158) 
nan

>  <Standardized_SMILES>  (158) 
Nc1ncnn2c(-c3ccncc3)cc(C(=O)NCCc3ccccn3)c12

>  <Name>  (158) 
nan

>  <Pocket>  (158) 
nan

>  <ATP_Site>  (158) 
nan

>  <Peripheral>  (158) 
nan

>  <Num_H_Atoms_ProtBoundConf>  (158) 
nan

>  <Num_Resolved_Atoms>  (158) 
nan

>  <Num_Not_Resolved_Atoms>  (158) 
nan

$$$$
CHEMBL4285588
     RDKit          3D

  0  0  0  0  0  0  0  0  0  0999 V3000
M  V30 BEGIN CTAB
M  V30 COUNTS 49 53 0 0 0
M  V30 BEGIN ATOM
M  V30 1 N -3.595347 -7.117592 -0.084915 0
M  V30 2 C -2.537490 -6.181614 -0.257243 0
M  V30 3 N -2.639526 -5.010242 0.435221 0
M  V30 4 C -1.671925 -4.062418 0.326718 0
M  V30 5 O -1.823244 -2.941796 1.023384 0
M  V30 6 C -0.942912 -1.969867 0.983370 0
M  V30 7 C -1.129703 -0.817950 1.719424 0
M  V30 8 C -0.176942 0.176622 1.645356 0
M  V30 9 C 0.970095 0.117377 0.882794 0
M  V30 10 C 1.981973 1.199120 0.810779 0
M  V30 11 C 1.526146 2.352889 -0.008235 0
M  V30 12 C 0.650303 3.332161 0.684769 0
M  V30 13 C 1.143079 3.742777 2.038256 0
M  V30 14 C 2.469297 3.117184 2.389317 0
M  V30 15 C 2.491255 1.631622 2.130866 0
M  V30 16 O 1.331904 5.122906 2.037118 0
M  V30 17 C 0.019884 5.593170 2.059892 0
M  V30 18 C -0.731778 4.549784 2.843138 0
M  V30 19 O 0.244205 3.581697 3.064167 0
M  V30 20 C 1.086740 -1.080204 0.167121 0
M  V30 21 C 0.177503 -2.115666 0.191703 0
M  V30 22 C 0.400887 -3.252060 -0.559301 0
M  V30 23 O 1.414893 -3.394572 -1.281427 0
M  V30 24 C -0.555836 -4.265244 -0.492730 0
M  V30 25 C -0.433203 -5.442682 -1.201557 0
M  V30 26 C -1.436186 -6.380401 -1.065109 0
M  V30 27 C -1.352592 -7.641164 -1.793694 0
M  V30 28 O -2.256980 -8.503821 -1.679841 0
M  V30 29 O -0.299525 -7.958771 -2.634462 0
M  V30 30 H -3.548280 -8.129337 0.233259 0
M  V30 31 H -4.571535 -6.841043 -0.278609 0
M  V30 32 H -2.012658 -0.726958 2.330557 0
M  V30 33 H -0.376784 1.036213 2.238603 0
M  V30 34 H 2.846739 0.737711 0.232539 0
M  V30 35 H 1.002054 2.028488 -0.932467 0
M  V30 36 H 2.446271 2.910312 -0.329190 0
M  V30 37 H -0.387111 2.927522 0.801055 0
M  V30 38 H 0.540993 4.240951 0.021562 0
M  V30 39 H 2.611729 3.263250 3.481978 0
M  V30 40 H 3.307670 3.643542 1.889569 0
M  V30 41 H 3.554939 1.331629 2.230886 0
M  V30 42 H 1.985882 1.077415 2.980128 0
M  V30 43 H -0.404825 5.736947 1.034133 0
M  V30 44 H -0.070644 6.541199 2.630835 0
M  V30 45 H -1.079005 4.902131 3.839702 0
M  V30 46 H -1.550168 4.074818 2.265201 0
M  V30 47 H 1.984859 -1.182616 -0.459779 0
M  V30 48 H 0.423528 -5.591945 -1.827138 0
M  V30 49 H -0.435729 -8.468922 -3.512106 0
M  V30 END ATOM
M  V30 BEGIN BOND
M  V30 1 1 1 2
M  V30 2 2 2 3
M  V30 3 1 3 4
M  V30 4 1 4 5
M  V30 5 1 5 6
M  V30 6 2 6 7
M  V30 7 1 7 8
M  V30 8 2 8 9
M  V30 9 1 9 10
M  V30 10 1 10 11
M  V30 11 1 11 12
M  V30 12 1 12 13
M  V30 13 1 13 14
M  V30 14 1 14 15
M  V30 15 1 13 16
M  V30 16 1 16 17
M  V30 17 1 17 18
M  V30 18 1 18 19
M  V30 19 1 9 20
M  V30 20 2 20 21
M  V30 21 1 21 22
M  V30 22 2 22 23
M  V30 23 1 22 24
M  V30 24 1 24 25
M  V30 25 2 25 26
M  V30 26 1 26 27
M  V30 27 2 27 28
M  V30 28 1 27 29
M  V30 29 1 26 2
M  V30 30 2 24 4
M  V30 31 1 21 6
M  V30 32 1 15 10
M  V30 33 1 19 13
M  V30 34 1 1 30
M  V30 35 1 1 31
M  V30 36 1 7 32
M  V30 37 1 8 33
M  V30 38 1 10 34
M  V30 39 1 11 35
M  V30 40 1 11 36
M  V30 41 1 12 37
M  V30 42 1 12 38
M  V30 43 1 14 39
M  V30 44 1 14 40
M  V30 45 1 15 41
M  V30 46 1 15 42
M  V30 47 1 17 43
M  V30 48 1 17 44
M  V30 49 1 18 45
M  V30 50 1 18 46
M  V30 51 1 20 47
M  V30 52 1 25 48
M  V30 53 1 29 49
M  V30 END BOND
M  V30 END CTAB
M  END
>  <Dataset>  (159) 
ChEMBL_Kinases

>  <Ligand_Instance>  (159) 
nan

>  <PDB_ID>  (159) 
nan

>  <Standardized_SMILES>  (159) 
Nc1nc2oc3ccc(C4CCC5(CC4)OCCO5)cc3c(=O)c2cc1C(=O)O

>  <Name>  (159) 
nan

>  <Pocket>  (159) 
nan

>  <ATP_Site>  (159) 
nan

>  <Peripheral>  (159) 
nan

>  <Num_H_Atoms_ProtBoundConf>  (159) 
nan

>  <Num_Resolved_Atoms>  (159) 
nan

>  <Num_Not_Resolved_Atoms>  (159) 
nan

$$$$
CHEMBL3681221
     RDKit          3D

  0  0  0  0  0  0  0  0  0  0999 V3000
M  V30 BEGIN CTAB
M  V30 COUNTS 61 63 0 0 0
M  V30 BEGIN ATOM
M  V30 1 C 4.989089 1.056943 3.593977 0
M  V30 2 C 5.665118 0.647554 2.319251 0
M  V30 3 C 7.163167 0.519802 2.475885 0
M  V30 4 C 5.049141 -0.656979 1.845360 0
M  V30 5 O 5.413467 1.643646 1.316073 0
M  V30 6 C 4.100647 1.890479 0.973965 0
M  V30 7 O 3.425730 1.121904 1.682654 0
M  V30 8 N 3.602391 2.815713 0.022462 0
M  V30 9 C 2.176851 2.905219 -0.174282 0
M  V30 10 C 1.569173 1.604422 -0.630031 0
M  V30 11 C 0.078578 1.702481 -0.833607 0
M  V30 12 C -0.687793 2.082345 0.384867 0
M  V30 13 C -2.179639 2.154741 0.082822 0
M  V30 14 N -2.703180 0.887598 -0.384045 0
M  V30 15 C -2.621639 -0.271556 0.433035 0
M  V30 16 O -2.106673 -0.303546 1.593697 0
M  V30 17 C -3.089171 -1.621168 0.135357 0
M  V30 18 C -2.722121 -2.390637 -0.974271 0
M  V30 19 C -3.375509 -3.625166 -0.912141 0
M  V30 20 C -3.303017 -4.748514 -1.844229 0
M  V30 21 C -3.372661 -4.572326 -3.213618 0
M  V30 22 C -3.287493 -5.747381 -3.930906 0
M  V30 23 N -3.149232 -6.975554 -3.399481 0
M  V30 24 C -3.084328 -7.109886 -2.047414 0
M  V30 25 C -3.161252 -5.985605 -1.242462 0
M  V30 26 N -4.126515 -3.613807 0.210396 0
M  V30 27 N -4.930129 -4.559954 0.707356 0
M  V30 28 C -5.570439 -4.272447 1.867975 0
M  V30 29 N -5.443629 -3.100021 2.540896 0
M  V30 30 C -4.618442 -2.150638 2.014314 0
M  V30 31 N -4.499848 -0.927066 2.736676 0
M  V30 32 C -3.960777 -2.433042 0.831872 0
M  V30 33 H 4.080352 0.432301 3.823174 0
M  V30 34 H 5.683331 1.016452 4.476844 0
M  V30 35 H 4.623885 2.105394 3.542787 0
M  V30 36 H 7.592289 1.539765 2.309794 0
M  V30 37 H 7.525232 -0.145290 1.665035 0
M  V30 38 H 7.376150 0.122172 3.495955 0
M  V30 39 H 4.165959 -0.962926 2.442233 0
M  V30 40 H 5.776758 -1.508742 1.961095 0
M  V30 41 H 4.755728 -0.609050 0.779479 0
M  V30 42 H 4.407985 3.338451 -0.432451 0
M  V30 43 H 2.045658 3.602992 -1.054686 0
M  V30 44 H 1.623973 3.375026 0.650060 0
M  V30 45 H 1.769741 0.767582 0.071055 0
M  V30 46 H 1.980170 1.288667 -1.611999 0
M  V30 47 H -0.171480 2.444377 -1.631525 0
M  V30 48 H -0.300519 0.735911 -1.220484 0
M  V30 49 H -0.397973 3.147252 0.619541 0
M  V30 50 H -0.569506 1.422513 1.243960 0
M  V30 51 H -2.699332 2.520099 1.008463 0
M  V30 52 H -2.344004 2.894650 -0.706582 0
M  V30 53 H -3.178998 0.633680 -1.299790 0
M  V30 54 H -2.047044 -2.105662 -1.766658 0
M  V30 55 H -3.481632 -3.603023 -3.638023 0
M  V30 56 H -3.334340 -5.694389 -5.028099 0
M  V30 57 H -2.973651 -8.076185 -1.568445 0
M  V30 58 H -3.106943 -6.114408 -0.161672 0
M  V30 59 H -6.220234 -5.048820 2.260499 0
M  V30 60 H -4.931749 -0.003539 2.436345 0
M  V30 61 H -3.917489 -1.143416 3.587126 0
M  V30 END ATOM
M  V30 BEGIN BOND
M  V30 1 1 1 2
M  V30 2 1 2 3
M  V30 3 1 2 4
M  V30 4 1 2 5
M  V30 5 1 5 6
M  V30 6 2 6 7
M  V30 7 1 6 8
M  V30 8 1 8 9
M  V30 9 1 9 10
M  V30 10 1 10 11
M  V30 11 1 11 12
M  V30 12 1 12 13
M  V30 13 1 13 14
M  V30 14 1 14 15
M  V30 15 2 15 16
M  V30 16 1 15 17
M  V30 17 1 17 18
M  V30 18 2 18 19
M  V30 19 1 19 20
M  V30 20 2 20 21
M  V30 21 1 21 22
M  V30 22 2 22 23
M  V30 23 1 23 24
M  V30 24 2 24 25
M  V30 25 1 19 26
M  V30 26 1 26 27
M  V30 27 2 27 28
M  V30 28 1 28 29
M  V30 29 2 29 30
M  V30 30 1 30 31
M  V30 31 1 30 32
M  V30 32 2 32 17
M  V30 33 1 25 20
M  V30 34 1 32 26
M  V30 35 1 1 33
M  V30 36 1 1 34
M  V30 37 1 1 35
M  V30 38 1 3 36
M  V30 39 1 3 37
M  V30 40 1 3 38
M  V30 41 1 4 39
M  V30 42 1 4 40
M  V30 43 1 4 41
M  V30 44 1 8 42
M  V30 45 1 9 43
M  V30 46 1 9 44
M  V30 47 1 10 45
M  V30 48 1 10 46
M  V30 49 1 11 47
M  V30 50 1 11 48
M  V30 51 1 12 49
M  V30 52 1 12 50
M  V30 53 1 13 51
M  V30 54 1 13 52
M  V30 55 1 14 53
M  V30 56 1 18 54
M  V30 57 1 21 55
M  V30 58 1 22 56
M  V30 59 1 24 57
M  V30 60 1 25 58
M  V30 61 1 28 59
M  V30 62 1 31 60
M  V30 63 1 31 61
M  V30 END BOND
M  V30 END CTAB
M  END
>  <Dataset>  (160) 
ChEMBL_Kinases

>  <Ligand_Instance>  (160) 
nan

>  <PDB_ID>  (160) 
nan

>  <Standardized_SMILES>  (160) 
CC(C)(C)OC(=O)NCCCCCNC(=O)c1cc(-c2ccncc2)n2ncnc(N)c12

>  <Name>  (160) 
nan

>  <Pocket>  (160) 
nan

>  <ATP_Site>  (160) 
nan

>  <Peripheral>  (160) 
nan

>  <Num_H_Atoms_ProtBoundConf>  (160) 
nan

>  <Num_Resolved_Atoms>  (160) 
nan

>  <Num_Not_Resolved_Atoms>  (160) 
nan

$$$$
CHEMBL4285560
     RDKit          3D

  0  0  0  0  0  0  0  0  0  0999 V3000
M  V30 BEGIN CTAB
M  V30 COUNTS 36 38 0 0 0
M  V30 BEGIN ATOM
M  V30 1 C 1.150017 -3.478932 4.268401 0
M  V30 2 C 1.707497 -3.852624 2.912846 0
M  V30 3 C 3.185355 -3.523165 2.958154 0
M  V30 4 C 1.047503 -3.103532 1.817202 0
M  V30 5 C 0.442114 -3.757166 0.741683 0
M  V30 6 C -0.166567 -3.027157 -0.266810 0
M  V30 7 C -0.147309 -1.633155 -0.160457 0
M  V30 8 C -0.746872 -0.882948 -1.152222 0
M  V30 9 O -1.321756 -1.394274 -2.167811 0
M  V30 10 C -0.759839 0.495755 -1.102102 0
M  V30 11 C -1.324976 1.346552 -2.029374 0
M  V30 12 C -1.254467 2.721660 -1.835884 0
M  V30 13 C -1.874271 3.567493 -2.857440 0
M  V30 14 O -2.450670 3.111921 -3.872709 0
M  V30 15 O -1.828726 4.936056 -2.707220 0
M  V30 16 C -0.630580 3.265831 -0.734301 0
M  V30 17 N -0.564033 4.675356 -0.545851 0
M  V30 18 N -0.073014 2.419048 0.180167 0
M  V30 19 C -0.143181 1.071999 -0.011262 0
M  V30 20 O 0.424292 0.351114 0.926852 0
M  V30 21 C 0.455239 -0.962879 0.911053 0
M  V30 22 C 1.050271 -1.726681 1.894298 0
M  V30 23 H 0.049714 -3.549861 4.322789 0
M  V30 24 H 1.480737 -2.455069 4.518663 0
M  V30 25 H 1.597006 -4.162062 5.016561 0
M  V30 26 H 1.635711 -4.952855 2.731226 0
M  V30 27 H 3.551290 -3.966396 3.930041 0
M  V30 28 H 3.774200 -3.976785 2.151983 0
M  V30 29 H 3.356496 -2.429501 3.091733 0
M  V30 30 H 0.445765 -4.837112 0.691217 0
M  V30 31 H -0.649128 -3.471966 -1.120126 0
M  V30 32 H -1.800266 0.858783 -2.872416 0
M  V30 33 H -1.780461 5.584282 -3.481611 0
M  V30 34 H -1.567745 4.907972 -0.353992 0
M  V30 35 H 0.453615 4.871251 -0.679420 0
M  V30 36 H 1.490701 -1.167827 2.681121 0
M  V30 END ATOM
M  V30 BEGIN BOND
M  V30 1 1 1 2
M  V30 2 1 2 3
M  V30 3 1 2 4
M  V30 4 2 4 5
M  V30 5 1 5 6
M  V30 6 2 6 7
M  V30 7 1 7 8
M  V30 8 2 8 9
M  V30 9 1 8 10
M  V30 10 2 10 11
M  V30 11 1 11 12
M  V30 12 1 12 13
M  V30 13 2 13 14
M  V30 14 1 13 15
M  V30 15 2 12 16
M  V30 16 1 16 17
M  V30 17 1 16 18
M  V30 18 2 18 19
M  V30 19 1 19 20
M  V30 20 1 20 21
M  V30 21 2 21 22
M  V30 22 1 22 4
M  V30 23 1 21 7
M  V30 24 1 19 10
M  V30 25 1 1 23
M  V30 26 1 1 24
M  V30 27 1 1 25
M  V30 28 1 2 26
M  V30 29 1 3 27
M  V30 30 1 3 28
M  V30 31 1 3 29
M  V30 32 1 5 30
M  V30 33 1 6 31
M  V30 34 1 11 32
M  V30 35 1 15 33
M  V30 36 1 17 34
M  V30 37 1 17 35
M  V30 38 1 22 36
M  V30 END BOND
M  V30 END CTAB
M  END
>  <Dataset>  (161) 
ChEMBL_Kinases

>  <Ligand_Instance>  (161) 
nan

>  <PDB_ID>  (161) 
nan

>  <Standardized_SMILES>  (161) 
CC(C)c1ccc2c(=O)c3cc(C(=O)O)c(N)nc3oc2c1

>  <Name>  (161) 
nan

>  <Pocket>  (161) 
nan

>  <ATP_Site>  (161) 
nan

>  <Peripheral>  (161) 
nan

>  <Num_H_Atoms_ProtBoundConf>  (161) 
nan

>  <Num_Resolved_Atoms>  (161) 
nan

>  <Num_Not_Resolved_Atoms>  (161) 
nan

$$$$
CHEMBL3681220
     RDKit          3D

  0  0  0  0  0  0  0  0  0  0999 V3000
M  V30 BEGIN CTAB
M  V30 COUNTS 46 49 0 0 0
M  V30 BEGIN ATOM
M  V30 1 N 2.996446 -2.136564 2.825735 0
M  V30 2 C 3.529539 -1.132558 1.976924 0
M  V30 3 N 4.857302 -1.153846 1.779561 0
M  V30 4 C 5.393547 -0.199254 0.967551 0
M  V30 5 N 4.587231 0.718694 0.399075 0
M  V30 6 N 3.275793 0.759815 0.578920 0
M  V30 7 C 2.263199 1.535873 0.150964 0
M  V30 8 C 2.398509 2.682218 -0.745824 0
M  V30 9 C 3.218762 2.519239 -1.873237 0
M  V30 10 C 3.336721 3.605865 -2.710522 0
M  V30 11 N 2.739538 4.798441 -2.542568 0
M  V30 12 C 1.939303 4.968348 -1.448458 0
M  V30 13 C 1.788324 3.908515 -0.578579 0
M  V30 14 C 1.057724 1.107224 0.670519 0
M  V30 15 C 1.356241 -0.004857 1.468252 0
M  V30 16 C 0.359615 -0.780811 2.211985 0
M  V30 17 O 0.445315 -1.042152 3.453175 0
M  V30 18 N -0.746325 -1.235524 1.416306 0
M  V30 19 C -1.955751 -2.009711 1.637546 0 CFG=1
M  V30 20 C -3.188301 -1.326273 1.173873 0
M  V30 21 C -4.392892 -2.114126 1.696737 0
M  V30 22 C -4.048534 -3.588791 1.807921 0 CFG=1
M  V30 23 O -5.232454 -4.300039 1.594974 0
M  V30 24 C -3.072237 -4.005211 0.751006 0
M  V30 25 C -1.763341 -3.281741 0.839838 0
M  V30 26 C 2.723185 -0.186511 1.387375 0
M  V30 27 H 2.488054 -3.035728 2.839178 0
M  V30 28 H 3.222991 -1.811337 3.812531 0
M  V30 29 H 6.457163 -0.146529 0.756338 0
M  V30 30 H 3.740583 1.600070 -2.097430 0
M  V30 31 H 3.940021 3.606767 -3.612659 0
M  V30 32 H 1.381039 5.852497 -1.151590 0
M  V30 33 H 1.161045 3.972856 0.320327 0
M  V30 34 H 0.056125 1.488823 0.542449 0
M  V30 35 H -0.805653 -1.004137 0.378546 0
M  V30 36 H -1.969290 -2.237275 2.720806 0
M  V30 37 H -3.320181 -0.309278 1.570846 0
M  V30 38 H -3.241457 -1.369399 0.063358 0
M  V30 39 H -5.248597 -2.025728 0.992505 0
M  V30 40 H -4.737064 -1.779348 2.682610 0
M  V30 41 H -3.734060 -3.855132 2.848174 0
M  V30 42 H -5.543204 -4.236013 0.664623 0
M  V30 43 H -2.891064 -5.098212 0.819163 0
M  V30 44 H -3.571411 -3.818966 -0.227106 0
M  V30 45 H -1.414918 -3.030534 -0.192459 0
M  V30 46 H -0.948287 -3.916131 1.268641 0
M  V30 END ATOM
M  V30 BEGIN BOND
M  V30 1 1 1 2
M  V30 2 2 2 3
M  V30 3 1 3 4
M  V30 4 2 4 5
M  V30 5 1 5 6
M  V30 6 1 6 7
M  V30 7 1 7 8
M  V30 8 2 8 9
M  V30 9 1 9 10
M  V30 10 2 10 11
M  V30 11 1 11 12
M  V30 12 2 12 13
M  V30 13 2 7 14
M  V30 14 1 14 15
M  V30 15 1 15 16
M  V30 16 2 16 17
M  V30 17 1 16 18
M  V30 18 1 18 19
M  V30 19 1 19 20
M  V30 20 1 20 21
M  V30 21 1 21 22
M  V30 22 1 22 23
M  V30 23 1 22 24
M  V30 24 1 24 25
M  V30 25 2 15 26
M  V30 26 1 26 2
M  V30 27 1 26 6
M  V30 28 1 13 8
M  V30 29 1 25 19
M  V30 30 1 1 27
M  V30 31 1 1 28
M  V30 32 1 4 29
M  V30 33 1 9 30
M  V30 34 1 10 31
M  V30 35 1 12 32
M  V30 36 1 13 33
M  V30 37 1 14 34
M  V30 38 1 18 35
M  V30 39 1 19 36 CFG=1
M  V30 40 1 20 37
M  V30 41 1 20 38
M  V30 42 1 21 39
M  V30 43 1 21 40
M  V30 44 1 22 41 CFG=1
M  V30 45 1 23 42
M  V30 46 1 24 43
M  V30 47 1 24 44
M  V30 48 1 25 45
M  V30 49 1 25 46
M  V30 END BOND
M  V30 END CTAB
M  END
>  <Dataset>  (162) 
ChEMBL_Kinases

>  <Ligand_Instance>  (162) 
nan

>  <PDB_ID>  (162) 
nan

>  <Standardized_SMILES>  (162) 
Nc1ncnn2c(-c3ccncc3)cc(C(=O)N[C@H]3CC[C@@H](O)CC3)c12

>  <Name>  (162) 
nan

>  <Pocket>  (162) 
nan

>  <ATP_Site>  (162) 
nan

>  <Peripheral>  (162) 
nan

>  <Num_H_Atoms_ProtBoundConf>  (162) 
nan

>  <Num_Resolved_Atoms>  (162) 
nan

>  <Num_Not_Resolved_Atoms>  (162) 
nan

$$$$
CHEMBL4285559
     RDKit          3D

  0  0  0  0  0  0  0  0  0  0999 V3000
M  V30 BEGIN CTAB
M  V30 COUNTS 29 31 0 0 0
M  V30 BEGIN ATOM
M  V30 1 N -3.015622 -2.573560 5.497382 0
M  V30 2 C -2.149627 -1.973502 4.554562 0
M  V30 3 C -2.194145 -2.313380 3.220031 0
M  V30 4 C -1.358527 -1.747322 2.250442 0
M  V30 5 C -0.471417 -0.799252 2.774139 0
M  V30 6 C 0.475784 -0.117641 1.842761 0
M  V30 7 C 0.598819 -0.292120 0.534070 0
M  V30 8 C 1.530528 0.430416 -0.152952 0
M  V30 9 C 1.788248 0.350793 -1.602222 0
M  V30 10 C 1.583691 -0.897647 -2.202018 0
M  V30 11 C 1.795663 -1.071341 -3.553249 0
M  V30 12 C 2.211924 0.046253 -4.245156 0
M  V30 13 N 2.410397 1.260158 -3.659418 0
M  V30 14 C 2.205218 1.442351 -2.333010 0
M  V30 15 C 2.314968 1.333677 0.600510 0
M  V30 16 S 1.655484 1.098233 2.332284 0
M  V30 17 C -0.412720 -0.446350 4.108147 0
M  V30 18 N -1.254383 -1.038154 4.987950 0
M  V30 19 H -2.779046 -3.394694 6.090904 0
M  V30 20 H -3.977510 -2.209708 5.654675 0
M  V30 21 H -2.895019 -3.055870 2.833852 0
M  V30 22 H -1.360203 -1.980486 1.215408 0
M  V30 23 H -0.035174 -1.003595 0.011545 0
M  V30 24 H 1.258903 -1.732654 -1.613766 0
M  V30 25 H 1.641903 -2.029671 -4.030736 0
M  V30 26 H 2.396840 -0.029884 -5.322676 0
M  V30 27 H 2.357486 2.401709 -1.847366 0
M  V30 28 H 3.100920 1.995924 0.259035 0
M  V30 29 H 0.299515 0.294918 4.443567 0
M  V30 END ATOM
M  V30 BEGIN BOND
M  V30 1 1 1 2
M  V30 2 2 2 3
M  V30 3 1 3 4
M  V30 4 2 4 5
M  V30 5 1 5 6
M  V30 6 2 6 7
M  V30 7 1 7 8
M  V30 8 1 8 9
M  V30 9 2 9 10
M  V30 10 1 10 11
M  V30 11 2 11 12
M  V30 12 1 12 13
M  V30 13 2 13 14
M  V30 14 2 8 15
M  V30 15 1 15 16
M  V30 16 1 5 17
M  V30 17 2 17 18
M  V30 18 1 18 2
M  V30 19 1 16 6
M  V30 20 1 14 9
M  V30 21 1 1 19
M  V30 22 1 1 20
M  V30 23 1 3 21
M  V30 24 1 4 22
M  V30 25 1 7 23
M  V30 26 1 10 24
M  V30 27 1 11 25
M  V30 28 1 12 26
M  V30 29 1 14 27
M  V30 30 1 15 28
M  V30 31 1 17 29
M  V30 END BOND
M  V30 END CTAB
M  END
>  <Dataset>  (163) 
ChEMBL_Kinases

>  <Ligand_Instance>  (163) 
nan

>  <PDB_ID>  (163) 
nan

>  <Standardized_SMILES>  (163) 
Nc1ccc(-c2cc(-c3cccnc3)cs2)cn1

>  <Name>  (163) 
nan

>  <Pocket>  (163) 
nan

>  <ATP_Site>  (163) 
nan

>  <Peripheral>  (163) 
nan

>  <Num_H_Atoms_ProtBoundConf>  (163) 
nan

>  <Num_Resolved_Atoms>  (163) 
nan

>  <Num_Not_Resolved_Atoms>  (163) 
nan

$$$$
CHEMBL3681219
     RDKit          3D

  0  0  0  0  0  0  0  0  0  0999 V3000
M  V30 BEGIN CTAB
M  V30 COUNTS 54 57 0 0 0
M  V30 BEGIN ATOM
M  V30 1 N 1.277321 -3.783981 3.356936 0
M  V30 2 C 2.013298 -2.587592 3.118806 0
M  V30 3 N 2.925767 -2.178662 4.051043 0
M  V30 4 C 3.625901 -1.031979 3.778846 0
M  V30 5 N 3.416951 -0.341711 2.633294 0
M  V30 6 N 2.510018 -0.781931 1.747615 0
M  V30 7 C 2.160664 -0.256553 0.567385 0
M  V30 8 C 2.670089 0.972360 -0.058822 0
M  V30 9 C 3.284944 1.323569 -1.251149 0
M  V30 10 C 3.492319 2.664576 -1.480952 0
M  V30 11 N 3.152054 3.663791 -0.651286 0
M  V30 12 C 2.546454 3.384684 0.534541 0
M  V30 13 C 2.224073 4.607979 1.299936 0
M  V30 14 C 1.524466 4.251667 2.585904 0
M  V30 15 O 0.321908 3.568055 2.396005 0
M  V30 16 C 2.337614 2.056060 0.772160 0
M  V30 17 C 1.188930 -0.999865 -0.067371 0
M  V30 18 C 0.996624 -1.993474 0.835922 0
M  V30 19 C -0.016946 -3.087494 0.858382 0
M  V30 20 O -0.263099 -4.284218 1.059055 0
M  V30 21 N -1.336225 -2.587273 0.491792 0
M  V30 22 C -2.770749 -2.723927 0.265091 0
M  V30 23 C -3.364845 -1.583524 -0.479394 0
M  V30 24 C -4.621582 -2.072096 -1.150495 0
M  V30 25 C -4.200321 -3.022559 -2.246719 0
M  V30 26 N -3.435430 -2.272590 -3.221983 0
M  V30 27 C -3.408817 -4.185992 -1.694437 0
M  V30 28 C -3.170827 -4.099557 -0.239442 0
M  V30 29 C 1.783978 -1.899914 1.945556 0
M  V30 30 H 1.450674 -4.806836 3.144243 0
M  V30 31 H 0.450378 -3.379932 3.841458 0
M  V30 32 H 4.308917 -0.819543 4.588456 0
M  V30 33 H 3.482211 0.420343 -1.777328 0
M  V30 34 H 3.977612 2.807850 -2.458546 0
M  V30 35 H 3.117311 5.215210 1.566371 0
M  V30 36 H 1.473356 5.215678 0.720757 0
M  V30 37 H 2.149703 3.618986 3.244856 0
M  V30 38 H 1.313288 5.164822 3.188125 0
M  V30 39 H 0.158651 3.062903 3.248380 0
M  V30 40 H 1.857394 1.983685 1.761166 0
M  V30 41 H 0.668490 -0.911534 -0.998102 0
M  V30 42 H -1.295384 -1.534399 0.254313 0
M  V30 43 H -3.190809 -2.742675 1.318464 0
M  V30 44 H -3.647913 -0.750264 0.206400 0
M  V30 45 H -2.665875 -1.196247 -1.275062 0
M  V30 46 H -5.132520 -1.207243 -1.628660 0
M  V30 47 H -5.303909 -2.529136 -0.420327 0
M  V30 48 H -5.140898 -3.346658 -2.749502 0
M  V30 49 H -3.476110 -1.253837 -3.134390 0
M  V30 50 H -2.434094 -2.569985 -3.100885 0
M  V30 51 H -4.053747 -5.094908 -1.898145 0
M  V30 52 H -2.516215 -4.332313 -2.335432 0
M  V30 53 H -4.124404 -4.450485 0.265391 0
M  V30 54 H -2.399683 -4.804788 0.080480 0
M  V30 END ATOM
M  V30 BEGIN BOND
M  V30 1 1 1 2
M  V30 2 2 2 3
M  V30 3 1 3 4
M  V30 4 2 4 5
M  V30 5 1 5 6
M  V30 6 1 6 7
M  V30 7 1 7 8
M  V30 8 2 8 9
M  V30 9 1 9 10
M  V30 10 2 10 11
M  V30 11 1 11 12
M  V30 12 1 12 13
M  V30 13 1 13 14
M  V30 14 1 14 15
M  V30 15 2 12 16
M  V30 16 2 7 17
M  V30 17 1 17 18
M  V30 18 1 18 19
M  V30 19 2 19 20
M  V30 20 1 19 21
M  V30 21 1 21 22
M  V30 22 1 22 23
M  V30 23 1 23 24
M  V30 24 1 24 25
M  V30 25 1 25 26
M  V30 26 1 25 27
M  V30 27 1 27 28
M  V30 28 2 18 29
M  V30 29 1 29 2
M  V30 30 1 29 6
M  V30 31 1 16 8
M  V30 32 1 28 22
M  V30 33 1 1 30
M  V30 34 1 1 31
M  V30 35 1 4 32
M  V30 36 1 9 33
M  V30 37 1 10 34
M  V30 38 1 13 35
M  V30 39 1 13 36
M  V30 40 1 14 37
M  V30 41 1 14 38
M  V30 42 1 15 39
M  V30 43 1 16 40
M  V30 44 1 17 41
M  V30 45 1 21 42
M  V30 46 1 22 43
M  V30 47 1 23 44
M  V30 48 1 23 45
M  V30 49 1 24 46
M  V30 50 1 24 47
M  V30 51 1 25 48
M  V30 52 1 26 49
M  V30 53 1 26 50
M  V30 54 1 27 51
M  V30 55 1 27 52
M  V30 56 1 28 53
M  V30 57 1 28 54
M  V30 END BOND
M  V30 END CTAB
M  END
>  <Dataset>  (164) 
ChEMBL_Kinases

>  <Ligand_Instance>  (164) 
nan

>  <PDB_ID>  (164) 
nan

>  <Standardized_SMILES>  (164) 
Nc1ncnn2c(-c3ccnc(CCO)c3)cc(C(=O)NC3CCC(N)CC3)c12

>  <Name>  (164) 
nan

>  <Pocket>  (164) 
nan

>  <ATP_Site>  (164) 
nan

>  <Peripheral>  (164) 
nan

>  <Num_H_Atoms_ProtBoundConf>  (164) 
nan

>  <Num_Resolved_Atoms>  (164) 
nan

>  <Num_Not_Resolved_Atoms>  (164) 
nan

$$$$
CHEMBL3731114
     RDKit          3D

  0  0  0  0  0  0  0  0  0  0999 V3000
M  V30 BEGIN CTAB
M  V30 COUNTS 38 39 0 0 0
M  V30 BEGIN ATOM
M  V30 1 N -1.231936 3.677501 2.488806 0
M  V30 2 S -0.435743 2.150207 2.617743 0
M  V30 3 O 0.473136 2.123106 3.796683 0
M  V30 4 O 0.417709 2.018350 1.372974 0
M  V30 5 C -1.591325 0.841558 2.657632 0
M  V30 6 C -2.056917 0.443937 3.874721 0
M  V30 7 C -2.961065 -0.578164 3.922510 0
M  V30 8 C -3.393290 -1.192722 2.778875 0
M  V30 9 C -2.954753 -0.832456 1.500949 0
M  V30 10 N -3.403609 -1.465866 0.327880 0
M  V30 11 C -2.960654 -1.115771 -1.007697 0
M  V30 12 C -1.504882 -1.340396 -1.075131 0
M  V30 13 O -0.513251 -1.722680 -0.402154 0
M  V30 14 N -0.989513 -1.014551 -2.370076 0
M  V30 15 N 0.359818 -1.128145 -2.729243 0
M  V30 16 C 0.979015 -2.246424 -2.885599 0
M  V30 17 C 2.386073 -2.507631 -3.258999 0
M  V30 18 C 2.845869 -3.806184 -3.371387 0
M  V30 19 C 4.172999 -3.952990 -3.724366 0
M  V30 20 N 5.003847 -2.918855 -3.954288 0
M  V30 21 C 4.535390 -1.672285 -3.839175 0
M  V30 22 C 3.210876 -1.419288 -3.487738 0
M  V30 23 C -2.045029 0.203880 1.525517 0
M  V30 24 H -2.087575 3.632807 3.098366 0
M  V30 25 H -1.489753 3.861405 1.500786 0
M  V30 26 H -1.795687 0.844902 4.839751 0
M  V30 27 H -3.388952 -0.963025 4.860579 0
M  V30 28 H -4.122946 -2.016015 2.831725 0
M  V30 29 H -4.104635 -2.239043 0.455021 0
M  V30 30 H -3.500993 -1.724286 -1.750667 0
M  V30 31 H -3.247476 -0.058126 -1.154981 0
M  V30 32 H -1.425057 -0.653579 -3.271043 0
M  V30 33 H 0.325888 -3.095979 -2.704567 0
M  V30 34 H 2.163837 -4.612076 -3.182983 0
M  V30 35 H 4.554360 -4.975118 -3.818017 0
M  V30 36 H 5.254993 -0.878758 -4.037500 0
M  V30 37 H 2.914405 -0.397328 -3.416737 0
M  V30 38 H -1.635287 0.571392 0.597104 0
M  V30 END ATOM
M  V30 BEGIN BOND
M  V30 1 1 1 2
M  V30 2 2 2 3
M  V30 3 2 2 4
M  V30 4 1 2 5
M  V30 5 2 5 6
M  V30 6 1 6 7
M  V30 7 2 7 8
M  V30 8 1 8 9
M  V30 9 1 9 10
M  V30 10 1 10 11
M  V30 11 1 11 12
M  V30 12 2 12 13
M  V30 13 1 12 14
M  V30 14 1 14 15
M  V30 15 2 15 16
M  V30 16 1 16 17
M  V30 17 2 17 18
M  V30 18 1 18 19
M  V30 19 2 19 20
M  V30 20 1 20 21
M  V30 21 2 21 22
M  V30 22 2 9 23
M  V30 23 1 23 5
M  V30 24 1 22 17
M  V30 25 1 1 24
M  V30 26 1 1 25
M  V30 27 1 6 26
M  V30 28 1 7 27
M  V30 29 1 8 28
M  V30 30 1 10 29
M  V30 31 1 11 30
M  V30 32 1 11 31
M  V30 33 1 14 32
M  V30 34 1 16 33
M  V30 35 1 18 34
M  V30 36 1 19 35
M  V30 37 1 21 36
M  V30 38 1 22 37
M  V30 39 1 23 38
M  V30 END BOND
M  V30 END CTAB
M  END
>  <Dataset>  (165) 
ChEMBL_Kinases

>  <Ligand_Instance>  (165) 
nan

>  <PDB_ID>  (165) 
nan

>  <Standardized_SMILES>  (165) 
NS(=O)(=O)c1cccc(NCC(=O)N/N=C/c2ccncc2)c1

>  <Name>  (165) 
nan

>  <Pocket>  (165) 
nan

>  <ATP_Site>  (165) 
nan

>  <Peripheral>  (165) 
nan

>  <Num_H_Atoms_ProtBoundConf>  (165) 
nan

>  <Num_Resolved_Atoms>  (165) 
nan

>  <Num_Not_Resolved_Atoms>  (165) 
nan

$$$$
CHEMBL3729597
     RDKit          3D

  0  0  0  0  0  0  0  0  0  0999 V3000
M  V30 BEGIN CTAB
M  V30 COUNTS 47 49 0 0 0
M  V30 BEGIN ATOM
M  V30 1 C 1.267866 -3.997662 0.113092 0
M  V30 2 C -0.069239 -4.085498 -0.481174 0
M  V30 3 N -0.229898 -3.425111 -1.559889 0
M  V30 4 N 0.827440 -2.665036 -2.126513 0
M  V30 5 C 0.809312 -1.300453 -1.658557 0
M  V30 6 O -0.174939 -1.215498 -0.867375 0
M  V30 7 C 1.890279 -0.416446 -2.202144 0
M  V30 8 N 1.716060 0.896091 -1.624388 0
M  V30 9 C 1.823139 1.099910 -0.222813 0
M  V30 10 C 2.107780 0.089113 0.664161 0
M  V30 11 C 2.219759 0.230877 2.032165 0
M  V30 12 C 2.035124 1.480653 2.577315 0
M  V30 13 C 1.745619 2.532276 1.717617 0
M  V30 14 O 1.573989 3.761548 2.350694 0
M  V30 15 C 0.283815 4.128183 2.781692 0
M  V30 16 C -0.181663 3.810702 4.038648 0
M  V30 17 C -1.468545 4.195998 4.420391 0
M  V30 18 C -2.268701 4.892497 3.538490 0
M  V30 19 C -1.790220 5.211440 2.264739 0
M  V30 20 C -0.506902 4.831546 1.873584 0
M  V30 21 C 1.646795 2.326175 0.358263 0
M  V30 22 C -1.132372 -4.859500 0.105294 0
M  V30 23 C -2.385299 -4.929242 -0.468336 0
M  V30 24 C -3.437215 -5.659986 0.060098 0
M  V30 25 N -3.266213 -6.349888 1.189311 0
M  V30 26 C -2.043174 -6.311764 1.794231 0
M  V30 27 C -0.987533 -5.576519 1.261039 0
M  V30 28 H 2.055242 -3.861897 -0.640962 0
M  V30 29 H 1.295282 -3.244418 0.914166 0
M  V30 30 H 1.506856 -4.974727 0.620916 0
M  V30 31 H 1.518138 -3.099776 -2.806388 0
M  V30 32 H 1.820016 -0.305643 -3.303613 0
M  V30 33 H 2.894042 -0.839320 -1.986694 0
M  V30 34 H 1.505283 1.742385 -2.213880 0
M  V30 35 H 2.270099 -0.921181 0.316186 0
M  V30 36 H 2.444338 -0.587795 2.693363 0
M  V30 37 H 2.118885 1.608081 3.640431 0
M  V30 38 H 0.489369 3.260616 4.694584 0
M  V30 39 H -1.829816 3.945535 5.406036 0
M  V30 40 H -3.260164 5.171674 3.875655 0
M  V30 41 H -2.480797 5.762309 1.626622 0
M  V30 42 H -0.166256 5.089592 0.890930 0
M  V30 43 H 1.418028 3.194861 -0.249163 0
M  V30 44 H -2.567858 -4.375010 -1.399460 0
M  V30 45 H -4.416823 -5.709350 -0.396039 0
M  V30 46 H -1.988018 -6.903429 2.713483 0
M  V30 47 H -0.040823 -5.591183 1.795789 0
M  V30 END ATOM
M  V30 BEGIN BOND
M  V30 1 1 1 2
M  V30 2 2 2 3
M  V30 3 1 3 4
M  V30 4 1 4 5
M  V30 5 2 5 6
M  V30 6 1 5 7
M  V30 7 1 7 8
M  V30 8 1 8 9
M  V30 9 2 9 10
M  V30 10 1 10 11
M  V30 11 2 11 12
M  V30 12 1 12 13
M  V30 13 1 13 14
M  V30 14 1 14 15
M  V30 15 2 15 16
M  V30 16 1 16 17
M  V30 17 2 17 18
M  V30 18 1 18 19
M  V30 19 2 19 20
M  V30 20 2 13 21
M  V30 21 1 2 22
M  V30 22 2 22 23
M  V30 23 1 23 24
M  V30 24 2 24 25
M  V30 25 1 25 26
M  V30 26 2 26 27
M  V30 27 1 21 9
M  V30 28 1 27 22
M  V30 29 1 20 15
M  V30 30 1 1 28
M  V30 31 1 1 29
M  V30 32 1 1 30
M  V30 33 1 4 31
M  V30 34 1 7 32
M  V30 35 1 7 33
M  V30 36 1 8 34
M  V30 37 1 10 35
M  V30 38 1 11 36
M  V30 39 1 12 37
M  V30 40 1 16 38
M  V30 41 1 17 39
M  V30 42 1 18 40
M  V30 43 1 19 41
M  V30 44 1 20 42
M  V30 45 1 21 43
M  V30 46 1 23 44
M  V30 47 1 24 45
M  V30 48 1 26 46
M  V30 49 1 27 47
M  V30 END BOND
M  V30 END CTAB
M  END
>  <Dataset>  (166) 
ChEMBL_Kinases

>  <Ligand_Instance>  (166) 
nan

>  <PDB_ID>  (166) 
nan

>  <Standardized_SMILES>  (166) 
C/C(=N\NC(=O)CNc1cccc(Oc2ccccc2)c1)c1ccncc1

>  <Name>  (166) 
nan

>  <Pocket>  (166) 
nan

>  <ATP_Site>  (166) 
nan

>  <Peripheral>  (166) 
nan

>  <Num_H_Atoms_ProtBoundConf>  (166) 
nan

>  <Num_Resolved_Atoms>  (166) 
nan

>  <Num_Not_Resolved_Atoms>  (166) 
nan

$$$$
CHEMBL3729682
     RDKit          3D

  0  0  0  0  0  0  0  0  0  0999 V3000
M  V30 BEGIN CTAB
M  V30 COUNTS 40 41 0 0 0
M  V30 BEGIN ATOM
M  V30 1 C 3.621061 -7.081064 -1.127594 0
M  V30 2 N 3.419124 -5.716041 -0.683959 0
M  V30 3 C 2.602379 -4.717187 -1.298237 0
M  V30 4 O 2.032445 -5.179230 -2.344398 0
M  V30 5 C 2.485363 -3.385662 -0.753143 0
M  V30 6 C 3.124950 -2.940524 0.383682 0
M  V30 7 C 2.921734 -1.635383 0.793687 0
M  V30 8 C 2.092465 -0.782712 0.081970 0
M  V30 9 C 1.431325 -1.183043 -1.061186 0
M  V30 10 N 0.583402 -0.325245 -1.793335 0
M  V30 11 C 0.343723 1.026227 -1.395683 0
M  V30 12 C -0.285428 1.163793 -0.055562 0
M  V30 13 O -0.703394 0.464241 0.902190 0
M  V30 14 N -0.495795 2.550081 0.278728 0
M  V30 15 N -1.089970 2.860758 1.529326 0
M  V30 16 C -2.351563 2.776012 1.720774 0
M  V30 17 C -2.941474 3.100687 3.016017 0
M  V30 18 C -2.074626 3.500531 4.014679 0
M  V30 19 C -2.639047 3.805558 5.235830 0
M  V30 20 N -3.963160 3.728237 5.476116 0
M  V30 21 C -4.786156 3.329529 4.464727 0
M  V30 22 C -4.306005 3.001220 3.198074 0
M  V30 23 C 1.665802 -2.491721 -1.429169 0
M  V30 24 H 3.020209 -7.348606 -2.021207 0
M  V30 25 H 4.712225 -7.295679 -1.286639 0
M  V30 26 H 3.327620 -7.795028 -0.317175 0
M  V30 27 H 3.960265 -5.521464 0.179204 0
M  V30 28 H 3.760192 -3.628708 0.910282 0
M  V30 29 H 3.460124 -1.359208 1.698218 0
M  V30 30 H 1.991331 0.203201 0.463102 0
M  V30 31 H 0.127682 -0.728542 -2.658046 0
M  V30 32 H 1.333181 1.569009 -1.426011 0
M  V30 33 H -0.280912 1.524411 -2.164766 0
M  V30 34 H -0.262164 3.392117 -0.294873 0
M  V30 35 H -2.998307 2.452353 0.891390 0
M  V30 36 H -0.997611 3.565668 3.826566 0
M  V30 37 H -1.996037 4.127746 6.061352 0
M  V30 38 H -5.866861 3.261753 4.645540 0
M  V30 39 H -4.917877 2.686424 2.385867 0
M  V30 40 H 1.143261 -2.822956 -2.340509 0
M  V30 END ATOM
M  V30 BEGIN BOND
M  V30 1 1 1 2
M  V30 2 1 2 3
M  V30 3 2 3 4
M  V30 4 1 3 5
M  V30 5 2 5 6
M  V30 6 1 6 7
M  V30 7 2 7 8
M  V30 8 1 8 9
M  V30 9 1 9 10
M  V30 10 1 10 11
M  V30 11 1 11 12
M  V30 12 2 12 13
M  V30 13 1 12 14
M  V30 14 1 14 15
M  V30 15 2 15 16
M  V30 16 1 16 17
M  V30 17 2 17 18
M  V30 18 1 18 19
M  V30 19 2 19 20
M  V30 20 1 20 21
M  V30 21 2 21 22
M  V30 22 2 9 23
M  V30 23 1 23 5
M  V30 24 1 22 17
M  V30 25 1 1 24
M  V30 26 1 1 25
M  V30 27 1 1 26
M  V30 28 1 2 27
M  V30 29 1 6 28
M  V30 30 1 7 29
M  V30 31 1 8 30
M  V30 32 1 10 31
M  V30 33 1 11 32
M  V30 34 1 11 33
M  V30 35 1 14 34
M  V30 36 1 16 35
M  V30 37 1 18 36
M  V30 38 1 19 37
M  V30 39 1 21 38
M  V30 40 1 22 39
M  V30 41 1 23 40
M  V30 END BOND
M  V30 END CTAB
M  END
>  <Dataset>  (167) 
ChEMBL_Kinases

>  <Ligand_Instance>  (167) 
nan

>  <PDB_ID>  (167) 
nan

>  <Standardized_SMILES>  (167) 
CNC(=O)c1cccc(NCC(=O)N/N=C/c2ccncc2)c1

>  <Name>  (167) 
nan

>  <Pocket>  (167) 
nan

>  <ATP_Site>  (167) 
nan

>  <Peripheral>  (167) 
nan

>  <Num_H_Atoms_ProtBoundConf>  (167) 
nan

>  <Num_Resolved_Atoms>  (167) 
nan

>  <Num_Not_Resolved_Atoms>  (167) 
nan

$$$$
CHEMBL3092181
     RDKit          3D

  0  0  0  0  0  0  0  0  0  0999 V3000
M  V30 BEGIN CTAB
M  V30 COUNTS 55 57 0 0 0
M  V30 BEGIN ATOM
M  V30 1 C 3.065288 -1.047668 3.556632 0
M  V30 2 N 2.963520 -0.580765 4.905521 0
M  V30 3 S 3.769691 0.914305 5.130584 0
M  V30 4 O 5.230434 0.798832 4.771362 0
M  V30 5 O 3.721658 1.327880 6.567992 0
M  V30 6 N 3.116738 2.166365 4.173498 0
M  V30 7 C 3.052534 2.237268 2.757367 0
M  V30 8 C 4.133239 1.917585 1.968351 0
M  V30 9 C 4.057697 1.993666 0.590995 0
M  V30 10 C 2.884267 2.395174 0.001722 0
M  V30 11 C 1.758781 2.730329 0.764740 0
M  V30 12 C 0.573291 3.150915 -0.022182 0
M  V30 13 C -0.170007 1.949676 -0.459701 0
M  V30 14 C -1.027737 1.158614 0.267385 0
M  V30 15 C -1.283849 1.555724 1.657603 0
M  V30 16 C -1.607203 0.062845 -0.332412 0
M  V30 17 C -2.467016 -0.739147 0.385176 0
M  V30 18 C -3.106395 -1.859655 -0.102860 0
M  V30 19 C -3.987879 -2.660932 0.673624 0
M  V30 20 N -4.697097 -3.303240 1.285908 0
M  V30 21 C -2.876087 -2.223271 -1.422046 0
M  V30 22 O -3.460299 -3.326574 -2.026438 0
M  V30 23 C -2.912067 -4.613247 -1.946460 0
M  V30 24 O -1.840271 -4.713800 -1.285350 0
M  V30 25 N -3.509176 -5.753627 -2.564642 0
M  V30 26 C -2.650609 -6.892664 -2.254806 0
M  V30 27 C -4.742465 -5.559981 -3.309310 0
M  V30 28 C -2.017057 -1.434401 -2.161614 0
M  V30 29 C -1.399415 -0.325562 -1.638367 0
M  V30 30 O -0.570408 0.438296 -2.346027 0
M  V30 31 C -0.013241 1.487860 -1.775716 0
M  V30 32 O 0.734114 2.069156 -2.622908 0
M  V30 33 C 1.900046 2.633633 2.125474 0
M  V30 34 H 4.068981 -0.716111 3.167006 0
M  V30 35 H 3.134809 -2.168324 3.550123 0
M  V30 36 H 2.283373 -0.664927 2.880384 0
M  V30 37 H 3.320107 -1.324805 5.540752 0
M  V30 38 H 2.692375 3.024793 4.613490 0
M  V30 39 H 5.027728 1.608390 2.512382 0
M  V30 40 H 4.968123 1.719397 0.078445 0
M  V30 41 H 2.974169 2.407772 -1.079213 0
M  V30 42 H 0.912851 3.685252 -0.942463 0
M  V30 43 H -0.070263 3.856712 0.548346 0
M  V30 44 H -1.148682 2.645973 1.826827 0
M  V30 45 H -2.389442 1.402053 1.845719 0
M  V30 46 H -0.759904 0.906149 2.367944 0
M  V30 47 H -2.699743 -0.531676 1.415783 0
M  V30 48 H -2.505817 -6.998978 -1.158192 0
M  V30 49 H -3.035532 -7.824701 -2.709370 0
M  V30 50 H -1.645023 -6.690042 -2.672633 0
M  V30 51 H -5.542348 -5.228096 -2.616303 0
M  V30 52 H -4.993893 -6.511262 -3.828999 0
M  V30 53 H -4.529327 -4.742828 -4.048138 0
M  V30 54 H -1.776327 -1.646599 -3.209701 0
M  V30 55 H 1.035848 2.897334 2.711969 0
M  V30 END ATOM
M  V30 BEGIN BOND
M  V30 1 1 1 2
M  V30 2 1 2 3
M  V30 3 2 3 4
M  V30 4 2 3 5
M  V30 5 1 3 6
M  V30 6 1 6 7
M  V30 7 2 7 8
M  V30 8 1 8 9
M  V30 9 2 9 10
M  V30 10 1 10 11
M  V30 11 1 11 12
M  V30 12 1 12 13
M  V30 13 2 13 14
M  V30 14 1 14 15
M  V30 15 1 14 16
M  V30 16 2 16 17
M  V30 17 1 17 18
M  V30 18 1 18 19
M  V30 19 3 19 20
M  V30 20 2 18 21
M  V30 21 1 21 22
M  V30 22 1 22 23
M  V30 23 2 23 24
M  V30 24 1 23 25
M  V30 25 1 25 26
M  V30 26 1 25 27
M  V30 27 1 21 28
M  V30 28 2 28 29
M  V30 29 1 29 30
M  V30 30 1 30 31
M  V30 31 2 31 32
M  V30 32 2 11 33
M  V30 33 1 33 7
M  V30 34 1 31 13
M  V30 35 1 29 16
M  V30 36 1 1 34
M  V30 37 1 1 35
M  V30 38 1 1 36
M  V30 39 1 2 37
M  V30 40 1 6 38
M  V30 41 1 8 39
M  V30 42 1 9 40
M  V30 43 1 10 41
M  V30 44 1 12 42
M  V30 45 1 12 43
M  V30 46 1 15 44
M  V30 47 1 15 45
M  V30 48 1 15 46
M  V30 49 1 17 47
M  V30 50 1 26 48
M  V30 51 1 26 49
M  V30 52 1 26 50
M  V30 53 1 27 51
M  V30 54 1 27 52
M  V30 55 1 27 53
M  V30 56 1 28 54
M  V30 57 1 33 55
M  V30 END BOND
M  V30 END CTAB
M  END
>  <Dataset>  (168) 
ChEMBL_Kinases

>  <Ligand_Instance>  (168) 
nan

>  <PDB_ID>  (168) 
nan

>  <Standardized_SMILES>  (168) 
CNS(=O)(=O)Nc1cccc(Cc2c(C)c3cc(C#N)c(OC(=O)N(C)C)cc3oc2=O)c1

>  <Name>  (168) 
nan

>  <Pocket>  (168) 
nan

>  <ATP_Site>  (168) 
nan

>  <Peripheral>  (168) 
nan

>  <Num_H_Atoms_ProtBoundConf>  (168) 
nan

>  <Num_Resolved_Atoms>  (168) 
nan

>  <Num_Not_Resolved_Atoms>  (168) 
nan

$$$$
CHEMBL3729812
     RDKit          3D

  0  0  0  0  0  0  0  0  0  0999 V3000
M  V30 BEGIN CTAB
M  V30 COUNTS 49 53 0 0 0
M  V30 BEGIN ATOM
M  V30 1 C -4.047671 -3.250982 0.923638 0
M  V30 2 N -2.896253 -2.462038 0.634994 0
M  V30 3 C -2.073052 -3.038127 -0.379939 0
M  V30 4 C -0.748093 -2.370083 -0.532162 0
M  V30 5 N -0.857511 -1.008676 0.019079 0
M  V30 6 C 0.312356 -0.256272 0.238051 0
M  V30 7 N 0.442177 0.693831 -0.691856 0
M  V30 8 C 1.445716 1.559958 -0.817544 0
M  V30 9 C 1.592385 2.596685 -1.827740 0
M  V30 10 C 0.645205 2.776128 -2.795302 0
M  V30 11 C 0.759154 3.756927 -3.771009 0
M  V30 12 N 1.858607 4.565916 -3.756223 0
M  V30 13 C 2.813142 4.413723 -2.812363 0
M  V30 14 C 2.701944 3.439655 -1.841747 0
M  V30 15 N 2.406350 1.427167 0.110842 0
M  V30 16 C 2.345114 0.494500 1.079048 0
M  V30 17 S 3.452282 0.079996 2.442361 0
M  V30 18 C 2.379546 -1.308274 3.089005 0
M  V30 19 C 1.286361 -1.312639 2.197972 0
M  V30 20 C 1.281683 -0.404080 1.192534 0
M  V30 21 C 0.376957 -2.378662 2.676593 0
M  V30 22 C 0.192012 -2.323606 4.178856 0
M  V30 23 C 1.445120 -2.613606 4.961855 0
M  V30 24 C 2.681049 -2.127117 4.233400 0
M  V30 25 C -2.004511 -0.216406 0.417283 0
M  V30 26 C -3.243045 -1.078723 0.361444 0
M  V30 27 H -4.640764 -3.384625 -0.010142 0
M  V30 28 H -3.665879 -4.279763 1.184281 0
M  V30 29 H -4.637894 -2.830958 1.746243 0
M  V30 30 H -1.856622 -4.093526 -0.049572 0
M  V30 31 H -2.616826 -3.174376 -1.347604 0
M  V30 32 H -0.626213 -2.179918 -1.641906 0
M  V30 33 H 0.114600 -2.898394 -0.134556 0
M  V30 34 H -0.230655 2.144498 -2.821032 0
M  V30 35 H 0.008362 3.902084 -4.541099 0
M  V30 36 H 3.700773 5.064617 -2.797986 0
M  V30 37 H 3.469689 3.316864 -1.082171 0
M  V30 38 H -0.667130 -2.173921 2.290056 0
M  V30 39 H 0.719834 -3.388750 2.389983 0
M  V30 40 H -0.268783 -1.351173 4.421664 0
M  V30 41 H -0.544660 -3.116817 4.413991 0
M  V30 42 H 1.574679 -3.695432 5.168508 0
M  V30 43 H 1.339202 -2.114778 5.947218 0
M  V30 44 H 3.276030 -1.540547 4.962055 0
M  V30 45 H 3.310893 -2.986832 3.927234 0
M  V30 46 H -2.155850 0.665636 -0.240220 0
M  V30 47 H -1.862090 0.195675 1.459600 0
M  V30 48 H -3.701779 -1.061799 -0.658404 0
M  V30 49 H -3.993046 -0.780409 1.128391 0
M  V30 END ATOM
M  V30 BEGIN BOND
M  V30 1 1 1 2
M  V30 2 1 2 3
M  V30 3 1 3 4
M  V30 4 1 4 5
M  V30 5 1 5 6
M  V30 6 2 6 7
M  V30 7 1 7 8
M  V30 8 1 8 9
M  V30 9 2 9 10
M  V30 10 1 10 11
M  V30 11 2 11 12
M  V30 12 1 12 13
M  V30 13 2 13 14
M  V30 14 2 8 15
M  V30 15 1 15 16
M  V30 16 1 16 17
M  V30 17 1 17 18
M  V30 18 2 18 19
M  V30 19 1 19 20
M  V30 20 1 19 21
M  V30 21 1 21 22
M  V30 22 1 22 23
M  V30 23 1 23 24
M  V30 24 1 5 25
M  V30 25 1 25 26
M  V30 26 1 26 2
M  V30 27 1 20 6
M  V30 28 1 14 9
M  V30 29 2 20 16
M  V30 30 1 24 18
M  V30 31 1 1 27
M  V30 32 1 1 28
M  V30 33 1 1 29
M  V30 34 1 3 30
M  V30 35 1 3 31
M  V30 36 1 4 32
M  V30 37 1 4 33
M  V30 38 1 10 34
M  V30 39 1 11 35
M  V30 40 1 13 36
M  V30 41 1 14 37
M  V30 42 1 21 38
M  V30 43 1 21 39
M  V30 44 1 22 40
M  V30 45 1 22 41
M  V30 46 1 23 42
M  V30 47 1 23 43
M  V30 48 1 24 44
M  V30 49 1 24 45
M  V30 50 1 25 46
M  V30 51 1 25 47
M  V30 52 1 26 48
M  V30 53 1 26 49
M  V30 END BOND
M  V30 END CTAB
M  END
>  <Dataset>  (169) 
ChEMBL_Kinases

>  <Ligand_Instance>  (169) 
nan

>  <PDB_ID>  (169) 
nan

>  <Standardized_SMILES>  (169) 
CN1CCN(c2nc(-c3ccncc3)nc3sc4c(c23)CCCC4)CC1

>  <Name>  (169) 
nan

>  <Pocket>  (169) 
nan

>  <ATP_Site>  (169) 
nan

>  <Peripheral>  (169) 
nan

>  <Num_H_Atoms_ProtBoundConf>  (169) 
nan

>  <Num_Resolved_Atoms>  (169) 
nan

>  <Num_Not_Resolved_Atoms>  (169) 
nan

$$$$
CHEMBL3092182
     RDKit          3D

  0  0  0  0  0  0  0  0  0  0999 V3000
M  V30 BEGIN CTAB
M  V30 COUNTS 51 53 0 0 0
M  V30 BEGIN ATOM
M  V30 1 C 0.899760 0.141829 -1.083133 0
M  V30 2 C 0.654234 -0.881948 -0.060058 0
M  V30 3 C 1.757255 -1.284639 0.673375 0
M  V30 4 C 3.147939 -0.795734 0.593405 0
M  V30 5 C 3.263879 0.495393 1.300712 0
M  V30 6 C 3.478072 0.416604 2.686359 0
M  V30 7 C 3.611063 1.508238 3.485156 0
M  V30 8 C 3.533870 2.768023 2.919446 0
M  V30 9 C 3.322050 2.917344 1.544304 0
M  V30 10 N 3.232533 4.184318 0.908753 0
M  V30 11 S 4.266468 5.519814 1.160229 0
M  V30 12 N 4.127444 5.988234 2.837892 0
M  V30 13 O 3.769680 6.678046 0.343038 0
M  V30 14 O 5.685073 5.177566 0.847616 0
M  V30 15 C 3.200495 1.774257 0.821514 0
M  V30 16 C 1.432518 -2.277708 1.611725 0
M  V30 17 O 2.279573 -2.792110 2.386348 0
M  V30 18 O 0.228810 -2.806116 1.817661 0
M  V30 19 C -0.812497 -2.411973 1.112174 0
M  V30 20 C -2.063423 -2.955817 1.321965 0
M  V30 21 C -3.156864 -2.547735 0.588419 0
M  V30 22 O -4.448005 -3.042039 0.735475 0
M  V30 23 C -4.961534 -4.137325 0.068202 0
M  V30 24 O -4.239690 -3.208911 0.513093 0
M  V30 25 N -5.456651 -5.269826 -0.636805 0
M  V30 26 C -6.824853 -5.714909 -0.420080 0
M  V30 27 C -4.620740 -5.997514 -1.575751 0
M  V30 28 C -2.880987 -1.555822 -0.362884 0
M  V30 29 C -1.643101 -0.992921 -0.596439 0
M  V30 30 C -0.581009 -1.435854 0.163992 0
M  V30 31 H 0.652281 1.160390 -0.729553 0
M  V30 32 H 1.941787 0.169409 -1.444140 0
M  V30 33 H 0.308823 -0.152457 -1.999467 0
M  V30 34 H 3.542732 -0.760112 -0.438130 0
M  V30 35 H 3.789286 -1.538805 1.108338 0
M  V30 36 H 3.558027 -0.520993 3.249835 0
M  V30 37 H 3.775832 1.483520 4.548643 0
M  V30 38 H 3.636748 3.652259 3.532772 0
M  V30 39 H 2.420835 4.232602 0.224807 0
M  V30 40 H 4.389573 7.005098 2.946390 0
M  V30 41 H 3.111000 5.956983 3.130307 0
M  V30 42 H 3.044465 1.869086 -0.222552 0
M  V30 43 H -2.212149 -3.708605 2.060906 0
M  V30 44 H -6.803958 -6.765541 -0.071359 0
M  V30 45 H -7.371919 -5.614601 -1.402768 0
M  V30 46 H -7.344619 -5.048998 0.286263 0
M  V30 47 H -5.069249 -6.092891 -2.586012 0
M  V30 48 H -3.656998 -5.464429 -1.718875 0
M  V30 49 H -4.336517 -6.987738 -1.144504 0
M  V30 50 H -3.739506 -1.226716 -0.947939 0
M  V30 51 H -1.590132 -0.234933 -1.364006 0
M  V30 END ATOM
M  V30 BEGIN BOND
M  V30 1 1 1 2
M  V30 2 2 2 3
M  V30 3 1 3 4
M  V30 4 1 4 5
M  V30 5 2 5 6
M  V30 6 1 6 7
M  V30 7 2 7 8
M  V30 8 1 8 9
M  V30 9 1 9 10
M  V30 10 1 10 11
M  V30 11 1 11 12
M  V30 12 2 11 13
M  V30 13 2 11 14
M  V30 14 2 9 15
M  V30 15 1 3 16
M  V30 16 2 16 17
M  V30 17 1 16 18
M  V30 18 1 18 19
M  V30 19 2 19 20
M  V30 20 1 20 21
M  V30 21 1 21 22
M  V30 22 1 22 23
M  V30 23 2 23 24
M  V30 24 1 23 25
M  V30 25 1 25 26
M  V30 26 1 25 27
M  V30 27 2 21 28
M  V30 28 1 28 29
M  V30 29 2 29 30
M  V30 30 1 30 2
M  V30 31 1 15 5
M  V30 32 1 30 19
M  V30 33 1 1 31
M  V30 34 1 1 32
M  V30 35 1 1 33
M  V30 36 1 4 34
M  V30 37 1 4 35
M  V30 38 1 6 36
M  V30 39 1 7 37
M  V30 40 1 8 38
M  V30 41 1 10 39
M  V30 42 1 12 40
M  V30 43 1 12 41
M  V30 44 1 15 42
M  V30 45 1 20 43
M  V30 46 1 26 44
M  V30 47 1 26 45
M  V30 48 1 26 46
M  V30 49 1 27 47
M  V30 50 1 27 48
M  V30 51 1 27 49
M  V30 52 1 28 50
M  V30 53 1 29 51
M  V30 END BOND
M  V30 END CTAB
M  END
>  <Dataset>  (170) 
ChEMBL_Kinases

>  <Ligand_Instance>  (170) 
nan

>  <PDB_ID>  (170) 
nan

>  <Standardized_SMILES>  (170) 
Cc1c(Cc2cccc(NS(N)(=O)=O)c2)c(=O)oc2cc(OC(=O)N(C)C)ccc12

>  <Name>  (170) 
nan

>  <Pocket>  (170) 
nan

>  <ATP_Site>  (170) 
nan

>  <Peripheral>  (170) 
nan

>  <Num_H_Atoms_ProtBoundConf>  (170) 
nan

>  <Num_Resolved_Atoms>  (170) 
nan

>  <Num_Not_Resolved_Atoms>  (170) 
nan

$$$$
CHEMBL215470
     RDKit          3D

  0  0  0  0  0  0  0  0  0  0999 V3000
M  V30 BEGIN CTAB
M  V30 COUNTS 44 48 0 0 0
M  V30 BEGIN ATOM
M  V30 1 C 2.099457 -4.503835 2.182900 0
M  V30 2 C 2.626369 -4.114252 0.809090 0
M  V30 3 O 2.070518 -2.867566 0.416120 0
M  V30 4 C 2.428344 -2.350239 -0.797629 0
M  V30 5 C 3.314059 -3.001411 -1.655355 0
M  V30 6 C 3.592004 -2.373352 -2.849531 0
M  V30 7 C 3.057004 -1.162693 -3.239705 0
M  V30 8 C 2.182600 -0.541379 -2.368998 0
M  V30 9 C 1.868351 -1.135972 -1.147190 0
M  V30 10 C 0.934912 -0.392783 -0.306518 0
M  V30 11 C 1.443921 0.520917 0.593316 0
M  V30 12 C 0.579641 1.234090 1.397496 0
M  V30 13 N 0.806962 2.167192 2.340024 0
M  V30 14 C -0.414098 2.541392 2.823914 0
M  V30 15 C -0.647752 3.476529 3.805709 0
M  V30 16 C -1.956478 3.765475 4.208842 0
M  V30 17 C -3.003751 3.076804 3.584196 0
M  V30 18 O -4.308410 3.350970 3.971784 0
M  V30 19 C -2.676729 2.159299 2.613027 0
M  V30 20 C -1.421165 1.848422 2.191600 0
M  V30 21 C -0.779114 1.038601 1.305860 0
M  V30 22 C -1.279794 0.138861 0.419733 0
M  V30 23 C -0.438601 -0.582229 -0.390737 0
M  V30 24 C -1.138594 -1.506496 -1.286040 0
M  V30 25 O -0.645049 -2.283129 -2.125645 0
M  V30 26 N -2.520312 -1.289796 -0.951355 0
M  V30 27 C -2.598564 -0.308087 0.065920 0
M  V30 28 O -3.740842 -0.028648 0.445889 0
M  V30 29 H 2.929269 -4.713077 2.898453 0
M  V30 30 H 1.426263 -5.378439 2.133857 0
M  V30 31 H 1.533180 -3.644253 2.617919 0
M  V30 32 H 2.377146 -4.927305 0.096818 0
M  V30 33 H 3.734695 -4.039203 0.857271 0
M  V30 34 H 3.747062 -3.952641 -1.371362 0
M  V30 35 H 4.287592 -2.874142 -3.534916 0
M  V30 36 H 3.318672 -0.724473 -4.193851 0
M  V30 37 H 1.748958 0.410384 -2.652429 0
M  V30 38 H 2.520516 0.650183 0.639544 0
M  V30 39 H 1.753822 2.494095 2.600234 0
M  V30 40 H 0.147499 4.007018 4.287790 0
M  V30 41 H -2.102477 4.506018 4.983170 0
M  V30 42 H -4.681759 2.810622 4.741959 0
M  V30 43 H -3.521817 1.680588 2.188258 0
M  V30 44 H -3.255623 -1.852880 -1.471847 0
M  V30 END ATOM
M  V30 BEGIN BOND
M  V30 1 1 1 2
M  V30 2 1 2 3
M  V30 3 1 3 4
M  V30 4 2 4 5
M  V30 5 1 5 6
M  V30 6 2 6 7
M  V30 7 1 7 8
M  V30 8 2 8 9
M  V30 9 1 9 10
M  V30 10 2 10 11
M  V30 11 1 11 12
M  V30 12 1 12 13
M  V30 13 1 13 14
M  V30 14 2 14 15
M  V30 15 1 15 16
M  V30 16 2 16 17
M  V30 17 1 17 18
M  V30 18 1 17 19
M  V30 19 2 19 20
M  V30 20 1 20 21
M  V30 21 1 21 22
M  V30 22 2 22 23
M  V30 23 1 23 24
M  V30 24 2 24 25
M  V30 25 1 24 26
M  V30 26 1 26 27
M  V30 27 2 27 28
M  V30 28 1 9 4
M  V30 29 1 23 10
M  V30 30 2 21 12
M  V30 31 1 27 22
M  V30 32 1 20 14
M  V30 33 1 1 29
M  V30 34 1 1 30
M  V30 35 1 1 31
M  V30 36 1 2 32
M  V30 37 1 2 33
M  V30 38 1 5 34
M  V30 39 1 6 35
M  V30 40 1 7 36
M  V30 41 1 8 37
M  V30 42 1 11 38
M  V30 43 1 13 39
M  V30 44 1 15 40
M  V30 45 1 16 41
M  V30 46 1 18 42
M  V30 47 1 19 43
M  V30 48 1 26 44
M  V30 END BOND
M  V30 END CTAB
M  END
>  <Dataset>  (171) 
ChEMBL_Kinases

>  <Ligand_Instance>  (171) 
nan

>  <PDB_ID>  (171) 
nan

>  <Standardized_SMILES>  (171) 
CCOc1ccccc1-c1cc2[nH]c3ccc(O)cc3c2c2c1C(=O)NC2=O

>  <Name>  (171) 
nan

>  <Pocket>  (171) 
nan

>  <ATP_Site>  (171) 
nan

>  <Peripheral>  (171) 
nan

>  <Num_H_Atoms_ProtBoundConf>  (171) 
nan

>  <Num_Resolved_Atoms>  (171) 
nan

>  <Num_Not_Resolved_Atoms>  (171) 
nan

$$$$
CHEMBL3092183
     RDKit          3D

  0  0  0  0  0  0  0  0  0  0999 V3000
M  V30 BEGIN CTAB
M  V30 COUNTS 51 53 0 0 0
M  V30 BEGIN ATOM
M  V30 1 C 0.038833 1.253773 0.699037 0
M  V30 2 C 0.215940 -0.135983 0.269793 0
M  V30 3 C 1.357176 -0.420381 -0.445679 0
M  V30 4 C 2.457052 0.496845 -0.826908 0
M  V30 5 C 3.353124 0.834140 0.302938 0
M  V30 6 C 3.296569 2.073134 0.904052 0
M  V30 7 C 4.108418 2.458424 1.955751 0
M  V30 8 N 4.064428 3.731627 2.588610 0
M  V30 9 S 3.984010 5.164493 1.601589 0
M  V30 10 N 2.576774 5.223121 0.633058 0
M  V30 11 O 5.186481 5.162270 0.712649 0
M  V30 12 O 4.032288 6.396994 2.448774 0
M  V30 13 C 5.048165 1.580663 2.467846 0
M  V30 14 C 5.135898 0.338285 1.896895 0
M  V30 15 C 4.301829 0.008947 0.851811 0
M  V30 16 F 4.478569 -1.233624 0.365870 0
M  V30 17 C 1.458845 -1.761170 -0.847882 0
M  V30 18 O 2.399051 -2.269134 -1.511091 0
M  V30 19 O 0.568782 -2.695929 -0.585768 0
M  V30 20 C -0.531462 -2.467762 0.093817 0
M  V30 21 C -1.477972 -3.433704 0.381038 0
M  V30 22 C -2.632309 -3.118789 1.114587 0
M  V30 23 O -3.488924 -4.200025 1.321393 0
M  V30 24 C -4.512859 -4.495189 0.438666 0
M  V30 25 O -4.098143 -3.495449 -0.200204 0
M  V30 26 N -5.593115 -5.348199 0.120288 0
M  V30 27 C -6.309019 -5.020938 -1.094816 0
M  V30 28 C -5.879113 -6.447305 1.017114 0
M  V30 29 C -2.794952 -1.814520 1.541329 0
M  V30 30 C -1.828254 -0.877428 1.235086 0
M  V30 31 C -0.683864 -1.155676 0.516268 0
M  V30 32 H 0.543283 1.971197 0.018633 0
M  V30 33 H 0.306831 1.393115 1.763208 0
M  V30 34 H -1.059508 1.506723 0.599060 0
M  V30 35 H 3.129375 0.026423 -1.589064 0
M  V30 36 H 2.083480 1.410480 -1.339308 0
M  V30 37 H 2.635857 2.852111 0.622618 0
M  V30 38 H 4.077522 3.857023 3.628333 0
M  V30 39 H 2.805946 5.037183 -0.360031 0
M  V30 40 H 2.095971 6.151862 0.632986 0
M  V30 41 H 5.694929 1.850593 3.285942 0
M  V30 42 H 5.870926 -0.349571 2.296283 0
M  V30 43 H -1.219263 -4.414994 -0.016862 0
M  V30 44 H -6.510996 -5.978667 -1.658871 0
M  V30 45 H -5.691244 -4.420017 -1.785877 0
M  V30 46 H -7.309074 -4.574635 -0.913784 0
M  V30 47 H -6.305105 -7.335573 0.514894 0
M  V30 48 H -4.920935 -6.809624 1.467864 0
M  V30 49 H -6.484963 -6.113267 1.885388 0
M  V30 50 H -3.688004 -1.630123 2.093772 0
M  V30 51 H -2.039573 0.111544 1.613563 0
M  V30 END ATOM
M  V30 BEGIN BOND
M  V30 1 1 1 2
M  V30 2 2 2 3
M  V30 3 1 3 4
M  V30 4 1 4 5
M  V30 5 2 5 6
M  V30 6 1 6 7
M  V30 7 1 7 8
M  V30 8 1 8 9
M  V30 9 1 9 10
M  V30 10 2 9 11
M  V30 11 2 9 12
M  V30 12 2 7 13
M  V30 13 1 13 14
M  V30 14 2 14 15
M  V30 15 1 15 16
M  V30 16 1 3 17
M  V30 17 2 17 18
M  V30 18 1 17 19
M  V30 19 1 19 20
M  V30 20 2 20 21
M  V30 21 1 21 22
M  V30 22 1 22 23
M  V30 23 1 23 24
M  V30 24 2 24 25
M  V30 25 1 24 26
M  V30 26 1 26 27
M  V30 27 1 26 28
M  V30 28 2 22 29
M  V30 29 1 29 30
M  V30 30 2 30 31
M  V30 31 1 31 2
M  V30 32 1 15 5
M  V30 33 1 31 20
M  V30 34 1 1 32
M  V30 35 1 1 33
M  V30 36 1 1 34
M  V30 37 1 4 35
M  V30 38 1 4 36
M  V30 39 1 6 37
M  V30 40 1 8 38
M  V30 41 1 10 39
M  V30 42 1 10 40
M  V30 43 1 13 41
M  V30 44 1 14 42
M  V30 45 1 21 43
M  V30 46 1 27 44
M  V30 47 1 27 45
M  V30 48 1 27 46
M  V30 49 1 28 47
M  V30 50 1 28 48
M  V30 51 1 28 49
M  V30 52 1 29 50
M  V30 53 1 30 51
M  V30 END BOND
M  V30 END CTAB
M  END
>  <Dataset>  (172) 
ChEMBL_Kinases

>  <Ligand_Instance>  (172) 
nan

>  <PDB_ID>  (172) 
nan

>  <Standardized_SMILES>  (172) 
Cc1c(Cc2cc(NS(N)(=O)=O)ccc2F)c(=O)oc2cc(OC(=O)N(C)C)ccc12

>  <Name>  (172) 
nan

>  <Pocket>  (172) 
nan

>  <ATP_Site>  (172) 
nan

>  <Peripheral>  (172) 
nan

>  <Num_H_Atoms_ProtBoundConf>  (172) 
nan

>  <Num_Resolved_Atoms>  (172) 
nan

>  <Num_Not_Resolved_Atoms>  (172) 
nan

$$$$
CHEMBL3092184
     RDKit          3D

  0  0  0  0  0  0  0  0  0  0999 V3000
M  V30 BEGIN CTAB
M  V30 COUNTS 51 53 0 0 0
M  V30 BEGIN ATOM
M  V30 1 C 0.485436 0.912913 -0.607115 0
M  V30 2 C 0.716815 -0.387168 0.042635 0
M  V30 3 C 2.011467 -0.686475 0.404084 0
M  V30 4 C 3.204614 0.138717 0.242757 0
M  V30 5 C 3.336176 1.228130 1.233864 0
M  V30 6 C 3.956838 0.859621 2.427473 0
M  V30 7 C 4.187680 1.728797 3.494199 0
M  V30 8 C 3.769125 3.030279 3.341098 0
M  V30 9 F 3.962569 3.934291 4.343542 0
M  V30 10 C 3.150889 3.442337 2.179834 0
M  V30 11 N 2.710953 4.775515 1.992117 0
M  V30 12 S 1.844808 5.260927 0.603132 0
M  V30 13 N 2.737698 5.051702 -0.855815 0
M  V30 14 O 1.443123 6.708491 0.719754 0
M  V30 15 O 0.554699 4.467833 0.480098 0
M  V30 16 C 2.950026 2.545210 1.164260 0
M  V30 17 C 2.140721 -1.946598 1.005032 0
M  V30 18 O 3.245662 -2.406285 1.407207 0
M  V30 19 O 1.172929 -2.831864 1.244143 0
M  V30 20 C -0.080847 -2.538922 0.893043 0
M  V30 21 C -1.120824 -3.419115 1.117595 0
M  V30 22 C -2.424336 -3.077019 0.735491 0
M  V30 23 O -3.488130 -3.950831 0.952715 0
M  V30 24 C -3.860385 -4.908766 0.017341 0
M  V30 25 O -3.152370 -4.904901 -1.022880 0
M  V30 26 N -4.896688 -5.878056 0.045960 0
M  V30 27 C -4.949284 -6.702029 -1.147549 0
M  V30 28 C -5.844963 -6.080804 1.123526 0
M  V30 29 C -2.686698 -1.842739 0.123864 0
M  V30 30 C -1.574890 -1.020082 -0.061510 0
M  V30 31 C -0.276353 -1.311303 0.295725 0
M  V30 32 H 1.397703 1.246283 -1.193242 0
M  V30 33 H -0.259910 0.761201 -1.443229 0
M  V30 34 H 0.080740 1.694952 0.035639 0
M  V30 35 H 4.106392 -0.530606 0.303628 0
M  V30 36 H 3.284390 0.624181 -0.750778 0
M  V30 37 H 4.307341 -0.149994 2.606517 0
M  V30 38 H 4.663290 1.418221 4.390422 0
M  V30 39 H 2.931092 5.467883 2.733714 0
M  V30 40 H 3.351362 5.851027 -1.094175 0
M  V30 41 H 2.098106 4.762677 -1.628938 0
M  V30 42 H 2.475108 2.819646 0.234920 0
M  V30 43 H -0.906355 -4.350422 1.582078 0
M  V30 44 H -4.194160 -7.519582 -0.961702 0
M  V30 45 H -4.569994 -6.167583 -2.058615 0
M  V30 46 H -5.938665 -7.112702 -1.345710 0
M  V30 47 H -5.914762 -5.193602 1.782613 0
M  V30 48 H -5.547861 -6.994847 1.676855 0
M  V30 49 H -6.833328 -6.280815 0.618959 0
M  V30 50 H -3.673289 -1.580904 -0.166333 0
M  V30 51 H -1.835958 -0.083528 -0.533581 0
M  V30 END ATOM
M  V30 BEGIN BOND
M  V30 1 1 1 2
M  V30 2 2 2 3
M  V30 3 1 3 4
M  V30 4 1 4 5
M  V30 5 2 5 6
M  V30 6 1 6 7
M  V30 7 2 7 8
M  V30 8 1 8 9
M  V30 9 1 8 10
M  V30 10 1 10 11
M  V30 11 1 11 12
M  V30 12 1 12 13
M  V30 13 2 12 14
M  V30 14 2 12 15
M  V30 15 2 10 16
M  V30 16 1 3 17
M  V30 17 2 17 18
M  V30 18 1 17 19
M  V30 19 1 19 20
M  V30 20 2 20 21
M  V30 21 1 21 22
M  V30 22 1 22 23
M  V30 23 1 23 24
M  V30 24 2 24 25
M  V30 25 1 24 26
M  V30 26 1 26 27
M  V30 27 1 26 28
M  V30 28 2 22 29
M  V30 29 1 29 30
M  V30 30 2 30 31
M  V30 31 1 31 2
M  V30 32 1 16 5
M  V30 33 1 31 20
M  V30 34 1 1 32
M  V30 35 1 1 33
M  V30 36 1 1 34
M  V30 37 1 4 35
M  V30 38 1 4 36
M  V30 39 1 6 37
M  V30 40 1 7 38
M  V30 41 1 11 39
M  V30 42 1 13 40
M  V30 43 1 13 41
M  V30 44 1 16 42
M  V30 45 1 21 43
M  V30 46 1 27 44
M  V30 47 1 27 45
M  V30 48 1 27 46
M  V30 49 1 28 47
M  V30 50 1 28 48
M  V30 51 1 28 49
M  V30 52 1 29 50
M  V30 53 1 30 51
M  V30 END BOND
M  V30 END CTAB
M  END
>  <Dataset>  (173) 
ChEMBL_Kinases

>  <Ligand_Instance>  (173) 
nan

>  <PDB_ID>  (173) 
nan

>  <Standardized_SMILES>  (173) 
Cc1c(Cc2ccc(F)c(NS(N)(=O)=O)c2)c(=O)oc2cc(OC(=O)N(C)C)ccc12

>  <Name>  (173) 
nan

>  <Pocket>  (173) 
nan

>  <ATP_Site>  (173) 
nan

>  <Peripheral>  (173) 
nan

>  <Num_H_Atoms_ProtBoundConf>  (173) 
nan

>  <Num_Resolved_Atoms>  (173) 
nan

>  <Num_Not_Resolved_Atoms>  (173) 
nan

$$$$
CHEMBL3092185
     RDKit          3D

  0  0  0  0  0  0  0  0  0  0999 V3000
M  V30 BEGIN CTAB
M  V30 COUNTS 51 53 0 0 0
M  V30 BEGIN ATOM
M  V30 1 C 1.879772 -2.120902 0.113528 0
M  V30 2 C 0.625208 -1.773362 0.792846 0
M  V30 3 C 0.693428 -1.571279 2.144375 0
M  V30 4 C 1.800692 -1.542206 3.122915 0
M  V30 5 C 2.534855 -0.276814 3.233928 0
M  V30 6 C 2.124317 0.521557 4.300004 0
M  V30 7 C 2.640297 1.753015 4.608245 0
M  V30 8 C 3.642901 2.303425 3.849243 0
M  V30 9 C 4.103451 1.560502 2.767808 0
M  V30 10 N 5.131539 2.030295 1.915185 0
M  V30 11 S 6.515845 2.930476 2.318152 0
M  V30 12 N 6.185871 4.481588 3.008387 0
M  V30 13 O 7.357854 2.107405 3.275142 0
M  V30 14 O 7.405545 3.159241 1.114862 0
M  V30 15 C 3.532133 0.335840 2.528469 0
M  V30 16 F 4.018375 -0.367877 1.490202 0
M  V30 17 C -0.553056 -1.287292 2.729252 0
M  V30 18 O -0.826469 -1.054084 3.961332 0
M  V30 19 O -1.721655 -1.206940 2.083348 0
M  V30 20 C -1.779733 -1.399630 0.785436 0
M  V30 21 C -2.954050 -1.332029 0.042532 0
M  V30 22 C -2.984039 -1.539179 -1.334500 0
M  V30 23 O -4.162472 -1.466620 -2.057884 0
M  V30 24 C -4.960252 -2.511886 -2.393390 0
M  V30 25 O -4.645103 -3.704321 -2.035814 0
M  V30 26 N -6.178179 -2.621013 -3.113196 0
M  V30 27 C -6.723571 -3.957943 -3.255058 0
M  V30 28 C -6.872114 -1.500754 -3.692150 0
M  V30 29 C -1.783003 -1.821250 -1.952105 0
M  V30 30 C -0.617583 -1.888767 -1.212523 0
M  V30 31 C -0.590127 -1.684488 0.144382 0
M  V30 32 H 2.616784 -2.524971 0.843909 0
M  V30 33 H 1.718063 -2.867515 -0.702390 0
M  V30 34 H 2.293897 -1.231349 -0.393749 0
M  V30 35 H 2.537285 -2.393556 2.883735 0
M  V30 36 H 1.428058 -1.857802 4.132441 0
M  V30 37 H 1.337020 0.227559 5.004499 0
M  V30 38 H 2.312053 2.361116 5.442428 0
M  V30 39 H 4.064087 3.267906 4.069552 0
M  V30 40 H 5.000707 1.775438 0.896492 0
M  V30 41 H 7.078753 5.056179 2.885864 0
M  V30 42 H 6.201247 4.303823 4.063009 0
M  V30 43 H -3.862545 -1.106618 0.587691 0
M  V30 44 H -6.911018 -4.442465 -2.278237 0
M  V30 45 H -5.871657 -4.556966 -3.703032 0
M  V30 46 H -7.615084 -3.987936 -3.885400 0
M  V30 47 H -6.558133 -1.293609 -4.751718 0
M  V30 48 H -6.814731 -0.580472 -3.064640 0
M  V30 49 H -7.970249 -1.741160 -3.762500 0
M  V30 50 H -1.823907 -1.975784 -3.008761 0
M  V30 51 H 0.246393 -2.113233 -1.817488 0
M  V30 END ATOM
M  V30 BEGIN BOND
M  V30 1 1 1 2
M  V30 2 2 2 3
M  V30 3 1 3 4
M  V30 4 1 4 5
M  V30 5 2 5 6
M  V30 6 1 6 7
M  V30 7 2 7 8
M  V30 8 1 8 9
M  V30 9 1 9 10
M  V30 10 1 10 11
M  V30 11 1 11 12
M  V30 12 2 11 13
M  V30 13 2 11 14
M  V30 14 2 9 15
M  V30 15 1 15 16
M  V30 16 1 3 17
M  V30 17 2 17 18
M  V30 18 1 17 19
M  V30 19 1 19 20
M  V30 20 2 20 21
M  V30 21 1 21 22
M  V30 22 1 22 23
M  V30 23 1 23 24
M  V30 24 2 24 25
M  V30 25 1 24 26
M  V30 26 1 26 27
M  V30 27 1 26 28
M  V30 28 2 22 29
M  V30 29 1 29 30
M  V30 30 2 30 31
M  V30 31 1 31 2
M  V30 32 1 15 5
M  V30 33 1 31 20
M  V30 34 1 1 32
M  V30 35 1 1 33
M  V30 36 1 1 34
M  V30 37 1 4 35
M  V30 38 1 4 36
M  V30 39 1 6 37
M  V30 40 1 7 38
M  V30 41 1 8 39
M  V30 42 1 10 40
M  V30 43 1 12 41
M  V30 44 1 12 42
M  V30 45 1 21 43
M  V30 46 1 27 44
M  V30 47 1 27 45
M  V30 48 1 27 46
M  V30 49 1 28 47
M  V30 50 1 28 48
M  V30 51 1 28 49
M  V30 52 1 29 50
M  V30 53 1 30 51
M  V30 END BOND
M  V30 END CTAB
M  END
>  <Dataset>  (174) 
ChEMBL_Kinases

>  <Ligand_Instance>  (174) 
nan

>  <PDB_ID>  (174) 
nan

>  <Standardized_SMILES>  (174) 
Cc1c(Cc2cccc(NS(N)(=O)=O)c2F)c(=O)oc2cc(OC(=O)N(C)C)ccc12

>  <Name>  (174) 
nan

>  <Pocket>  (174) 
nan

>  <ATP_Site>  (174) 
nan

>  <Peripheral>  (174) 
nan

>  <Num_H_Atoms_ProtBoundConf>  (174) 
nan

>  <Num_Resolved_Atoms>  (174) 
nan

>  <Num_Not_Resolved_Atoms>  (174) 
nan

$$$$
CHEMBL3092193
     RDKit          3D

  0  0  0  0  0  0  0  0  0  0999 V3000
M  V30 BEGIN CTAB
M  V30 COUNTS 54 56 0 0 0
M  V30 BEGIN ATOM
M  V30 1 C -2.245715 -0.781454 -5.990963 0
M  V30 2 N -3.514111 -0.541703 -6.608334 0
M  V30 3 S -4.842852 -0.746932 -5.557237 0
M  V30 4 O -4.875456 -2.171188 -5.063043 0
M  V30 5 O -6.107897 -0.449109 -6.327965 0
M  V30 6 N -4.757147 0.360891 -4.249074 0
M  V30 7 C -4.551112 0.018924 -2.905237 0
M  V30 8 C -5.324030 0.618756 -1.937250 0
M  V30 9 C -5.115321 0.269981 -0.597849 0
M  V30 10 C -4.155221 -0.655753 -0.249724 0
M  V30 11 C -3.352577 -1.283037 -1.214486 0
M  V30 12 C -2.413103 -2.238595 -0.673555 0
M  V30 13 C -1.131102 -1.795403 -0.138726 0
M  V30 14 C 0.050310 -1.407818 -0.740598 0
M  V30 15 C 0.045138 -1.416661 -2.187854 0
M  V30 16 F -0.539608 -0.324818 -2.792985 0
M  V30 17 C 1.078754 -1.055675 0.111202 0
M  V30 18 C 2.257199 -0.666787 -0.492502 0
M  V30 19 C 3.378003 -0.284452 0.221545 0
M  V30 20 C 3.350919 -0.280391 1.600825 0
M  V30 21 O 4.420665 0.085615 2.415357 0
M  V30 22 C 4.653174 1.345995 2.887132 0
M  V30 23 O 3.609487 1.333161 2.179378 0
M  V30 24 N 4.699563 2.709775 3.259322 0
M  V30 25 C 3.699486 3.698684 2.828443 0
M  V30 26 C 5.772492 3.188635 4.108024 0
M  V30 27 C 2.176427 -0.667056 2.221542 0
M  V30 28 C 1.068001 -1.044963 1.490720 0
M  V30 29 O -0.078981 -1.422181 2.026107 0
M  V30 30 C -1.111590 -1.774309 1.270265 0
M  V30 31 O -2.064135 -2.083985 2.066320 0
M  V30 32 C -3.608565 -0.895314 -2.513651 0
M  V30 33 H -2.239833 -1.758043 -5.481590 0
M  V30 34 H -1.451063 -0.792497 -6.774272 0
M  V30 35 H -2.032171 0.020988 -5.247117 0
M  V30 36 H -3.640856 -1.035997 -7.512138 0
M  V30 37 H -4.878533 1.368575 -4.556290 0
M  V30 38 H -6.064052 1.334178 -2.229078 0
M  V30 39 H -5.767543 0.790724 0.088431 0
M  V30 40 H -4.138255 -0.797159 0.823551 0
M  V30 41 H -2.138781 -2.910848 -1.554684 0
M  V30 42 H -2.900990 -2.999219 0.010357 0
M  V30 43 H 1.070325 -1.500979 -2.573364 0
M  V30 44 H -0.414703 -2.378947 -2.607576 0
M  V30 45 H 2.438042 -0.611998 -1.554223 0
M  V30 46 H 4.315592 0.025635 -0.204120 0
M  V30 47 H 2.928527 3.863727 3.580568 0
M  V30 48 H 3.196741 3.361221 1.894717 0
M  V30 49 H 4.193887 4.675615 2.588492 0
M  V30 50 H 6.534033 3.779048 3.560527 0
M  V30 51 H 6.203693 2.304880 4.620229 0
M  V30 52 H 5.377974 3.827159 4.938540 0
M  V30 53 H 2.077900 -0.688844 3.318381 0
M  V30 54 H -2.969536 -1.401297 -3.234076 0
M  V30 END ATOM
M  V30 BEGIN BOND
M  V30 1 1 1 2
M  V30 2 1 2 3
M  V30 3 2 3 4
M  V30 4 2 3 5
M  V30 5 1 3 6
M  V30 6 1 6 7
M  V30 7 2 7 8
M  V30 8 1 8 9
M  V30 9 2 9 10
M  V30 10 1 10 11
M  V30 11 1 11 12
M  V30 12 1 12 13
M  V30 13 2 13 14
M  V30 14 1 14 15
M  V30 15 1 15 16
M  V30 16 1 14 17
M  V30 17 2 17 18
M  V30 18 1 18 19
M  V30 19 2 19 20
M  V30 20 1 20 21
M  V30 21 1 21 22
M  V30 22 2 22 23
M  V30 23 1 22 24
M  V30 24 1 24 25
M  V30 25 1 24 26
M  V30 26 1 20 27
M  V30 27 2 27 28
M  V30 28 1 28 29
M  V30 29 1 29 30
M  V30 30 2 30 31
M  V30 31 2 11 32
M  V30 32 1 32 7
M  V30 33 1 30 13
M  V30 34 1 28 17
M  V30 35 1 1 33
M  V30 36 1 1 34
M  V30 37 1 1 35
M  V30 38 1 2 36
M  V30 39 1 6 37
M  V30 40 1 8 38
M  V30 41 1 9 39
M  V30 42 1 10 40
M  V30 43 1 12 41
M  V30 44 1 12 42
M  V30 45 1 15 43
M  V30 46 1 15 44
M  V30 47 1 18 45
M  V30 48 1 19 46
M  V30 49 1 25 47
M  V30 50 1 25 48
M  V30 51 1 25 49
M  V30 52 1 26 50
M  V30 53 1 26 51
M  V30 54 1 26 52
M  V30 55 1 27 53
M  V30 56 1 32 54
M  V30 END BOND
M  V30 END CTAB
M  END
>  <Dataset>  (175) 
ChEMBL_Kinases

>  <Ligand_Instance>  (175) 
nan

>  <PDB_ID>  (175) 
nan

>  <Standardized_SMILES>  (175) 
CNS(=O)(=O)Nc1cccc(Cc2c(CF)c3ccc(OC(=O)N(C)C)cc3oc2=O)c1

>  <Name>  (175) 
nan

>  <Pocket>  (175) 
nan

>  <ATP_Site>  (175) 
nan

>  <Peripheral>  (175) 
nan

>  <Num_H_Atoms_ProtBoundConf>  (175) 
nan

>  <Num_Resolved_Atoms>  (175) 
nan

>  <Num_Not_Resolved_Atoms>  (175) 
nan

$$$$
CHEMBL3092186
     RDKit          3D

  0  0  0  0  0  0  0  0  0  0999 V3000
M  V30 BEGIN CTAB
M  V30 COUNTS 51 53 0 0 0
M  V30 BEGIN ATOM
M  V30 1 C -1.209649 0.845119 2.271301 0
M  V30 2 C -0.410979 -0.346339 1.942550 0
M  V30 3 C 0.725195 -0.569832 2.687978 0
M  V30 4 C 1.288700 0.255694 3.776520 0
M  V30 5 C 2.000533 1.410041 3.175851 0
M  V30 6 C 3.326867 1.156905 2.803496 0
M  V30 7 C 4.150181 2.107221 2.236982 0
M  V30 8 C 3.671077 3.390617 2.010710 0
M  V30 9 C 2.366894 3.645048 2.375538 0
M  V30 10 N 1.833644 4.936934 2.167064 0
M  V30 11 S 2.023105 5.854881 0.745986 0
M  V30 12 N 1.364833 5.152640 -0.661263 0
M  V30 13 O 3.488147 6.088326 0.510410 0
M  V30 14 O 1.394334 7.209459 0.938747 0
M  V30 15 C 1.566208 2.675682 2.940036 0
M  V30 16 C 1.410528 -1.735935 2.315584 0
M  V30 17 O 2.475236 -2.138198 2.861905 0
M  V30 18 O 1.072730 -2.591726 1.357246 0
M  V30 19 C -0.024321 -2.379678 0.632840 0
M  V30 20 C -0.406314 -3.248349 -0.372411 0
M  V30 21 C -1.569476 -2.980908 -1.105982 0
M  V30 22 O -1.769869 -3.970519 -2.060165 0
M  V30 23 C -2.381751 -5.151636 -1.724716 0
M  V30 24 O -2.850883 -5.588798 -0.643864 0
M  V30 25 N -2.730829 -6.323954 -2.405049 0
M  V30 26 C -3.380261 -7.233913 -1.470337 0
M  V30 27 C -2.498740 -6.620232 -3.805874 0
M  V30 28 C -2.295807 -1.852147 -0.795561 0
M  V30 29 F -3.389924 -1.712554 -1.573862 0
M  V30 30 C -1.877692 -1.014169 0.214087 0
M  V30 31 C -0.741767 -1.247939 0.952757 0
M  V30 32 H -1.031489 1.666173 1.551433 0
M  V30 33 H -2.300168 0.555887 2.203804 0
M  V30 34 H -1.039756 1.164535 3.324286 0
M  V30 35 H 0.508433 0.584668 4.497841 0
M  V30 36 H 2.019184 -0.363049 4.350442 0
M  V30 37 H 3.857388 0.219998 2.909222 0
M  V30 38 H 5.176443 1.959927 1.934035 0
M  V30 39 H 4.281289 4.165907 1.569075 0
M  V30 40 H 1.286232 5.311889 2.985397 0
M  V30 41 H 0.395395 4.814781 -0.584354 0
M  V30 42 H 2.024412 4.564707 -1.194268 0
M  V30 43 H 0.568742 2.898758 3.216324 0
M  V30 44 H 0.267334 -4.094647 -0.500490 0
M  V30 45 H -3.631495 -8.195512 -1.966935 0
M  V30 46 H -2.700027 -7.496598 -0.641380 0
M  V30 47 H -4.297322 -6.784579 -1.040222 0
M  V30 48 H -1.401747 -6.831167 -3.964628 0
M  V30 49 H -2.691788 -5.693838 -4.398667 0
M  V30 50 H -3.138185 -7.425093 -4.180024 0
M  V30 51 H -2.525120 -0.171194 0.355263 0
M  V30 END ATOM
M  V30 BEGIN BOND
M  V30 1 1 1 2
M  V30 2 2 2 3
M  V30 3 1 3 4
M  V30 4 1 4 5
M  V30 5 2 5 6
M  V30 6 1 6 7
M  V30 7 2 7 8
M  V30 8 1 8 9
M  V30 9 1 9 10
M  V30 10 1 10 11
M  V30 11 1 11 12
M  V30 12 2 11 13
M  V30 13 2 11 14
M  V30 14 2 9 15
M  V30 15 1 3 16
M  V30 16 2 16 17
M  V30 17 1 16 18
M  V30 18 1 18 19
M  V30 19 2 19 20
M  V30 20 1 20 21
M  V30 21 1 21 22
M  V30 22 1 22 23
M  V30 23 2 23 24
M  V30 24 1 23 25
M  V30 25 1 25 26
M  V30 26 1 25 27
M  V30 27 2 21 28
M  V30 28 1 28 29
M  V30 29 1 28 30
M  V30 30 2 30 31
M  V30 31 1 31 2
M  V30 32 1 15 5
M  V30 33 1 31 19
M  V30 34 1 1 32
M  V30 35 1 1 33
M  V30 36 1 1 34
M  V30 37 1 4 35
M  V30 38 1 4 36
M  V30 39 1 6 37
M  V30 40 1 7 38
M  V30 41 1 8 39
M  V30 42 1 10 40
M  V30 43 1 12 41
M  V30 44 1 12 42
M  V30 45 1 15 43
M  V30 46 1 20 44
M  V30 47 1 26 45
M  V30 48 1 26 46
M  V30 49 1 26 47
M  V30 50 1 27 48
M  V30 51 1 27 49
M  V30 52 1 27 50
M  V30 53 1 30 51
M  V30 END BOND
M  V30 END CTAB
M  END
>  <Dataset>  (176) 
ChEMBL_Kinases

>  <Ligand_Instance>  (176) 
nan

>  <PDB_ID>  (176) 
nan

>  <Standardized_SMILES>  (176) 
Cc1c(Cc2cccc(NS(N)(=O)=O)c2)c(=O)oc2cc(OC(=O)N(C)C)c(F)cc12

>  <Name>  (176) 
nan

>  <Pocket>  (176) 
nan

>  <ATP_Site>  (176) 
nan

>  <Peripheral>  (176) 
nan

>  <Num_H_Atoms_ProtBoundConf>  (176) 
nan

>  <Num_Resolved_Atoms>  (176) 
nan

>  <Num_Not_Resolved_Atoms>  (176) 
nan

$$$$
CHEMBL2153531
     RDKit          3D

  0  0  0  0  0  0  0  0  0  0999 V3000
M  V30 BEGIN CTAB
M  V30 COUNTS 20 22 0 0 0
M  V30 BEGIN ATOM
M  V30 1 N 0.375548 -1.860048 3.892185 0
M  V30 2 C 1.162159 -0.998493 3.079596 0
M  V30 3 N 2.359518 -0.483424 3.489603 0
M  V30 4 C 2.966020 0.312804 2.590145 0
M  V30 5 N 2.495634 0.620785 1.373641 0
M  V30 6 C 1.322515 0.138526 0.925647 0
M  V30 7 C 0.690973 -0.682229 1.844978 0
M  V30 8 S -0.819243 -1.197166 1.049214 0
M  V30 9 C -0.480656 -0.226949 -0.540163 0
M  V30 10 C -1.283212 -0.162914 -1.661449 0
M  V30 11 C -0.798564 0.619443 -2.682384 0
M  V30 12 C 0.411875 1.227789 -2.449172 0
M  V30 13 N 1.139097 1.120598 -1.331449 0
M  V30 14 C 0.750285 0.381370 -0.281627 0
M  V30 15 H 0.033499 -2.819707 3.995684 0
M  V30 16 H -0.005436 -1.302286 4.702156 0
M  V30 17 H 3.937144 0.763336 2.854884 0
M  V30 18 H -2.200849 -0.709913 -1.660792 0
M  V30 19 H -1.361981 0.716168 -3.576634 0
M  V30 20 H 0.865770 1.871191 -3.220629 0
M  V30 END ATOM
M  V30 BEGIN BOND
M  V30 1 1 1 2
M  V30 2 2 2 3
M  V30 3 1 3 4
M  V30 4 2 4 5
M  V30 5 1 5 6
M  V30 6 2 6 7
M  V30 7 1 7 8
M  V30 8 1 8 9
M  V30 9 2 9 10
M  V30 10 1 10 11
M  V30 11 2 11 12
M  V30 12 1 12 13
M  V30 13 2 13 14
M  V30 14 1 7 2
M  V30 15 1 14 9
M  V30 16 1 14 6
M  V30 17 1 1 15
M  V30 18 1 1 16
M  V30 19 1 4 17
M  V30 20 1 10 18
M  V30 21 1 11 19
M  V30 22 1 12 20
M  V30 END BOND
M  V30 END CTAB
M  END
>  <Dataset>  (177) 
ChEMBL_Kinases

>  <Ligand_Instance>  (177) 
nan

>  <PDB_ID>  (177) 
nan

>  <Standardized_SMILES>  (177) 
Nc1ncnc2c1sc1cccnc12

>  <Name>  (177) 
nan

>  <Pocket>  (177) 
nan

>  <ATP_Site>  (177) 
nan

>  <Peripheral>  (177) 
nan

>  <Num_H_Atoms_ProtBoundConf>  (177) 
nan

>  <Num_Resolved_Atoms>  (177) 
nan

>  <Num_Not_Resolved_Atoms>  (177) 
nan

$$$$
CHEMBL3701748
     RDKit          3D

  0  0  0  0  0  0  0  0  0  0999 V3000
M  V30 BEGIN CTAB
M  V30 COUNTS 52 57 0 0 0
M  V30 BEGIN ATOM
M  V30 1 N -2.668266 -4.631480 3.342182 0
M  V30 2 C -1.608205 -4.810049 2.368280 0
M  V30 3 C -1.220902 -3.595773 1.646581 0
M  V30 4 C -0.787315 -3.453854 0.355903 0
M  V30 5 C -0.456475 -2.226715 -0.182397 0
M  V30 6 C -0.551320 -1.069561 0.573580 0
M  V30 7 C -0.170321 0.161067 -0.113268 0
M  V30 8 N -0.844995 0.522855 -1.224807 0
M  V30 9 C -0.347533 1.677953 -1.711837 0
M  V30 10 N 0.653156 2.030589 -0.880157 0
M  V30 11 C 0.797215 1.135209 0.109106 0
M  V30 12 C 1.666626 0.992972 1.245356 0
M  V30 13 C 2.602738 0.027429 1.550615 0
M  V30 14 C 3.342689 0.062722 2.696274 0
M  V30 15 C 3.182668 1.093143 3.624307 0
M  V30 16 C 2.241626 2.086264 3.342733 0
M  V30 17 C 1.498633 2.029381 2.168044 0
M  V30 18 C 1.506818 3.200076 -0.967537 0
M  V30 19 O 1.198678 4.017261 -2.080832 0
M  V30 20 C 0.189149 3.742036 -2.993465 0
M  V30 21 C -0.089757 4.560974 -4.070153 0
M  V30 22 C -1.130047 4.183555 -4.924026 0
M  V30 23 N -1.859784 3.068238 -4.739565 0
M  V30 24 C -1.613129 2.237635 -3.689638 0
M  V30 25 C -0.574358 2.603243 -2.826315 0
M  V30 26 C -0.987185 -1.200698 1.875389 0
M  V30 27 C -1.318025 -2.428153 2.413880 0
M  V30 28 C -0.347694 -5.385480 3.031747 0
M  V30 29 C -0.887290 -6.760554 2.693695 0
M  V30 30 C -1.734107 -6.085850 1.613877 0
M  V30 31 H -3.403564 -4.064785 2.880004 0
M  V30 32 H -2.332398 -4.215519 4.236836 0
M  V30 33 H -0.727172 -4.372333 -0.199400 0
M  V30 34 H -0.127635 -2.286601 -1.230923 0
M  V30 35 H 2.666712 -0.741039 0.775067 0
M  V30 36 H 4.068007 -0.744219 2.865296 0
M  V30 37 H 3.795100 1.056648 4.499504 0
M  V30 38 H 2.126311 2.882829 4.071521 0
M  V30 39 H 0.792633 2.866432 2.062945 0
M  V30 40 H 2.573919 2.876621 -1.089758 0
M  V30 41 H 1.442607 3.805146 -0.043082 0
M  V30 42 H 0.489469 5.461718 -4.229237 0
M  V30 43 H -1.352481 4.833420 -5.780031 0
M  V30 44 H -2.203026 1.346754 -3.548328 0
M  V30 45 H -1.046471 -0.268173 2.430506 0
M  V30 46 H -1.652186 -2.405612 3.460974 0
M  V30 47 H 0.575669 -5.205217 2.477210 0
M  V30 48 H -0.307330 -5.183648 4.115808 0
M  V30 49 H -0.138896 -7.425724 2.190910 0
M  V30 50 H -1.453176 -7.256430 3.497208 0
M  V30 51 H -2.784643 -6.490748 1.693849 0
M  V30 52 H -1.320397 -6.150499 0.599259 0
M  V30 END ATOM
M  V30 BEGIN BOND
M  V30 1 1 1 2
M  V30 2 1 2 3
M  V30 3 2 3 4
M  V30 4 1 4 5
M  V30 5 2 5 6
M  V30 6 1 6 7
M  V30 7 1 7 8
M  V30 8 2 8 9
M  V30 9 1 9 10
M  V30 10 1 10 11
M  V30 11 1 11 12
M  V30 12 2 12 13
M  V30 13 1 13 14
M  V30 14 2 14 15
M  V30 15 1 15 16
M  V30 16 2 16 17
M  V30 17 1 10 18
M  V30 18 1 18 19
M  V30 19 1 19 20
M  V30 20 2 20 21
M  V30 21 1 21 22
M  V30 22 2 22 23
M  V30 23 1 23 24
M  V30 24 2 24 25
M  V30 25 1 6 26
M  V30 26 2 26 27
M  V30 27 1 2 28
M  V30 28 1 28 29
M  V30 29 1 29 30
M  V30 30 1 30 2
M  V30 31 1 27 3
M  V30 32 2 11 7
M  V30 33 1 17 12
M  V30 34 1 25 20
M  V30 35 1 25 9
M  V30 36 1 1 31
M  V30 37 1 1 32
M  V30 38 1 4 33
M  V30 39 1 5 34
M  V30 40 1 13 35
M  V30 41 1 14 36
M  V30 42 1 15 37
M  V30 43 1 16 38
M  V30 44 1 17 39
M  V30 45 1 18 40
M  V30 46 1 18 41
M  V30 47 1 21 42
M  V30 48 1 22 43
M  V30 49 1 24 44
M  V30 50 1 26 45
M  V30 51 1 27 46
M  V30 52 1 28 47
M  V30 53 1 28 48
M  V30 54 1 29 49
M  V30 55 1 29 50
M  V30 56 1 30 51
M  V30 57 1 30 52
M  V30 END BOND
M  V30 END CTAB
M  END
>  <Dataset>  (178) 
ChEMBL_Kinases

>  <Ligand_Instance>  (178) 
nan

>  <PDB_ID>  (178) 
nan

>  <Standardized_SMILES>  (178) 
NC1(c2ccc(-c3nc4n(c3-c3ccccc3)COc3ccncc3-4)cc2)CCC1

>  <Name>  (178) 
nan

>  <Pocket>  (178) 
nan

>  <ATP_Site>  (178) 
nan

>  <Peripheral>  (178) 
nan

>  <Num_H_Atoms_ProtBoundConf>  (178) 
nan

>  <Num_Resolved_Atoms>  (178) 
nan

>  <Num_Not_Resolved_Atoms>  (178) 
nan

$$$$
CHEMBL2153529
     RDKit          3D

  0  0  0  0  0  0  0  0  0  0999 V3000
M  V30 BEGIN CTAB
M  V30 COUNTS 30 33 0 0 0
M  V30 BEGIN ATOM
M  V30 1 F 0.523550 -3.553465 0.460090 0
M  V30 2 C 1.749480 -3.126298 0.864701 0
M  V30 3 C 2.290515 -3.846454 1.907974 0
M  V30 4 C 3.539037 -3.460881 2.345598 0
M  V30 5 Br 4.369175 -4.403492 3.790971 0
M  V30 6 C 4.294448 -2.405150 1.819168 0
M  V30 7 C 3.685636 -1.732891 0.778075 0
M  V30 8 C 2.417797 -2.071462 0.282908 0
M  V30 9 N 1.862523 -1.362527 -0.775721 0
M  V30 10 C 0.759679 -0.536316 -1.102390 0
M  V30 11 N 0.568925 -0.089604 -2.383281 0
M  V30 12 C -0.501309 0.697574 -2.569389 0
M  V30 13 N -1.352492 1.052693 -1.611904 0
M  V30 14 C -1.220418 0.648037 -0.336234 0
M  V30 15 C -0.135476 -0.151506 -0.142883 0
M  V30 16 S -0.126414 -0.568455 1.561355 0
M  V30 17 C -1.684764 0.418359 1.953553 0
M  V30 18 N -2.335677 0.592421 3.121482 0
M  V30 19 C -3.443007 1.347746 3.189306 0
M  V30 20 C -3.823663 1.901260 1.989026 0
M  V30 21 C -3.161317 1.724458 0.801731 0
M  V30 22 C -2.026633 0.952003 0.725283 0
M  V30 23 H 1.817848 -4.690656 2.414140 0
M  V30 24 H 5.270777 -2.142241 2.197544 0
M  V30 25 H 4.208691 -0.905242 0.320635 0
M  V30 26 H 2.518274 -1.536197 -1.566083 0
M  V30 27 H -0.667070 1.060582 -3.575011 0
M  V30 28 H -3.889097 1.425686 4.155251 0
M  V30 29 H -4.722948 2.520162 2.025479 0
M  V30 30 H -3.583192 2.224715 -0.058469 0
M  V30 END ATOM
M  V30 BEGIN BOND
M  V30 1 1 1 2
M  V30 2 2 2 3
M  V30 3 1 3 4
M  V30 4 1 4 5
M  V30 5 2 4 6
M  V30 6 1 6 7
M  V30 7 2 7 8
M  V30 8 1 8 9
M  V30 9 1 9 10
M  V30 10 2 10 11
M  V30 11 1 11 12
M  V30 12 2 12 13
M  V30 13 1 13 14
M  V30 14 2 14 15
M  V30 15 1 15 16
M  V30 16 1 16 17
M  V30 17 2 17 18
M  V30 18 1 18 19
M  V30 19 2 19 20
M  V30 20 1 20 21
M  V30 21 2 21 22
M  V30 22 1 8 2
M  V30 23 1 15 10
M  V30 24 1 22 17
M  V30 25 1 22 14
M  V30 26 1 3 23
M  V30 27 1 6 24
M  V30 28 1 7 25
M  V30 29 1 9 26
M  V30 30 1 12 27
M  V30 31 1 19 28
M  V30 32 1 20 29
M  V30 33 1 21 30
M  V30 END BOND
M  V30 END CTAB
M  END
>  <Dataset>  (179) 
ChEMBL_Kinases

>  <Ligand_Instance>  (179) 
nan

>  <PDB_ID>  (179) 
nan

>  <Standardized_SMILES>  (179) 
Fc1cc(Br)ccc1Nc1ncnc2c1sc1ncccc12

>  <Name>  (179) 
nan

>  <Pocket>  (179) 
nan

>  <ATP_Site>  (179) 
nan

>  <Peripheral>  (179) 
nan

>  <Num_H_Atoms_ProtBoundConf>  (179) 
nan

>  <Num_Resolved_Atoms>  (179) 
nan

>  <Num_Not_Resolved_Atoms>  (179) 
nan

$$$$
CHEMBL3092187
     RDKit          3D

  0  0  0  0  0  0  0  0  0  0999 V3000
M  V30 BEGIN CTAB
M  V30 COUNTS 51 53 0 0 0
M  V30 BEGIN ATOM
M  V30 1 C -1.858223 1.121116 -1.128253 0
M  V30 2 C -0.867304 0.157305 -1.613581 0
M  V30 3 C -1.277053 -0.738798 -2.579218 0
M  V30 4 C -2.606544 -0.877509 -3.189547 0
M  V30 5 C -3.601142 -1.566836 -2.345192 0
M  V30 6 C -3.615493 -2.947192 -2.429252 0
M  V30 7 C -4.460941 -3.787628 -1.731425 0
M  V30 8 C -5.377566 -3.216792 -0.870994 0
M  V30 9 C -5.401029 -1.821634 -0.752091 0
M  V30 10 N -6.325580 -1.201155 0.122951 0
M  V30 11 S -7.332698 0.172868 -0.151252 0
M  V30 12 N -6.339336 1.567295 -0.477951 0
M  V30 13 O -8.298635 -0.058925 -1.273940 0
M  V30 14 O -8.073593 0.513631 1.132181 0
M  V30 15 C -4.529548 -1.036478 -1.477073 0
M  V30 16 C -0.270313 -1.620844 -2.997448 0
M  V30 17 O -0.458223 -2.512951 -3.876467 0
M  V30 18 O 0.965287 -1.641839 -2.549597 0
M  V30 19 C 1.389858 -0.799918 -1.626772 0
M  V30 20 C 2.680835 -0.800525 -1.138861 0
M  V30 21 F 3.539675 -1.717680 -1.644723 0
M  V30 22 C 3.086685 0.111571 -0.159116 0
M  V30 23 O 4.401943 0.046047 0.280093 0
M  V30 24 C 5.437753 0.707757 -0.341969 0
M  V30 25 O 4.937378 1.327126 -1.316428 0
M  V30 26 N 6.795233 0.643254 0.107861 0
M  V30 27 C 7.174533 -0.135995 1.270174 0
M  V30 28 C 7.717887 1.406300 -0.686216 0
M  V30 29 C 2.149231 1.014504 0.304141 0
M  V30 30 C 0.866495 0.987443 -0.205636 0
M  V30 31 C 0.444145 0.097507 -1.171777 0
M  V30 32 H -2.608748 1.340383 -1.946802 0
M  V30 33 H -2.438329 0.820774 -0.256037 0
M  V30 34 H -1.360767 2.128973 -0.994579 0
M  V30 35 H -2.516408 -1.436381 -4.142441 0
M  V30 36 H -3.023625 0.124120 -3.510095 0
M  V30 37 H -2.914014 -3.476748 -3.093408 0
M  V30 38 H -4.422321 -4.859706 -1.840868 0
M  V30 39 H -6.076402 -3.778073 -0.285685 0
M  V30 40 H -6.359056 -1.695577 1.064204 0
M  V30 41 H -5.523284 1.579948 0.145915 0
M  V30 42 H -6.977517 2.403939 -0.356171 0
M  V30 43 H -4.528475 0.042653 -1.405828 0
M  V30 44 H 8.182760 0.189847 1.568503 0
M  V30 45 H 7.116711 -1.223027 0.996303 0
M  V30 46 H 6.450491 0.126577 2.081104 0
M  V30 47 H 8.620090 1.744327 -0.128958 0
M  V30 48 H 8.125346 0.801715 -1.536857 0
M  V30 49 H 7.256562 2.297184 -1.151433 0
M  V30 50 H 2.453257 1.724458 1.063863 0
M  V30 51 H 0.197419 1.725992 0.212410 0
M  V30 END ATOM
M  V30 BEGIN BOND
M  V30 1 1 1 2
M  V30 2 2 2 3
M  V30 3 1 3 4
M  V30 4 1 4 5
M  V30 5 2 5 6
M  V30 6 1 6 7
M  V30 7 2 7 8
M  V30 8 1 8 9
M  V30 9 1 9 10
M  V30 10 1 10 11
M  V30 11 1 11 12
M  V30 12 2 11 13
M  V30 13 2 11 14
M  V30 14 2 9 15
M  V30 15 1 3 16
M  V30 16 2 16 17
M  V30 17 1 16 18
M  V30 18 1 18 19
M  V30 19 2 19 20
M  V30 20 1 20 21
M  V30 21 1 20 22
M  V30 22 1 22 23
M  V30 23 1 23 24
M  V30 24 2 24 25
M  V30 25 1 24 26
M  V30 26 1 26 27
M  V30 27 1 26 28
M  V30 28 2 22 29
M  V30 29 1 29 30
M  V30 30 2 30 31
M  V30 31 1 31 2
M  V30 32 1 15 5
M  V30 33 1 31 19
M  V30 34 1 1 32
M  V30 35 1 1 33
M  V30 36 1 1 34
M  V30 37 1 4 35
M  V30 38 1 4 36
M  V30 39 1 6 37
M  V30 40 1 7 38
M  V30 41 1 8 39
M  V30 42 1 10 40
M  V30 43 1 12 41
M  V30 44 1 12 42
M  V30 45 1 15 43
M  V30 46 1 27 44
M  V30 47 1 27 45
M  V30 48 1 27 46
M  V30 49 1 28 47
M  V30 50 1 28 48
M  V30 51 1 28 49
M  V30 52 1 29 50
M  V30 53 1 30 51
M  V30 END BOND
M  V30 END CTAB
M  END
>  <Dataset>  (180) 
ChEMBL_Kinases

>  <Ligand_Instance>  (180) 
nan

>  <PDB_ID>  (180) 
nan

>  <Standardized_SMILES>  (180) 
Cc1c(Cc2cccc(NS(N)(=O)=O)c2)c(=O)oc2c(F)c(OC(=O)N(C)C)ccc12

>  <Name>  (180) 
nan

>  <Pocket>  (180) 
nan

>  <ATP_Site>  (180) 
nan

>  <Peripheral>  (180) 
nan

>  <Num_H_Atoms_ProtBoundConf>  (180) 
nan

>  <Num_Resolved_Atoms>  (180) 
nan

>  <Num_Not_Resolved_Atoms>  (180) 
nan

$$$$
CHEMBL3092188
     RDKit          3D

  0  0  0  0  0  0  0  0  0  0999 V3000
M  V30 BEGIN CTAB
M  V30 COUNTS 51 53 0 0 0
M  V30 BEGIN ATOM
M  V30 1 C 1.331285 -3.034320 7.156833 0
M  V30 2 N 2.685251 -2.670046 6.792541 0
M  V30 3 C 3.865416 -2.758004 7.621979 0
M  V30 4 C 2.871268 -2.148546 5.506268 0
M  V30 5 O 2.636074 -1.724050 4.346628 0
M  V30 6 O 2.596576 -1.727687 4.354587 0
M  V30 7 C 2.356934 -1.293368 3.166314 0
M  V30 8 C 2.943074 -0.114622 2.675953 0
M  V30 9 C 2.595397 0.256310 1.366466 0
M  V30 10 C 1.726849 -0.495985 0.605692 0
M  V30 11 C 1.462108 -0.022597 -0.662327 0
M  V30 12 C 2.080902 1.200487 -1.194761 0
M  V30 13 F 3.418929 0.862751 -1.485676 0
M  V30 14 C 0.616093 -0.665804 -1.521471 0
M  V30 15 C 0.139656 -0.373589 -2.886658 0
M  V30 16 C -0.923422 0.649271 -2.971401 0
M  V30 17 C -0.891682 1.974258 -3.398408 0
M  V30 18 C -1.937963 2.860196 -3.434771 0
M  V30 19 C -3.159782 2.406852 -3.007380 0
M  V30 20 C -3.356131 1.109615 -2.550940 0
M  V30 21 N -4.610920 0.626289 -2.116795 0
M  V30 22 S -5.516366 -0.796743 -2.426439 0
M  V30 23 N -4.624368 -2.193808 -1.886157 0
M  V30 24 O -6.773717 -0.779574 -1.582637 0
M  V30 25 O -5.933168 -0.946278 -3.853214 0
M  V30 26 C -2.223152 0.313972 -2.562905 0
M  V30 27 C 0.101740 -1.824658 -0.914657 0
M  V30 28 O -0.709740 -2.650787 -1.438064 0
M  V30 29 O 0.335515 -2.298939 0.287881 0
M  V30 30 C 1.166880 -1.645159 1.106525 0
M  V30 31 C 1.494394 -2.025996 2.385432 0
M  V30 32 H 1.123620 -4.112990 6.894067 0
M  V30 33 H 1.222549 -2.959974 8.255751 0
M  V30 34 H 0.569256 -2.428577 6.637239 0
M  V30 35 H 3.644696 -2.090933 8.500369 0
M  V30 36 H 4.117132 -3.752044 7.994473 0
M  V30 37 H 4.762495 -2.363255 7.133415 0
M  V30 38 H 3.622090 0.454881 3.291569 0
M  V30 39 H 3.097282 1.173712 1.076485 0
M  V30 40 H 1.594154 1.612210 -2.074627 0
M  V30 41 H 2.150540 2.015394 -0.450143 0
M  V30 42 H 0.990643 -0.092757 -3.554265 0
M  V30 43 H -0.307202 -1.305812 -3.318574 0
M  V30 44 H 0.085805 2.296874 -3.737499 0
M  V30 45 H -1.725851 3.852838 -3.799309 0
M  V30 46 H -3.975552 3.105179 -3.042273 0
M  V30 47 H -5.013609 1.349728 -1.467368 0
M  V30 48 H -3.949202 -2.432121 -2.615663 0
M  V30 49 H -4.147169 -1.886495 -1.017534 0
M  V30 50 H -2.404085 -0.686052 -2.202299 0
M  V30 51 H 1.026180 -2.945953 2.742406 0
M  V30 END ATOM
M  V30 BEGIN BOND
M  V30 1 1 1 2
M  V30 2 1 2 3
M  V30 3 1 2 4
M  V30 4 2 4 5
M  V30 5 1 4 6
M  V30 6 1 6 7
M  V30 7 2 7 8
M  V30 8 1 8 9
M  V30 9 2 9 10
M  V30 10 1 10 11
M  V30 11 1 11 12
M  V30 12 1 12 13
M  V30 13 2 11 14
M  V30 14 1 14 15
M  V30 15 1 15 16
M  V30 16 2 16 17
M  V30 17 1 17 18
M  V30 18 2 18 19
M  V30 19 1 19 20
M  V30 20 1 20 21
M  V30 21 1 21 22
M  V30 22 1 22 23
M  V30 23 2 22 24
M  V30 24 2 22 25
M  V30 25 2 20 26
M  V30 26 1 14 27
M  V30 27 2 27 28
M  V30 28 1 27 29
M  V30 29 1 29 30
M  V30 30 2 30 31
M  V30 31 1 31 7
M  V30 32 1 30 10
M  V30 33 1 26 16
M  V30 34 1 1 32
M  V30 35 1 1 33
M  V30 36 1 1 34
M  V30 37 1 3 35
M  V30 38 1 3 36
M  V30 39 1 3 37
M  V30 40 1 8 38
M  V30 41 1 9 39
M  V30 42 1 12 40
M  V30 43 1 12 41
M  V30 44 1 15 42
M  V30 45 1 15 43
M  V30 46 1 17 44
M  V30 47 1 18 45
M  V30 48 1 19 46
M  V30 49 1 21 47
M  V30 50 1 23 48
M  V30 51 1 23 49
M  V30 52 1 26 50
M  V30 53 1 31 51
M  V30 END BOND
M  V30 END CTAB
M  END
>  <Dataset>  (181) 
ChEMBL_Kinases

>  <Ligand_Instance>  (181) 
nan

>  <PDB_ID>  (181) 
nan

>  <Standardized_SMILES>  (181) 
CN(C)C(=O)Oc1ccc2c(CF)c(Cc3cccc(NS(N)(=O)=O)c3)c(=O)oc2c1

>  <Name>  (181) 
nan

>  <Pocket>  (181) 
nan

>  <ATP_Site>  (181) 
nan

>  <Peripheral>  (181) 
nan

>  <Num_H_Atoms_ProtBoundConf>  (181) 
nan

>  <Num_Resolved_Atoms>  (181) 
nan

>  <Num_Not_Resolved_Atoms>  (181) 
nan

$$$$
CHEMBL3092189
     RDKit          3D

  0  0  0  0  0  0  0  0  0  0999 V3000
M  V30 BEGIN CTAB
M  V30 COUNTS 54 56 0 0 0
M  V30 BEGIN ATOM
M  V30 1 C 2.732546 -3.014838 3.412544 0
M  V30 2 N 3.290892 -1.968208 4.213007 0
M  V30 3 S 4.988558 -1.771905 3.932713 0
M  V30 4 O 5.606772 -0.833899 4.900434 0
M  V30 5 O 5.598138 -3.140122 4.138682 0
M  V30 6 N 5.231254 -1.341574 2.291916 0
M  V30 7 C 4.632337 -0.105828 1.861276 0
M  V30 8 C 4.703184 1.050960 2.604249 0
M  V30 9 C 4.105895 2.186903 2.125233 0
M  V30 10 C 3.442125 2.179866 0.919055 0
M  V30 11 C 3.330241 1.062146 0.123047 0
M  V30 12 C 2.646540 0.913674 -1.183696 0
M  V30 13 C 1.287707 0.371958 -1.003903 0
M  V30 14 C 0.170052 1.053693 -0.575797 0
M  V30 15 C 0.285303 2.463359 -0.268163 0
M  V30 16 C -1.018122 0.329692 -0.472979 0
M  V30 17 C -2.144837 0.970051 -0.050732 0
M  V30 18 C -3.370453 0.353365 0.087473 0
M  V30 19 C -3.496625 -0.987178 -0.210379 0
M  V30 20 O -4.613932 -1.809255 -0.148571 0
M  V30 21 C -5.486840 -1.979929 -1.200267 0
M  V30 22 O -4.578547 -1.183085 -1.547259 0
M  V30 23 N -6.642252 -2.809578 -1.187162 0
M  V30 24 C -7.046099 -3.592942 -0.035587 0
M  V30 25 C -7.451948 -2.872091 -2.382450 0
M  V30 26 C -2.365954 -1.667817 -0.642757 0
M  V30 27 C -1.161648 -1.009970 -0.765890 0
M  V30 28 O -0.063592 -1.639895 -1.177332 0
M  V30 29 C 1.076187 -0.985382 -1.285230 0
M  V30 30 O 1.981410 -1.773575 -1.689446 0
M  V30 31 C 3.947520 -0.066744 0.641288 0
M  V30 32 H 2.113656 -2.539344 2.617085 0
M  V30 33 H 3.522496 -3.596521 2.907159 0
M  V30 34 H 2.118738 -3.734307 3.995660 0
M  V30 35 H 2.789582 -1.058440 4.135167 0
M  V30 36 H 5.763258 -1.869899 1.561123 0
M  V30 37 H 5.219869 1.058633 3.544158 0
M  V30 38 H 4.115586 3.140580 2.650741 0
M  V30 39 H 2.974807 3.075374 0.534768 0
M  V30 40 H 2.655651 1.860099 -1.763938 0
M  V30 41 H 3.259177 0.203103 -1.789612 0
M  V30 42 H 0.568165 2.758371 0.746632 0
M  V30 43 H -0.626360 3.009224 -0.655075 0
M  V30 44 H 1.098702 2.893241 -0.930183 0
M  V30 45 H -2.147912 2.000537 0.202732 0
M  V30 46 H -4.296112 0.800762 0.414802 0
M  V30 47 H -6.990608 -4.664757 -0.362979 0
M  V30 48 H -8.053985 -3.364544 0.322052 0
M  V30 49 H -6.278614 -3.522696 0.781279 0
M  V30 50 H -8.491664 -2.554206 -2.105600 0
M  V30 51 H -7.117820 -2.181892 -3.167734 0
M  V30 52 H -7.508229 -3.884233 -2.835431 0
M  V30 53 H -2.331667 -2.735077 -0.911965 0
M  V30 54 H 3.918432 -0.999311 0.094540 0
M  V30 END ATOM
M  V30 BEGIN BOND
M  V30 1 1 1 2
M  V30 2 1 2 3
M  V30 3 2 3 4
M  V30 4 2 3 5
M  V30 5 1 3 6
M  V30 6 1 6 7
M  V30 7 2 7 8
M  V30 8 1 8 9
M  V30 9 2 9 10
M  V30 10 1 10 11
M  V30 11 1 11 12
M  V30 12 1 12 13
M  V30 13 2 13 14
M  V30 14 1 14 15
M  V30 15 1 14 16
M  V30 16 2 16 17
M  V30 17 1 17 18
M  V30 18 2 18 19
M  V30 19 1 19 20
M  V30 20 1 20 21
M  V30 21 2 21 22
M  V30 22 1 21 23
M  V30 23 1 23 24
M  V30 24 1 23 25
M  V30 25 1 19 26
M  V30 26 2 26 27
M  V30 27 1 27 28
M  V30 28 1 28 29
M  V30 29 2 29 30
M  V30 30 2 11 31
M  V30 31 1 31 7
M  V30 32 1 29 13
M  V30 33 1 27 16
M  V30 34 1 1 32
M  V30 35 1 1 33
M  V30 36 1 1 34
M  V30 37 1 2 35
M  V30 38 1 6 36
M  V30 39 1 8 37
M  V30 40 1 9 38
M  V30 41 1 10 39
M  V30 42 1 12 40
M  V30 43 1 12 41
M  V30 44 1 15 42
M  V30 45 1 15 43
M  V30 46 1 15 44
M  V30 47 1 17 45
M  V30 48 1 18 46
M  V30 49 1 24 47
M  V30 50 1 24 48
M  V30 51 1 24 49
M  V30 52 1 25 50
M  V30 53 1 25 51
M  V30 54 1 25 52
M  V30 55 1 26 53
M  V30 56 1 31 54
M  V30 END BOND
M  V30 END CTAB
M  END
>  <Dataset>  (182) 
ChEMBL_Kinases

>  <Ligand_Instance>  (182) 
nan

>  <PDB_ID>  (182) 
nan

>  <Standardized_SMILES>  (182) 
CNS(=O)(=O)Nc1cccc(Cc2c(C)c3ccc(OC(=O)N(C)C)cc3oc2=O)c1

>  <Name>  (182) 
nan

>  <Pocket>  (182) 
nan

>  <ATP_Site>  (182) 
nan

>  <Peripheral>  (182) 
nan

>  <Num_H_Atoms_ProtBoundConf>  (182) 
nan

>  <Num_Resolved_Atoms>  (182) 
nan

>  <Num_Not_Resolved_Atoms>  (182) 
nan

$$$$
CHEMBL3092190
     RDKit          3D

  0  0  0  0  0  0  0  0  0  0999 V3000
M  V30 BEGIN CTAB
M  V30 COUNTS 54 56 0 0 0
M  V30 BEGIN ATOM
M  V30 1 C 5.992929 1.006187 3.348285 0
M  V30 2 N 6.952146 -0.053012 3.058599 0
M  V30 3 S 6.159081 -1.340047 2.247237 0
M  V30 4 O 7.129984 -2.460284 2.017512 0
M  V30 5 O 5.105001 -1.861233 3.196737 0
M  V30 6 N 5.491252 -0.870119 0.751385 0
M  V30 7 C 4.473835 0.126198 0.629840 0
M  V30 8 C 4.638428 1.061233 -0.371003 0
M  V30 9 C 3.666201 2.029476 -0.507869 0
M  V30 10 C 2.586075 2.025866 0.346396 0
M  V30 11 F 1.711397 3.028222 0.105863 0
M  V30 12 C 2.365954 1.123726 1.359943 0
M  V30 13 C 1.209305 1.141934 2.253309 0
M  V30 14 C -0.049776 0.652438 1.697872 0
M  V30 15 C -0.409939 -0.678858 1.472123 0
M  V30 16 C 0.603700 -1.705722 1.862708 0
M  V30 17 C -1.635660 -0.992171 0.934317 0
M  V30 18 C -1.945410 -2.314180 0.729036 0
M  V30 19 C -3.139784 -2.692805 0.201014 0
M  V30 20 C -4.129847 -1.775062 -0.168148 0
M  V30 21 O -5.346398 -2.169412 -0.705698 0
M  V30 22 C -5.593730 -2.378927 -2.045443 0
M  V30 23 O -5.068710 -2.116541 -0.936383 0
M  V30 24 N -6.808450 -2.779079 -2.653341 0
M  V30 25 C -8.132862 -3.090797 -2.128058 0
M  V30 26 C -6.619096 -2.877254 -4.096491 0
M  V30 27 C -3.790891 -0.437070 0.050049 0
M  V30 28 C -2.582001 -0.051691 0.584680 0
M  V30 29 O -2.246649 1.192263 0.796284 0
M  V30 30 C -1.076144 1.520944 1.311184 0
M  V30 31 O -0.976332 2.761446 1.424296 0
M  V30 32 C 3.356873 0.175746 1.463408 0
M  V30 33 H 6.418266 1.745601 4.049947 0
M  V30 34 H 5.091871 0.560522 3.769579 0
M  V30 35 H 5.844406 1.554286 2.388486 0
M  V30 36 H 7.292774 -0.381927 3.988919 0
M  V30 37 H 5.805640 -1.302644 -0.167066 0
M  V30 38 H 5.492962 1.045690 -1.029009 0
M  V30 39 H 3.818990 2.749695 -1.298618 0
M  V30 40 H 1.426855 0.644885 3.241967 0
M  V30 41 H 1.028101 2.215058 2.552373 0
M  V30 42 H 0.138273 -2.637145 2.260738 0
M  V30 43 H 1.188088 -1.320940 2.754485 0
M  V30 44 H 1.225512 -1.978599 1.013442 0
M  V30 45 H -1.289226 -3.139246 0.959097 0
M  V30 46 H -3.432323 -3.723380 0.019879 0
M  V30 47 H -8.916563 -2.460116 -2.556998 0
M  V30 48 H -8.287227 -4.188047 -2.323147 0
M  V30 49 H -8.060700 -2.996013 -1.017974 0
M  V30 50 H -6.403547 -1.912664 -4.562098 0
M  V30 51 H -5.743698 -3.549873 -4.256034 0
M  V30 52 H -7.479032 -3.386975 -4.576892 0
M  V30 53 H -4.524077 0.337430 -0.218337 0
M  V30 54 H 3.365133 -0.600464 2.186319 0
M  V30 END ATOM
M  V30 BEGIN BOND
M  V30 1 1 1 2
M  V30 2 1 2 3
M  V30 3 2 3 4
M  V30 4 2 3 5
M  V30 5 1 3 6
M  V30 6 1 6 7
M  V30 7 2 7 8
M  V30 8 1 8 9
M  V30 9 2 9 10
M  V30 10 1 10 11
M  V30 11 1 10 12
M  V30 12 1 12 13
M  V30 13 1 13 14
M  V30 14 2 14 15
M  V30 15 1 15 16
M  V30 16 1 15 17
M  V30 17 2 17 18
M  V30 18 1 18 19
M  V30 19 2 19 20
M  V30 20 1 20 21
M  V30 21 1 21 22
M  V30 22 2 22 23
M  V30 23 1 22 24
M  V30 24 1 24 25
M  V30 25 1 24 26
M  V30 26 1 20 27
M  V30 27 2 27 28
M  V30 28 1 28 29
M  V30 29 1 29 30
M  V30 30 2 30 31
M  V30 31 2 12 32
M  V30 32 1 32 7
M  V30 33 1 30 14
M  V30 34 1 28 17
M  V30 35 1 1 33
M  V30 36 1 1 34
M  V30 37 1 1 35
M  V30 38 1 2 36
M  V30 39 1 6 37
M  V30 40 1 8 38
M  V30 41 1 9 39
M  V30 42 1 13 40
M  V30 43 1 13 41
M  V30 44 1 16 42
M  V30 45 1 16 43
M  V30 46 1 16 44
M  V30 47 1 18 45
M  V30 48 1 19 46
M  V30 49 1 25 47
M  V30 50 1 25 48
M  V30 51 1 25 49
M  V30 52 1 26 50
M  V30 53 1 26 51
M  V30 54 1 26 52
M  V30 55 1 27 53
M  V30 56 1 32 54
M  V30 END BOND
M  V30 END CTAB
M  END
>  <Dataset>  (183) 
ChEMBL_Kinases

>  <Ligand_Instance>  (183) 
nan

>  <PDB_ID>  (183) 
nan

>  <Standardized_SMILES>  (183) 
CNS(=O)(=O)Nc1ccc(F)c(Cc2c(C)c3ccc(OC(=O)N(C)C)cc3oc2=O)c1

>  <Name>  (183) 
nan

>  <Pocket>  (183) 
nan

>  <ATP_Site>  (183) 
nan

>  <Peripheral>  (183) 
nan

>  <Num_H_Atoms_ProtBoundConf>  (183) 
nan

>  <Num_Resolved_Atoms>  (183) 
nan

>  <Num_Not_Resolved_Atoms>  (183) 
nan

$$$$
CHEMBL3092191
     RDKit          3D

  0  0  0  0  0  0  0  0  0  0999 V3000
M  V30 BEGIN CTAB
M  V30 COUNTS 54 56 0 0 0
M  V30 BEGIN ATOM
M  V30 1 C 6.595657 1.075163 4.264135 0
M  V30 2 N 6.737417 -0.323437 4.511639 0
M  V30 3 S 5.299569 -1.189144 4.781698 0
M  V30 4 O 5.701707 -2.636513 5.033335 0
M  V30 5 O 4.637917 -0.668872 6.037268 0
M  V30 6 N 4.197849 -1.177802 3.464922 0
M  V30 7 C 3.561582 -0.044768 2.895201 0
M  V30 8 C 3.373892 1.067519 3.700545 0
M  V30 9 C 2.747656 2.168003 3.160012 0
M  V30 10 C 2.326931 2.142363 1.852086 0
M  V30 11 C 2.486180 1.058524 0.997307 0
M  V30 12 C 2.015576 1.099692 -0.404426 0
M  V30 13 C 0.781954 0.316586 -0.613383 0
M  V30 14 C -0.496605 0.654322 -0.235811 0
M  V30 15 C -0.687356 1.949698 0.442316 0
M  V30 16 C -1.523286 -0.210657 -0.518593 0
M  V30 17 C -2.814148 0.100953 -0.149743 0
M  V30 18 C -3.906707 -0.705118 -0.390575 0
M  V30 19 C -3.738543 -1.909687 -1.040069 0
M  V30 20 O -4.708464 -2.846338 -1.368063 0
M  V30 21 C -5.392701 -2.814029 -2.580813 0
M  V30 22 O -5.432218 -2.126798 -3.621162 0
M  V30 23 N -6.378106 -3.810684 -2.850438 0
M  V30 24 C -7.084514 -3.763189 -4.123944 0
M  V30 25 C -6.837421 -4.932984 -2.043351 0
M  V30 26 C -2.459635 -2.254393 -1.423775 0
M  V30 27 C -1.373134 -1.417601 -1.166021 0
M  V30 28 O -0.139574 -1.739488 -1.529614 0
M  V30 29 C 0.845558 -0.912289 -1.259381 0
M  V30 30 O 1.922282 -1.430780 -1.702204 0
M  V30 31 C 3.116185 -0.005355 1.593282 0
M  V30 32 F 3.351205 -1.129424 0.902270 0
M  V30 33 H 6.008910 1.549232 5.067775 0
M  V30 34 H 6.208523 1.265435 3.241959 0
M  V30 35 H 7.648209 1.496796 4.309732 0
M  V30 36 H 7.346991 -0.760634 3.782125 0
M  V30 37 H 3.921067 -2.086064 2.982130 0
M  V30 38 H 3.708364 1.060313 4.720137 0
M  V30 39 H 2.626110 3.003604 3.822837 0
M  V30 40 H 1.862182 3.053175 1.550453 0
M  V30 41 H 2.832422 0.667606 -1.020849 0
M  V30 42 H 1.879884 2.143280 -0.757008 0
M  V30 43 H -0.540589 1.916166 1.537642 0
M  V30 44 H 0.078317 2.689783 0.053741 0
M  V30 45 H -1.660497 2.426337 0.148349 0
M  V30 46 H -3.053504 1.018893 0.366752 0
M  V30 47 H -4.925447 -0.479164 -0.109989 0
M  V30 48 H -8.193864 -3.744554 -3.999884 0
M  V30 49 H -6.839344 -2.858773 -4.721656 0
M  V30 50 H -6.823618 -4.626507 -4.769312 0
M  V30 51 H -6.072860 -5.048954 -1.240748 0
M  V30 52 H -6.838675 -5.879567 -2.637371 0
M  V30 53 H -7.822720 -4.749323 -1.594919 0
M  V30 54 H -2.185607 -3.164010 -1.937852 0
M  V30 END ATOM
M  V30 BEGIN BOND
M  V30 1 1 1 2
M  V30 2 1 2 3
M  V30 3 2 3 4
M  V30 4 2 3 5
M  V30 5 1 3 6
M  V30 6 1 6 7
M  V30 7 2 7 8
M  V30 8 1 8 9
M  V30 9 2 9 10
M  V30 10 1 10 11
M  V30 11 1 11 12
M  V30 12 1 12 13
M  V30 13 2 13 14
M  V30 14 1 14 15
M  V30 15 1 14 16
M  V30 16 2 16 17
M  V30 17 1 17 18
M  V30 18 2 18 19
M  V30 19 1 19 20
M  V30 20 1 20 21
M  V30 21 2 21 22
M  V30 22 1 21 23
M  V30 23 1 23 24
M  V30 24 1 23 25
M  V30 25 1 19 26
M  V30 26 2 26 27
M  V30 27 1 27 28
M  V30 28 1 28 29
M  V30 29 2 29 30
M  V30 30 2 11 31
M  V30 31 1 31 32
M  V30 32 1 31 7
M  V30 33 1 29 13
M  V30 34 1 27 16
M  V30 35 1 1 33
M  V30 36 1 1 34
M  V30 37 1 1 35
M  V30 38 1 2 36
M  V30 39 1 6 37
M  V30 40 1 8 38
M  V30 41 1 9 39
M  V30 42 1 10 40
M  V30 43 1 12 41
M  V30 44 1 12 42
M  V30 45 1 15 43
M  V30 46 1 15 44
M  V30 47 1 15 45
M  V30 48 1 17 46
M  V30 49 1 18 47
M  V30 50 1 24 48
M  V30 51 1 24 49
M  V30 52 1 24 50
M  V30 53 1 25 51
M  V30 54 1 25 52
M  V30 55 1 25 53
M  V30 56 1 26 54
M  V30 END BOND
M  V30 END CTAB
M  END
>  <Dataset>  (184) 
ChEMBL_Kinases

>  <Ligand_Instance>  (184) 
nan

>  <PDB_ID>  (184) 
nan

>  <Standardized_SMILES>  (184) 
CNS(=O)(=O)Nc1cccc(Cc2c(C)c3ccc(OC(=O)N(C)C)cc3oc2=O)c1F

>  <Name>  (184) 
nan

>  <Pocket>  (184) 
nan

>  <ATP_Site>  (184) 
nan

>  <Peripheral>  (184) 
nan

>  <Num_H_Atoms_ProtBoundConf>  (184) 
nan

>  <Num_Resolved_Atoms>  (184) 
nan

>  <Num_Not_Resolved_Atoms>  (184) 
nan

$$$$
CHEMBL4585067
     RDKit          3D

  0  0  0  0  0  0  0  0  0  0999 V3000
M  V30 BEGIN CTAB
M  V30 COUNTS 37 40 0 0 0
M  V30 BEGIN ATOM
M  V30 1 C 0.146635 -0.586007 4.349701 0
M  V30 2 C -0.338990 -1.988879 4.264159 0
M  V30 3 N -0.662686 -2.852721 5.266874 0
M  V30 4 N -1.053429 -4.011022 4.758765 0
M  V30 5 C -1.006502 -3.966365 3.414801 0
M  V30 6 C -0.559212 -2.700295 3.106150 0
M  V30 7 C -0.369819 -2.247629 1.735431 0
M  V30 8 N 0.066862 -1.004592 1.537240 0
M  V30 9 C 0.276535 -0.483357 0.316398 0
M  V30 10 N 0.737702 0.829282 0.172022 0
M  V30 11 C 1.142636 1.968415 -0.584623 0
M  V30 12 C 0.045491 2.688670 -1.395439 0
M  V30 13 C 2.454337 1.938275 -1.335852 0
M  V30 14 C 2.277666 2.856849 -0.202751 0
M  V30 15 C 0.000439 -1.348303 -0.719225 0
M  V30 16 C 0.179655 -0.931561 -2.019963 0
M  V30 17 C -0.059636 -1.704061 -3.135673 0
M  V30 18 N -0.506646 -2.974634 -2.935970 0
M  V30 19 C -0.710657 -3.466928 -1.678875 0
M  V30 20 C -0.452641 -2.644130 -0.607160 0
M  V30 21 N -0.613717 -3.020946 0.672031 0
M  V30 22 H 1.249339 -0.523741 4.271877 0
M  V30 23 H -0.110080 -0.248301 5.395065 0
M  V30 24 H -0.388874 0.070290 3.637121 0
M  V30 25 H -1.351971 -4.831471 5.330588 0
M  V30 26 H -1.262275 -4.751235 2.685289 0
M  V30 27 H 0.871874 1.313123 1.108123 0
M  V30 28 H -0.945788 2.247161 -1.169129 0
M  V30 29 H 0.085788 3.773072 -1.212286 0
M  V30 30 H 0.218035 2.488795 -2.472990 0
M  V30 31 H 2.490513 2.245834 -2.394925 0
M  V30 32 H 3.142492 1.071126 -1.146319 0
M  V30 33 H 2.844327 2.663893 0.742770 0
M  V30 34 H 2.197522 3.927693 -0.416276 0
M  V30 35 H 0.533342 0.058148 -2.238057 0
M  V30 36 H 0.096446 -1.331504 -4.146801 0
M  V30 37 H -1.067064 -4.479369 -1.509125 0
M  V30 END ATOM
M  V30 BEGIN BOND
M  V30 1 1 1 2
M  V30 2 2 2 3
M  V30 3 1 3 4
M  V30 4 1 4 5
M  V30 5 2 5 6
M  V30 6 1 6 7
M  V30 7 2 7 8
M  V30 8 1 8 9
M  V30 9 1 9 10
M  V30 10 1 10 11
M  V30 11 1 11 12
M  V30 12 1 11 13
M  V30 13 1 13 14
M  V30 14 2 9 15
M  V30 15 1 15 16
M  V30 16 2 16 17
M  V30 17 1 17 18
M  V30 18 2 18 19
M  V30 19 1 19 20
M  V30 20 2 20 21
M  V30 21 1 6 2
M  V30 22 1 21 7
M  V30 23 1 14 11
M  V30 24 1 20 15
M  V30 25 1 1 22
M  V30 26 1 1 23
M  V30 27 1 1 24
M  V30 28 1 4 25
M  V30 29 1 5 26
M  V30 30 1 10 27
M  V30 31 1 12 28
M  V30 32 1 12 29
M  V30 33 1 12 30
M  V30 34 1 13 31
M  V30 35 1 13 32
M  V30 36 1 14 33
M  V30 37 1 14 34
M  V30 38 1 16 35
M  V30 39 1 17 36
M  V30 40 1 19 37
M  V30 END BOND
M  V30 END CTAB
M  END
>  <Dataset>  (185) 
ChEMBL_Kinases

>  <Ligand_Instance>  (185) 
nan

>  <PDB_ID>  (185) 
nan

>  <Standardized_SMILES>  (185) 
Cc1n[nH]cc1-c1nc(NC2(C)CC2)c2ccncc2n1

>  <Name>  (185) 
nan

>  <Pocket>  (185) 
nan

>  <ATP_Site>  (185) 
nan

>  <Peripheral>  (185) 
nan

>  <Num_H_Atoms_ProtBoundConf>  (185) 
nan

>  <Num_Resolved_Atoms>  (185) 
nan

>  <Num_Not_Resolved_Atoms>  (185) 
nan

$$$$
CHEMBL4580635
     RDKit          3D

  0  0  0  0  0  0  0  0  0  0999 V3000
M  V30 BEGIN CTAB
M  V30 COUNTS 71 74 0 0 0
M  V30 BEGIN ATOM
M  V30 1 C 2.737579 -4.052732 2.736921 0
M  V30 2 C 2.255615 -2.770311 2.099533 0
M  V30 3 N 2.161325 -1.765901 3.138248 0
M  V30 4 C 2.990960 -0.617492 3.037019 0
M  V30 5 O 3.763250 -0.535183 2.049184 0
M  V30 6 C 3.025582 0.484900 3.987467 0
M  V30 7 C 2.301045 0.693624 5.165767 0
M  V30 8 N 2.719645 1.876033 5.663416 0
M  V30 9 N 3.649754 2.422339 4.886558 0
M  V30 10 C 4.339331 3.670154 5.066709 0
M  V30 11 C 5.266323 4.024236 6.011565 0
M  V30 12 C 5.806889 5.280660 5.999672 0
M  V30 13 C 5.445422 6.223216 5.050738 0
M  V30 14 C 4.501458 5.834188 4.103382 0
M  V30 15 C 3.924964 4.561748 4.080906 0
M  V30 16 C 3.851339 1.574504 3.845017 0
M  V30 17 N 4.800723 1.857530 2.807040 0
M  V30 18 C 0.997532 -3.016930 1.404795 0
M  V30 19 C -0.232737 -3.234434 2.005829 0
M  V30 20 C -1.434813 -3.461742 1.349162 0
M  V30 21 C -1.371780 -3.465119 -0.027358 0
M  V30 22 C -2.635343 -3.703645 -0.708621 0
M  V30 23 O -3.709308 -3.966588 -0.103872 0
M  V30 24 N -2.771397 -3.660569 -2.118200 0
M  V30 25 C -3.716104 -3.810712 -3.153038 0 CFG=1
M  V30 26 C -3.904568 -2.724176 -4.134423 0
M  V30 27 C -4.348224 -1.399053 -3.668231 0
M  V30 28 C -3.489956 -0.664487 -2.711688 0
M  V30 29 C -4.398917 0.382219 -2.035847 0
M  V30 30 C -4.900787 1.260350 -3.133709 0
M  V30 31 C -4.403490 0.918698 -4.500841 0
M  V30 32 C -4.585531 -0.519634 -4.892010 0
M  V30 33 C -3.550843 -5.137114 -3.872029 0
M  V30 34 N -4.544579 -5.196576 -4.916988 0
M  V30 35 O -3.315099 -6.257547 -4.382811 0
M  V30 36 C -0.212416 -3.261294 -0.743847 0
M  V30 37 C 0.925478 -3.045525 0.004864 0
M  V30 38 H 2.152635 -4.169144 3.676426 0
M  V30 39 H 2.606037 -4.879524 2.042987 0
M  V30 40 H 3.789422 -3.916617 3.032928 0
M  V30 41 H 2.999719 -2.449793 1.348185 0
M  V30 42 H 1.542635 -1.808870 3.954064 0
M  V30 43 H 1.566287 0.000098 5.536033 0
M  V30 44 H 5.484583 3.233031 6.706713 0
M  V30 45 H 6.537720 5.525014 6.756278 0
M  V30 46 H 5.880621 7.211246 5.052545 0
M  V30 47 H 4.235926 6.594690 3.366411 0
M  V30 48 H 3.210490 4.419866 3.284172 0
M  V30 49 H 5.829065 1.781537 2.975703 0
M  V30 50 H 4.218841 2.120277 1.960881 0
M  V30 51 H -0.245373 -3.222924 3.091107 0
M  V30 52 H -2.345217 -3.624985 1.879174 0
M  V30 53 H -1.950802 -3.452300 -2.724886 0
M  V30 54 H -4.725594 -3.955711 -2.647446 0
M  V30 55 H -4.581802 -3.016390 -4.981346 0
M  V30 56 H -2.900847 -2.589384 -4.664688 0
M  V30 57 H -5.345301 -1.543823 -3.169376 0
M  V30 58 H -2.726997 -0.054820 -3.253886 0
M  V30 59 H -3.072321 -1.235794 -1.890977 0
M  V30 60 H -3.899510 0.890880 -1.207403 0
M  V30 61 H -5.286353 -0.229472 -1.706057 0
M  V30 62 H -4.573826 2.296099 -2.906650 0
M  V30 63 H -6.026498 1.273572 -3.206930 0
M  V30 64 H -4.978465 1.601357 -5.202661 0
M  V30 65 H -3.348305 1.268271 -4.641403 0
M  V30 66 H -5.621506 -0.666209 -5.263059 0
M  V30 67 H -3.850832 -0.758853 -5.681819 0
M  V30 68 H -5.258208 -5.244131 -5.678179 0
M  V30 69 H -5.322148 -5.182659 -5.611816 0
M  V30 70 H -0.159878 -3.261480 -1.816728 0
M  V30 71 H 1.864755 -2.880122 -0.528978 0
M  V30 END ATOM
M  V30 BEGIN BOND
M  V30 1 1 1 2
M  V30 2 1 2 3
M  V30 3 1 3 4
M  V30 4 2 4 5
M  V30 5 1 4 6
M  V30 6 1 6 7
M  V30 7 2 7 8
M  V30 8 1 8 9
M  V30 9 1 9 10
M  V30 10 2 10 11
M  V30 11 1 11 12
M  V30 12 2 12 13
M  V30 13 1 13 14
M  V30 14 2 14 15
M  V30 15 1 9 16
M  V30 16 1 16 17
M  V30 17 1 2 18
M  V30 18 2 18 19
M  V30 19 1 19 20
M  V30 20 2 20 21
M  V30 21 1 21 22
M  V30 22 2 22 23
M  V30 23 1 22 24
M  V30 24 1 24 25
M  V30 25 1 25 26
M  V30 26 1 26 27
M  V30 27 1 27 28
M  V30 28 1 28 29
M  V30 29 1 29 30
M  V30 30 1 30 31
M  V30 31 1 31 32
M  V30 32 1 25 33
M  V30 33 1 33 34
M  V30 34 2 33 35
M  V30 35 1 21 36
M  V30 36 2 36 37
M  V30 37 2 16 6
M  V30 38 1 37 18
M  V30 39 1 15 10
M  V30 40 1 32 27
M  V30 41 1 1 38
M  V30 42 1 1 39
M  V30 43 1 1 40
M  V30 44 1 2 41
M  V30 45 1 3 42
M  V30 46 1 7 43
M  V30 47 1 11 44
M  V30 48 1 12 45
M  V30 49 1 13 46
M  V30 50 1 14 47
M  V30 51 1 15 48
M  V30 52 1 17 49
M  V30 53 1 17 50
M  V30 54 1 19 51
M  V30 55 1 20 52
M  V30 56 1 24 53
M  V30 57 1 25 54 CFG=1
M  V30 58 1 26 55
M  V30 59 1 26 56
M  V30 60 1 27 57
M  V30 61 1 28 58
M  V30 62 1 28 59
M  V30 63 1 29 60
M  V30 64 1 29 61
M  V30 65 1 30 62
M  V30 66 1 30 63
M  V30 67 1 31 64
M  V30 68 1 31 65
M  V30 69 1 32 66
M  V30 70 1 32 67
M  V30 71 1 34 68
M  V30 72 1 34 69
M  V30 73 1 36 70
M  V30 74 1 37 71
M  V30 END BOND
M  V30 END CTAB
M  END
>  <Dataset>  (186) 
ChEMBL_Kinases

>  <Ligand_Instance>  (186) 
nan

>  <PDB_ID>  (186) 
nan

>  <Standardized_SMILES>  (186) 
CC(NC(=O)c1cnn(-c2ccccc2)c1N)c1ccc(C(=O)N[C@@H](CC2CCCCC2)C(N)=O)cc1

>  <Name>  (186) 
nan

>  <Pocket>  (186) 
nan

>  <ATP_Site>  (186) 
nan

>  <Peripheral>  (186) 
nan

>  <Num_H_Atoms_ProtBoundConf>  (186) 
nan

>  <Num_Resolved_Atoms>  (186) 
nan

>  <Num_Not_Resolved_Atoms>  (186) 
nan

$$$$
CHEMBL3086078
     RDKit          3D

  0  0  0  0  0  0  0  0  0  0999 V3000
M  V30 BEGIN CTAB
M  V30 COUNTS 51 53 0 0 0
M  V30 BEGIN ATOM
M  V30 1 C 0.436707 1.886198 1.689018 0
M  V30 2 C 0.097993 0.455306 1.891544 0
M  V30 3 C 0.995254 -0.265521 2.608570 0
M  V30 4 C 2.323144 -0.027706 3.181067 0
M  V30 5 C 3.418285 -0.204215 2.221167 0
M  V30 6 C 4.033601 -1.469781 2.276902 0
M  V30 7 C 5.054981 -1.883557 1.455723 0
M  V30 8 C 5.546750 -1.027641 0.491366 0
M  V30 9 C 4.985719 0.238444 0.381130 0
M  V30 10 N 5.463002 1.139499 -0.573766 0
M  V30 11 S 6.123654 0.809218 -2.108933 0
M  V30 12 N 7.551458 -0.132112 -2.094982 0
M  V30 13 O 6.496285 2.113703 -2.819775 0
M  V30 14 O 5.035641 0.211041 -2.978210 0
M  V30 15 C 3.969757 0.568643 1.241148 0
M  V30 16 F 3.477432 1.806599 1.118186 0
M  V30 17 C 0.518603 -1.572738 2.764740 0
M  V30 18 O 1.156528 -2.466735 3.400041 0
M  V30 19 O -0.611334 -2.149207 2.329265 0
M  V30 20 C -1.464135 -1.403096 1.623639 0
M  V30 21 C -2.663498 -1.829410 1.098393 0
M  V30 22 C -3.497045 -0.974180 0.366971 0
M  V30 23 O -4.665096 -1.568011 -0.089780 0
M  V30 24 C -5.844831 -1.560846 0.606158 0
M  V30 25 O -6.256437 -1.106750 1.707343 0
M  V30 26 N -6.884349 -2.246184 -0.094903 0
M  V30 27 C -8.206985 -2.311565 0.546512 0
M  V30 28 C -6.792728 -2.904111 -1.400587 0
M  V30 29 C -3.085929 0.325357 0.179544 0
M  V30 30 F -3.964074 1.052358 -0.534698 0
M  V30 31 C -1.894164 0.774867 0.693408 0
M  V30 32 C -1.077323 -0.066887 1.411904 0
M  V30 33 H 0.848073 2.083175 0.686735 0
M  V30 34 H 1.210751 2.238405 2.435399 0
M  V30 35 H -0.513435 2.484224 1.864971 0
M  V30 36 H 2.390572 1.025131 3.581015 0
M  V30 37 H 2.464349 -0.684917 4.054840 0
M  V30 38 H 3.809945 -2.300366 2.965766 0
M  V30 39 H 5.556042 -2.836072 1.455035 0
M  V30 40 H 6.346939 -1.288110 -0.185032 0
M  V30 41 H 5.396376 2.162403 -0.278096 0
M  V30 42 H 8.258156 0.179539 -2.829713 0
M  V30 43 H 7.302490 -1.110281 -2.385611 0
M  V30 44 H -2.914180 -2.864945 1.293916 0
M  V30 45 H -8.899708 -2.988584 0.033332 0
M  V30 46 H -8.566195 -1.265218 0.584511 0
M  V30 47 H -8.042165 -2.738027 1.576316 0
M  V30 48 H -5.766737 -3.226331 -1.634143 0
M  V30 49 H -7.457601 -3.809645 -1.386387 0
M  V30 50 H -7.213682 -2.209705 -2.144130 0
M  V30 51 H -1.739154 1.811636 0.447832 0
M  V30 END ATOM
M  V30 BEGIN BOND
M  V30 1 1 1 2
M  V30 2 2 2 3
M  V30 3 1 3 4
M  V30 4 1 4 5
M  V30 5 2 5 6
M  V30 6 1 6 7
M  V30 7 2 7 8
M  V30 8 1 8 9
M  V30 9 1 9 10
M  V30 10 1 10 11
M  V30 11 1 11 12
M  V30 12 2 11 13
M  V30 13 2 11 14
M  V30 14 2 9 15
M  V30 15 1 15 16
M  V30 16 1 3 17
M  V30 17 2 17 18
M  V30 18 1 17 19
M  V30 19 1 19 20
M  V30 20 2 20 21
M  V30 21 1 21 22
M  V30 22 1 22 23
M  V30 23 1 23 24
M  V30 24 2 24 25
M  V30 25 1 24 26
M  V30 26 1 26 27
M  V30 27 1 26 28
M  V30 28 2 22 29
M  V30 29 1 29 30
M  V30 30 1 29 31
M  V30 31 2 31 32
M  V30 32 1 32 2
M  V30 33 1 15 5
M  V30 34 1 32 20
M  V30 35 1 1 33
M  V30 36 1 1 34
M  V30 37 1 1 35
M  V30 38 1 4 36
M  V30 39 1 4 37
M  V30 40 1 6 38
M  V30 41 1 7 39
M  V30 42 1 8 40
M  V30 43 1 10 41
M  V30 44 1 12 42
M  V30 45 1 12 43
M  V30 46 1 21 44
M  V30 47 1 27 45
M  V30 48 1 27 46
M  V30 49 1 27 47
M  V30 50 1 28 48
M  V30 51 1 28 49
M  V30 52 1 28 50
M  V30 53 1 31 51
M  V30 END BOND
M  V30 END CTAB
M  END
>  <Dataset>  (187) 
ChEMBL_Kinases

>  <Ligand_Instance>  (187) 
nan

>  <PDB_ID>  (187) 
nan

>  <Standardized_SMILES>  (187) 
Cc1c(Cc2cccc(NS(N)(=O)=O)c2F)c(=O)oc2cc(OC(=O)N(C)C)c(F)cc12

>  <Name>  (187) 
nan

>  <Pocket>  (187) 
nan

>  <ATP_Site>  (187) 
nan

>  <Peripheral>  (187) 
nan

>  <Num_H_Atoms_ProtBoundConf>  (187) 
nan

>  <Num_Resolved_Atoms>  (187) 
nan

>  <Num_Not_Resolved_Atoms>  (187) 
nan

$$$$
CHEMBL4290247
     RDKit          3D

  0  0  0  0  0  0  0  0  0  0999 V3000
M  V30 BEGIN CTAB
M  V30 COUNTS 44 47 0 0 0
M  V30 BEGIN ATOM
M  V30 1 O 2.045681 -0.137973 -0.327525 0
M  V30 2 C 3.080695 0.567620 -0.307072 0
M  V30 3 C 4.037740 0.279151 -1.379461 0
M  V30 4 C 3.591296 -0.794130 -2.281332 0
M  V30 5 C 3.925676 -2.112033 -1.987990 0
M  V30 6 C 3.535084 -3.154111 -2.795348 0
M  V30 7 C 2.793387 -2.861989 -3.919541 0
M  V30 8 F 2.417944 -3.900124 -4.701905 0
M  V30 9 C 2.453033 -1.554817 -4.224415 0
M  V30 10 C 2.851753 -0.515180 -3.404668 0
M  V30 11 N 3.246348 1.537599 0.690036 0
M  V30 12 C 2.385088 1.886452 1.758306 0
M  V30 13 C 2.759012 2.879090 2.623241 0
M  V30 14 N 2.006821 3.272044 3.659083 0
M  V30 15 C 0.812054 2.737678 3.958818 0
M  V30 16 C 0.410476 1.734864 3.103445 0
M  V30 17 C -0.915151 1.096512 3.383397 0
M  V30 18 C -1.503512 0.112058 2.694389 0
M  V30 19 C -2.729187 -0.336223 3.118305 0
M  V30 20 C -3.504684 -1.406075 2.473990 0
M  V30 21 C -4.337434 -2.234244 3.199408 0
M  V30 22 C -5.050505 -3.230326 2.550698 0
M  V30 23 C -4.886808 -3.341961 1.193747 0
M  V30 24 N -4.083592 -2.544455 0.488561 0
M  V30 25 C -3.368214 -1.554873 1.096239 0
M  V30 26 C -3.285620 0.291126 4.274725 0
M  V30 27 S -1.920601 1.547892 4.681523 0
M  V30 28 C 1.163848 1.330376 2.053232 0
M  V30 29 H 5.001982 -0.019366 -0.903224 0
M  V30 30 H 4.285475 1.210145 -1.960720 0
M  V30 31 H 4.504304 -2.295894 -1.102612 0
M  V30 32 H 3.809981 -4.174729 -2.543341 0
M  V30 33 H 1.873055 -1.407242 -5.118346 0
M  V30 34 H 2.586868 0.504570 -3.641519 0
M  V30 35 H 4.149810 2.046767 0.584309 0
M  V30 36 H 3.690781 3.435207 2.551191 0
M  V30 37 H 0.257195 3.102079 4.809593 0
M  V30 38 H -1.021908 -0.315569 1.827200 0
M  V30 39 H -4.419338 -2.088847 4.275770 0
M  V30 40 H -5.708272 -3.889673 3.101131 0
M  V30 41 H -5.417750 -4.103736 0.621507 0
M  V30 42 H -2.716744 -0.907225 0.526843 0
M  V30 43 H -4.191442 0.096355 4.746724 0
M  V30 44 H 0.783264 0.542389 1.431193 0
M  V30 END ATOM
M  V30 BEGIN BOND
M  V30 1 2 1 2
M  V30 2 1 2 3
M  V30 3 1 3 4
M  V30 4 2 4 5
M  V30 5 1 5 6
M  V30 6 2 6 7
M  V30 7 1 7 8
M  V30 8 1 7 9
M  V30 9 2 9 10
M  V30 10 1 2 11
M  V30 11 1 11 12
M  V30 12 2 12 13
M  V30 13 1 13 14
M  V30 14 2 14 15
M  V30 15 1 15 16
M  V30 16 1 16 17
M  V30 17 2 17 18
M  V30 18 1 18 19
M  V30 19 1 19 20
M  V30 20 2 20 21
M  V30 21 1 21 22
M  V30 22 2 22 23
M  V30 23 1 23 24
M  V30 24 2 24 25
M  V30 25 2 19 26
M  V30 26 1 26 27
M  V30 27 2 16 28
M  V30 28 1 10 4
M  V30 29 1 28 12
M  V30 30 1 27 17
M  V30 31 1 25 20
M  V30 32 1 3 29
M  V30 33 1 3 30
M  V30 34 1 5 31
M  V30 35 1 6 32
M  V30 36 1 9 33
M  V30 37 1 10 34
M  V30 38 1 11 35
M  V30 39 1 13 36
M  V30 40 1 15 37
M  V30 41 1 18 38
M  V30 42 1 21 39
M  V30 43 1 22 40
M  V30 44 1 23 41
M  V30 45 1 25 42
M  V30 46 1 26 43
M  V30 47 1 28 44
M  V30 END BOND
M  V30 END CTAB
M  END
>  <Dataset>  (188) 
ChEMBL_Kinases

>  <Ligand_Instance>  (188) 
nan

>  <PDB_ID>  (188) 
nan

>  <Standardized_SMILES>  (188) 
O=C(Cc1ccc(F)cc1)Nc1cncc(-c2cc(-c3cccnc3)cs2)c1

>  <Name>  (188) 
nan

>  <Pocket>  (188) 
nan

>  <ATP_Site>  (188) 
nan

>  <Peripheral>  (188) 
nan

>  <Num_H_Atoms_ProtBoundConf>  (188) 
nan

>  <Num_Resolved_Atoms>  (188) 
nan

>  <Num_Not_Resolved_Atoms>  (188) 
nan

$$$$
CHEMBL3701759
     RDKit          3D

  0  0  0  0  0  0  0  0  0  0999 V3000
M  V30 BEGIN CTAB
M  V30 COUNTS 61 66 0 0 0
M  V30 BEGIN ATOM
M  V30 1 C 4.263671 0.457927 6.554157 0
M  V30 2 C 3.397298 0.343343 5.320340 0
M  V30 3 O 2.118726 0.817539 5.525426 0
M  V30 4 C 4.035476 1.010613 4.119724 0
M  V30 5 C 3.824809 -0.219464 3.320775 0
M  V30 6 N 5.050808 -0.743319 2.716032 0
M  V30 7 C 2.687667 -0.285863 2.397717 0
M  V30 8 C 2.589191 -1.485855 1.703144 0
M  V30 9 C 1.568444 -1.706466 0.791858 0
M  V30 10 C 0.635004 -0.713605 0.573299 0
M  V30 11 C -0.459933 -0.902999 -0.379724 0
M  V30 12 N -0.204122 -1.125232 -1.696594 0
M  V30 13 C -1.390229 -1.265557 -2.354798 0
M  V30 14 N -2.363986 -1.128381 -1.436668 0
M  V30 15 C -1.831280 -0.906594 -0.223954 0
M  V30 16 C -2.366729 -0.686205 1.116081 0
M  V30 17 C -2.201132 -1.454903 2.251157 0
M  V30 18 C -2.801021 -1.058555 3.421249 0
M  V30 19 C -3.565281 0.088409 3.492147 0
M  V30 20 C -3.733045 0.855787 2.367446 0
M  V30 21 C -3.135328 0.477267 1.165223 0
M  V30 22 C -3.775296 -1.202103 -1.677586 0
M  V30 23 O -4.101217 -1.441035 -3.032761 0
M  V30 24 C -3.153876 -1.593975 -4.037261 0
M  V30 25 C -3.536443 -1.830701 -5.360455 0
M  V30 26 C -2.552082 -1.977650 -6.334799 0
M  V30 27 C -2.960659 -2.230374 -7.748286 0
M  V30 28 O -3.074701 -3.612366 -8.015177 0
M  V30 29 C -1.202258 -1.889577 -5.993502 0
M  V30 30 C -0.804988 -1.652757 -4.671396 0
M  V30 31 C -1.808419 -1.512564 -3.734020 0
M  V30 32 C 0.707474 0.498353 1.253716 0
M  V30 33 C 1.744171 0.663725 2.149059 0
M  V30 34 C 3.525872 -0.978734 4.597089 0
M  V30 35 H 5.009556 1.249898 6.411961 0
M  V30 36 H 4.832131 -0.483958 6.766038 0
M  V30 37 H 3.664220 0.690705 7.456158 0
M  V30 38 H 1.433787 0.138395 5.344427 0
M  V30 39 H 5.129689 1.193399 4.300033 0
M  V30 40 H 3.581123 1.956476 3.786206 0
M  V30 41 H 5.029938 -1.770822 2.594010 0
M  V30 42 H 5.870466 -0.550230 3.362731 0
M  V30 43 H 3.255688 -2.357162 1.775780 0
M  V30 44 H 1.438783 -2.615566 0.222617 0
M  V30 45 H -1.584302 -2.333131 2.089079 0
M  V30 46 H -2.638359 -1.697723 4.279888 0
M  V30 47 H -4.025679 0.376094 4.426500 0
M  V30 48 H -4.346684 1.750578 2.481607 0
M  V30 49 H -3.352160 1.170100 0.372526 0
M  V30 50 H -4.201151 -2.050035 -1.073127 0
M  V30 51 H -4.292430 -0.298042 -1.282786 0
M  V30 52 H -4.591747 -1.892743 -5.587935 0
M  V30 53 H -3.978580 -1.827572 -7.873167 0
M  V30 54 H -2.219602 -1.847391 -8.476439 0
M  V30 55 H -2.765137 -4.152232 -7.228359 0
M  V30 56 H -0.487593 -2.012225 -6.793214 0
M  V30 57 H 0.248068 -1.588776 -4.433359 0
M  V30 58 H -0.018105 1.294549 1.096591 0
M  V30 59 H 1.849303 1.581988 2.703835 0
M  V30 60 H 4.381862 -1.583948 4.990126 0
M  V30 61 H 2.622515 -1.609373 4.585046 0
M  V30 END ATOM
M  V30 BEGIN BOND
M  V30 1 1 1 2
M  V30 2 1 2 3
M  V30 3 1 2 4
M  V30 4 1 4 5
M  V30 5 1 5 6
M  V30 6 1 5 7
M  V30 7 2 7 8
M  V30 8 1 8 9
M  V30 9 2 9 10
M  V30 10 1 10 11
M  V30 11 1 11 12
M  V30 12 2 12 13
M  V30 13 1 13 14
M  V30 14 1 14 15
M  V30 15 1 15 16
M  V30 16 2 16 17
M  V30 17 1 17 18
M  V30 18 2 18 19
M  V30 19 1 19 20
M  V30 20 2 20 21
M  V30 21 1 14 22
M  V30 22 1 22 23
M  V30 23 1 23 24
M  V30 24 2 24 25
M  V30 25 1 25 26
M  V30 26 1 26 27
M  V30 27 1 27 28
M  V30 28 2 26 29
M  V30 29 1 29 30
M  V30 30 2 30 31
M  V30 31 1 10 32
M  V30 32 2 32 33
M  V30 33 1 5 34
M  V30 34 1 34 2
M  V30 35 1 33 7
M  V30 36 2 15 11
M  V30 37 1 21 16
M  V30 38 1 31 24
M  V30 39 1 31 13
M  V30 40 1 1 35
M  V30 41 1 1 36
M  V30 42 1 1 37
M  V30 43 1 3 38
M  V30 44 1 4 39
M  V30 45 1 4 40
M  V30 46 1 6 41
M  V30 47 1 6 42
M  V30 48 1 8 43
M  V30 49 1 9 44
M  V30 50 1 17 45
M  V30 51 1 18 46
M  V30 52 1 19 47
M  V30 53 1 20 48
M  V30 54 1 21 49
M  V30 55 1 22 50
M  V30 56 1 22 51
M  V30 57 1 25 52
M  V30 58 1 27 53
M  V30 59 1 27 54
M  V30 60 1 28 55
M  V30 61 1 29 56
M  V30 62 1 30 57
M  V30 63 1 32 58
M  V30 64 1 33 59
M  V30 65 1 34 60
M  V30 66 1 34 61
M  V30 END BOND
M  V30 END CTAB
M  END
>  <Dataset>  (189) 
ChEMBL_Kinases

>  <Ligand_Instance>  (189) 
nan

>  <PDB_ID>  (189) 
nan

>  <Standardized_SMILES>  (189) 
CC1(O)CC(N)(c2ccc(-c3nc4n(c3-c3ccccc3)COc3cc(CO)ccc3-4)cc2)C1

>  <Name>  (189) 
nan

>  <Pocket>  (189) 
nan

>  <ATP_Site>  (189) 
nan

>  <Peripheral>  (189) 
nan

>  <Num_H_Atoms_ProtBoundConf>  (189) 
nan

>  <Num_Resolved_Atoms>  (189) 
nan

>  <Num_Not_Resolved_Atoms>  (189) 
nan

$$$$
CHEMBL3685243
     RDKit          3D

  0  0  0  0  0  0  0  0  0  0999 V3000
M  V30 BEGIN CTAB
M  V30 COUNTS 52 55 0 0 0
M  V30 BEGIN ATOM
M  V30 1 C 0.893805 -0.763710 7.533571 0
M  V30 2 C 0.980439 -1.386890 6.182729 0
M  V30 3 C 0.819658 -2.740462 6.042759 0
M  V30 4 C 0.906983 -3.281032 4.771991 0
M  V30 5 C 1.153045 -2.468219 3.657377 0
M  V30 6 C 1.305172 -1.111513 3.869972 0
M  V30 7 C 1.559505 -0.300441 2.685137 0
M  V30 8 O 1.622940 -0.868336 1.565469 0
M  V30 9 N 1.748089 1.097945 2.659295 0
M  V30 10 C 1.971628 1.504014 1.288059 0
M  V30 11 C 3.215454 1.572642 0.690216 0
M  V30 12 C 3.250178 1.980727 -0.629840 0
M  V30 13 C 2.067494 2.302599 -1.304230 0
M  V30 14 C 0.823240 2.220584 -0.664065 0
M  V30 15 C -0.246800 2.628411 -1.611017 0
M  V30 16 N -0.628243 1.463812 -2.383781 0
M  V30 17 C -1.193384 0.267849 -1.919801 0
M  V30 18 N -1.474713 0.036580 -0.632801 0
M  V30 19 C -2.018017 -1.100504 -0.179939 0
M  V30 20 N -2.325917 -2.118863 -1.024090 0
M  V30 21 C -2.065674 -1.943175 -2.326991 0
M  V30 22 C -2.380702 -2.973568 -3.157061 0
M  V30 23 C -2.972678 -4.205618 -2.646143 0
M  V30 24 N -3.231379 -4.339941 -1.242705 0
M  V30 25 O -3.273309 -5.173530 -3.386303 0
M  V30 26 C -2.153706 -2.892407 -4.506245 0
M  V30 27 C -1.587147 -1.715553 -5.004816 0
M  V30 28 C -1.290722 -0.709532 -4.116355 0
M  V30 29 C -1.506162 -0.759704 -2.756795 0
M  V30 30 C 0.797802 1.818754 0.634460 0
M  V30 31 C 1.224058 -0.539150 5.124594 0
M  V30 32 H 0.016914 -0.059751 7.460826 0
M  V30 33 H 0.691157 -1.467509 8.337392 0
M  V30 34 H 1.785550 -0.125915 7.673035 0
M  V30 35 H 0.629994 -3.352831 6.916466 0
M  V30 36 H 0.780778 -4.360621 4.644737 0
M  V30 37 H 1.212221 -2.940651 2.684139 0
M  V30 38 H 1.700554 1.603849 3.585246 0
M  V30 39 H 4.073360 1.304944 1.288694 0
M  V30 40 H 4.227292 2.026401 -1.072424 0
M  V30 41 H 2.273609 2.604648 -2.336119 0
M  V30 42 H -1.105203 2.948920 -0.938834 0
M  V30 43 H 0.016672 3.508920 -2.200219 0
M  V30 44 H -0.419184 1.628670 -3.389606 0
M  V30 45 H -2.164407 -1.086348 0.885746 0
M  V30 46 H -2.691560 -4.734366 -0.438847 0
M  V30 47 H -4.134878 -3.994278 -0.848312 0
M  V30 48 H -2.407580 -3.715346 -5.153682 0
M  V30 49 H -1.410278 -1.655546 -6.065941 0
M  V30 50 H -0.862285 0.150016 -4.581690 0
M  V30 51 H -0.184284 1.793439 1.041749 0
M  V30 52 H 1.344961 0.525045 5.278684 0
M  V30 END ATOM
M  V30 BEGIN BOND
M  V30 1 1 1 2
M  V30 2 2 2 3
M  V30 3 1 3 4
M  V30 4 2 4 5
M  V30 5 1 5 6
M  V30 6 1 6 7
M  V30 7 2 7 8
M  V30 8 1 7 9
M  V30 9 1 9 10
M  V30 10 2 10 11
M  V30 11 1 11 12
M  V30 12 2 12 13
M  V30 13 1 13 14
M  V30 14 1 14 15
M  V30 15 1 15 16
M  V30 16 1 16 17
M  V30 17 2 17 18
M  V30 18 1 18 19
M  V30 19 2 19 20
M  V30 20 1 20 21
M  V30 21 2 21 22
M  V30 22 1 22 23
M  V30 23 1 23 24
M  V30 24 2 23 25
M  V30 25 1 22 26
M  V30 26 2 26 27
M  V30 27 1 27 28
M  V30 28 2 28 29
M  V30 29 2 14 30
M  V30 30 2 6 31
M  V30 31 1 31 2
M  V30 32 1 30 10
M  V30 33 1 29 17
M  V30 34 1 29 21
M  V30 35 1 1 32
M  V30 36 1 1 33
M  V30 37 1 1 34
M  V30 38 1 3 35
M  V30 39 1 4 36
M  V30 40 1 5 37
M  V30 41 1 9 38
M  V30 42 1 11 39
M  V30 43 1 12 40
M  V30 44 1 13 41
M  V30 45 1 15 42
M  V30 46 1 15 43
M  V30 47 1 16 44
M  V30 48 1 19 45
M  V30 49 1 24 46
M  V30 50 1 24 47
M  V30 51 1 26 48
M  V30 52 1 27 49
M  V30 53 1 28 50
M  V30 54 1 30 51
M  V30 55 1 31 52
M  V30 END BOND
M  V30 END CTAB
M  END
>  <Dataset>  (190) 
ChEMBL_Kinases

>  <Ligand_Instance>  (190) 
nan

>  <PDB_ID>  (190) 
nan

>  <Standardized_SMILES>  (190) 
Cc1cccc(C(=O)Nc2cccc(CNc3ncnc4c(C(N)=O)cccc34)c2)c1

>  <Name>  (190) 
nan

>  <Pocket>  (190) 
nan

>  <ATP_Site>  (190) 
nan

>  <Peripheral>  (190) 
nan

>  <Num_H_Atoms_ProtBoundConf>  (190) 
nan

>  <Num_Resolved_Atoms>  (190) 
nan

>  <Num_Not_Resolved_Atoms>  (190) 
nan

$$$$
CHEMBL3685242
     RDKit          3D

  0  0  0  0  0  0  0  0  0  0999 V3000
M  V30 BEGIN CTAB
M  V30 COUNTS 59 62 0 0 0
M  V30 BEGIN ATOM
M  V30 1 C 6.324051 -1.134438 5.745348 0
M  V30 2 N 5.099816 -0.421577 5.431396 0
M  V30 3 C 4.378669 0.438377 6.355433 0
M  V30 4 C 4.579540 -0.587344 4.116305 0
M  V30 5 C 5.266510 -1.410511 3.224460 0
M  V30 6 C 4.842582 -1.639063 1.917682 0
M  V30 7 C 3.666816 -0.995959 1.513317 0
M  V30 8 C 2.990226 -0.182199 2.399418 0
M  V30 9 C 1.774794 0.443271 1.883599 0
M  V30 10 O 1.423755 0.212918 0.700080 0
M  V30 11 N 0.915265 1.313313 2.595533 0
M  V30 12 C -0.161233 1.715895 1.757886 0
M  V30 13 C -0.037102 2.848548 0.981436 0
M  V30 14 C -1.108004 3.197398 0.186162 0
M  V30 15 C -2.275343 2.479259 0.132574 0
M  V30 16 C -2.435375 1.341720 0.894151 0
M  V30 17 C -3.592072 0.408407 0.987333 0
M  V30 18 N -3.459059 -0.726004 0.097501 0
M  V30 19 C -3.377520 -0.660254 -1.312746 0
M  V30 20 N -3.417066 0.471863 -2.020922 0
M  V30 21 C -3.345056 0.569959 -3.353950 0
M  V30 22 N -3.220504 -0.542773 -4.101121 0
M  V30 23 C -3.171901 -1.737194 -3.469162 0
M  V30 24 C -3.250386 -1.780073 -2.095938 0
M  V30 25 C -3.191954 -3.002579 -1.604725 0
M  V30 26 C -3.061067 -4.366648 -2.160963 0
M  V30 27 C -2.974966 -4.287371 -3.657529 0
M  V30 28 C -3.049768 -2.880845 -4.112823 0
M  V30 29 C -2.970581 -2.748250 -5.581054 0
M  V30 30 N -2.836637 -3.803160 -6.526326 0
M  V30 31 O -3.010797 -1.670901 -6.211701 0
M  V30 32 C -1.339639 1.000550 1.696465 0
M  V30 33 C 3.412943 0.042547 3.694408 0
M  V30 34 H 7.165626 -0.828709 5.093726 0
M  V30 35 H 6.203781 -2.237512 5.542894 0
M  V30 36 H 6.650086 -0.973571 6.793667 0
M  V30 37 H 4.419046 1.455850 5.866546 0
M  V30 38 H 3.328295 0.151993 6.372237 0
M  V30 39 H 4.856825 0.500507 7.335586 0
M  V30 40 H 6.187564 -1.933851 3.492110 0
M  V30 41 H 5.391227 -2.278013 1.251832 0
M  V30 42 H 3.350465 -1.182170 0.498456 0
M  V30 43 H 1.186559 1.526731 3.599194 0
M  V30 44 H 0.846226 3.471440 0.963286 0
M  V30 45 H -1.091771 4.074136 -0.454830 0
M  V30 46 H -3.130416 2.726787 -0.468974 0
M  V30 47 H -3.693258 0.122591 2.049747 0
M  V30 48 H -4.529443 0.965127 0.742124 0
M  V30 49 H -3.429670 -1.611932 0.627555 0
M  V30 50 H -3.382097 1.512345 -3.875707 0
M  V30 51 H -3.243745 -3.145458 -0.541756 0
M  V30 52 H -2.184743 -4.910800 -1.744087 0
M  V30 53 H -3.991715 -4.947022 -1.896480 0
M  V30 54 H -2.033199 -4.750064 -4.034204 0
M  V30 55 H -3.858215 -4.825267 -4.103817 0
M  V30 56 H -3.358434 -4.436116 -7.163729 0
M  V30 57 H -1.889306 -4.167130 -6.747276 0
M  V30 58 H -1.362734 0.117988 2.338413 0
M  V30 59 H 2.872980 0.680301 4.371506 0
M  V30 END ATOM
M  V30 BEGIN BOND
M  V30 1 1 1 2
M  V30 2 1 2 3
M  V30 3 1 2 4
M  V30 4 2 4 5
M  V30 5 1 5 6
M  V30 6 2 6 7
M  V30 7 1 7 8
M  V30 8 1 8 9
M  V30 9 2 9 10
M  V30 10 1 9 11
M  V30 11 1 11 12
M  V30 12 2 12 13
M  V30 13 1 13 14
M  V30 14 2 14 15
M  V30 15 1 15 16
M  V30 16 1 16 17
M  V30 17 1 17 18
M  V30 18 1 18 19
M  V30 19 2 19 20
M  V30 20 1 20 21
M  V30 21 2 21 22
M  V30 22 1 22 23
M  V30 23 1 23 24
M  V30 24 2 24 25
M  V30 25 1 25 26
M  V30 26 1 26 27
M  V30 27 1 27 28
M  V30 28 1 28 29
M  V30 29 1 29 30
M  V30 30 2 29 31
M  V30 31 2 16 32
M  V30 32 2 8 33
M  V30 33 1 33 4
M  V30 34 1 32 12
M  V30 35 1 24 19
M  V30 36 2 28 23
M  V30 37 1 1 34
M  V30 38 1 1 35
M  V30 39 1 1 36
M  V30 40 1 3 37
M  V30 41 1 3 38
M  V30 42 1 3 39
M  V30 43 1 5 40
M  V30 44 1 6 41
M  V30 45 1 7 42
M  V30 46 1 11 43
M  V30 47 1 13 44
M  V30 48 1 14 45
M  V30 49 1 15 46
M  V30 50 1 17 47
M  V30 51 1 17 48
M  V30 52 1 18 49
M  V30 53 1 21 50
M  V30 54 1 25 51
M  V30 55 1 26 52
M  V30 56 1 26 53
M  V30 57 1 27 54
M  V30 58 1 27 55
M  V30 59 1 30 56
M  V30 60 1 30 57
M  V30 61 1 32 58
M  V30 62 1 33 59
M  V30 END BOND
M  V30 END CTAB
M  END
>  <Dataset>  (191) 
ChEMBL_Kinases

>  <Ligand_Instance>  (191) 
nan

>  <PDB_ID>  (191) 
nan

>  <Standardized_SMILES>  (191) 
CN(C)c1cccc(C(=O)Nc2cccc(CNc3ncnc4c3=CCCC=4C(N)=O)c2)c1

>  <Name>  (191) 
nan

>  <Pocket>  (191) 
nan

>  <ATP_Site>  (191) 
nan

>  <Peripheral>  (191) 
nan

>  <Num_H_Atoms_ProtBoundConf>  (191) 
nan

>  <Num_Resolved_Atoms>  (191) 
nan

>  <Num_Not_Resolved_Atoms>  (191) 
nan

$$$$
CHEMBL3685241
     RDKit          3D

  0  0  0  0  0  0  0  0  0  0999 V3000
M  V30 BEGIN CTAB
M  V30 COUNTS 52 55 0 0 0
M  V30 BEGIN ATOM
M  V30 1 C 2.457216 0.020334 4.078242 0
M  V30 2 C 3.611472 -0.525105 3.299237 0
M  V30 3 C 4.280065 -1.627705 3.782354 0
M  V30 4 C 5.354906 -2.226052 3.155979 0
M  V30 5 C 5.730502 -1.629559 1.969448 0
M  V30 6 C 5.100443 -0.526460 1.434341 0
M  V30 7 C 4.026973 0.052168 2.087124 0
M  V30 8 C 3.202399 1.222735 1.732757 0
M  V30 9 O 3.210480 2.393259 2.250071 0
M  V30 10 N 2.262244 1.081060 0.694215 0
M  V30 11 C 1.259898 1.879857 0.022443 0
M  V30 12 C 1.504508 2.700888 -1.059102 0
M  V30 13 C 0.448314 3.363199 -1.608028 0
M  V30 14 C -0.848609 3.282658 -1.176475 0
M  V30 15 C -1.157717 2.484666 -0.107493 0
M  V30 16 C -2.380321 1.987772 0.660525 0
M  V30 17 N -2.595862 0.614921 0.312928 0
M  V30 18 C -2.961460 -0.518551 -0.428120 0
M  V30 19 N -3.456755 -0.157636 -1.646168 0
M  V30 20 C -3.843482 -1.130336 -2.514884 0
M  V30 21 N -3.730552 -2.423511 -2.159676 0
M  V30 22 C -3.243687 -2.736672 -0.966783 0
M  V30 23 C -3.061961 -4.042960 -0.491291 0
M  V30 24 C -3.418235 -5.161638 -1.360743 0
M  V30 25 N -3.929106 -4.961164 -2.685571 0
M  V30 26 O -3.307159 -6.361135 -1.020815 0
M  V30 27 C -2.546706 -4.384602 0.737047 0
M  V30 28 C -2.168687 -3.385470 1.593060 0
M  V30 29 C -2.311702 -2.068627 1.209474 0
M  V30 30 C -2.830115 -1.837281 -0.022642 0
M  V30 31 C -0.069599 1.785604 0.483107 0
M  V30 32 H 1.547344 0.094736 3.440926 0
M  V30 33 H 2.224370 -0.678131 4.898186 0
M  V30 34 H 2.715190 0.988975 4.510538 0
M  V30 35 H 4.009887 -2.132450 4.728265 0
M  V30 36 H 5.866967 -3.094021 3.553713 0
M  V30 37 H 6.548886 -2.026888 1.416091 0
M  V30 38 H 5.331433 -0.010486 0.522334 0
M  V30 39 H 2.117890 0.183825 0.139675 0
M  V30 40 H 2.496608 2.797906 -1.430254 0
M  V30 41 H 0.528466 4.032160 -2.456687 0
M  V30 42 H -1.787150 3.720517 -1.473073 0
M  V30 43 H -3.262769 2.601947 0.310147 0
M  V30 44 H -2.233984 2.226652 1.711183 0
M  V30 45 H -2.202214 0.292139 1.217851 0
M  V30 46 H -4.244504 -0.891704 -3.489472 0
M  V30 47 H -4.821412 -5.300569 -3.125246 0
M  V30 48 H -3.742134 -4.513670 -3.627716 0
M  V30 49 H -2.434060 -5.424896 1.032157 0
M  V30 50 H -1.757724 -3.658683 2.558244 0
M  V30 51 H -1.993894 -1.369878 1.940713 0
M  V30 52 H -0.130559 1.101320 1.351553 0
M  V30 END ATOM
M  V30 BEGIN BOND
M  V30 1 1 1 2
M  V30 2 2 2 3
M  V30 3 1 3 4
M  V30 4 2 4 5
M  V30 5 1 5 6
M  V30 6 2 6 7
M  V30 7 1 7 8
M  V30 8 2 8 9
M  V30 9 1 8 10
M  V30 10 1 10 11
M  V30 11 2 11 12
M  V30 12 1 12 13
M  V30 13 2 13 14
M  V30 14 1 14 15
M  V30 15 1 15 16
M  V30 16 1 16 17
M  V30 17 1 17 18
M  V30 18 2 18 19
M  V30 19 1 19 20
M  V30 20 2 20 21
M  V30 21 1 21 22
M  V30 22 2 22 23
M  V30 23 1 23 24
M  V30 24 1 24 25
M  V30 25 2 24 26
M  V30 26 1 23 27
M  V30 27 2 27 28
M  V30 28 1 28 29
M  V30 29 2 29 30
M  V30 30 2 15 31
M  V30 31 1 7 2
M  V30 32 1 31 11
M  V30 33 1 30 18
M  V30 34 1 30 22
M  V30 35 1 1 32
M  V30 36 1 1 33
M  V30 37 1 1 34
M  V30 38 1 3 35
M  V30 39 1 4 36
M  V30 40 1 5 37
M  V30 41 1 6 38
M  V30 42 1 10 39
M  V30 43 1 12 40
M  V30 44 1 13 41
M  V30 45 1 14 42
M  V30 46 1 16 43
M  V30 47 1 16 44
M  V30 48 1 17 45
M  V30 49 1 20 46
M  V30 50 1 25 47
M  V30 51 1 25 48
M  V30 52 1 27 49
M  V30 53 1 28 50
M  V30 54 1 29 51
M  V30 55 1 31 52
M  V30 END BOND
M  V30 END CTAB
M  END
>  <Dataset>  (192) 
ChEMBL_Kinases

>  <Ligand_Instance>  (192) 
nan

>  <PDB_ID>  (192) 
nan

>  <Standardized_SMILES>  (192) 
Cc1ccccc1C(=O)Nc1cccc(CNc2ncnc3c(C(N)=O)cccc23)c1

>  <Name>  (192) 
nan

>  <Pocket>  (192) 
nan

>  <ATP_Site>  (192) 
nan

>  <Peripheral>  (192) 
nan

>  <Num_H_Atoms_ProtBoundConf>  (192) 
nan

>  <Num_Resolved_Atoms>  (192) 
nan

>  <Num_Not_Resolved_Atoms>  (192) 
nan

$$$$
CHEMBL4290132
     RDKit          3D

  0  0  0  0  0  0  0  0  0  0999 V3000
M  V30 BEGIN CTAB
M  V30 COUNTS 45 48 0 0 0
M  V30 BEGIN ATOM
M  V30 1 C 2.311201 -5.409456 2.298693 0
M  V30 2 O 1.545148 -4.452476 1.608126 0
M  V30 3 C 2.026092 -3.253348 1.153387 0
M  V30 4 C 3.367725 -2.947607 1.384282 0
M  V30 5 C 3.842128 -1.728514 0.917556 0
M  V30 6 C 3.059708 -0.815459 0.244093 0
M  V30 7 C 1.727319 -1.119185 0.015250 0
M  V30 8 C 0.833714 -0.290004 -0.647391 0
M  V30 9 N 1.370981 0.941493 -1.106393 0
M  V30 10 C 1.437813 2.147737 -0.354500 0
M  V30 11 C 1.947077 3.357912 -0.776470 0
M  V30 12 C 1.828370 4.270769 0.253010 0
M  V30 13 C 2.251999 5.697582 0.230685 0
M  V30 14 N 1.245479 3.584691 1.280824 0
M  V30 15 N 1.015614 2.332783 0.921496 0
M  V30 16 N -0.439590 -0.659235 -0.826388 0
M  V30 17 C -0.915487 -1.848605 -0.374675 0
M  V30 18 C -2.317121 -2.305909 -0.550375 0
M  V30 19 C -3.103234 -1.804506 0.605612 0
M  V30 20 C -3.230438 -2.495229 1.799439 0
M  V30 21 C -3.971315 -1.999291 2.849694 0
M  V30 22 C -4.589889 -0.760891 2.649315 0
M  V30 23 C -4.468833 -0.069981 1.469034 0
M  V30 24 C -3.722632 -0.583349 0.429958 0
M  V30 25 N -0.036514 -2.642565 0.266423 0
M  V30 26 C 1.254031 -2.324038 0.475364 0
M  V30 27 H 2.794736 -6.072172 1.525932 0
M  V30 28 H 3.060218 -4.972219 2.976148 0
M  V30 29 H 1.690021 -6.084972 2.916130 0
M  V30 30 H 4.066013 -3.569461 1.889611 0
M  V30 31 H 4.864670 -1.429899 1.060764 0
M  V30 32 H 3.426008 0.115380 -0.111612 0
M  V30 33 H 1.742419 0.936583 -2.080966 0
M  V30 34 H 2.364766 3.561588 -1.740220 0
M  V30 35 H 1.557265 6.365587 -0.295668 0
M  V30 36 H 2.424383 6.012314 1.292129 0
M  V30 37 H 3.274857 5.805734 -0.236618 0
M  V30 38 H 1.018207 4.013374 2.226322 0
M  V30 39 H -2.310277 -3.421058 -0.509274 0
M  V30 40 H -2.771059 -2.008427 -1.515788 0
M  V30 41 H -2.735974 -3.449885 1.913848 0
M  V30 42 H -4.085183 -2.524304 3.798167 0
M  V30 43 H -5.174566 -0.373752 3.482835 0
M  V30 44 H -4.977174 0.882657 1.387951 0
M  V30 45 H -3.669839 0.016610 -0.475594 0
M  V30 END ATOM
M  V30 BEGIN BOND
M  V30 1 1 1 2
M  V30 2 1 2 3
M  V30 3 2 3 4
M  V30 4 1 4 5
M  V30 5 2 5 6
M  V30 6 1 6 7
M  V30 7 2 7 8
M  V30 8 1 8 9
M  V30 9 1 9 10
M  V30 10 1 10 11
M  V30 11 2 11 12
M  V30 12 1 12 13
M  V30 13 1 12 14
M  V30 14 1 14 15
M  V30 15 1 8 16
M  V30 16 2 16 17
M  V30 17 1 17 18
M  V30 18 1 18 19
M  V30 19 2 19 20
M  V30 20 1 20 21
M  V30 21 2 21 22
M  V30 22 1 22 23
M  V30 23 2 23 24
M  V30 24 1 17 25
M  V30 25 2 25 26
M  V30 26 1 26 3
M  V30 27 1 26 7
M  V30 28 2 15 10
M  V30 29 1 24 19
M  V30 30 1 1 27
M  V30 31 1 1 28
M  V30 32 1 1 29
M  V30 33 1 4 30
M  V30 34 1 5 31
M  V30 35 1 6 32
M  V30 36 1 9 33
M  V30 37 1 11 34
M  V30 38 1 13 35
M  V30 39 1 13 36
M  V30 40 1 13 37
M  V30 41 1 14 38
M  V30 42 1 18 39
M  V30 43 1 18 40
M  V30 44 1 20 41
M  V30 45 1 21 42
M  V30 46 1 22 43
M  V30 47 1 23 44
M  V30 48 1 24 45
M  V30 END BOND
M  V30 END CTAB
M  END
>  <Dataset>  (193) 
ChEMBL_Kinases

>  <Ligand_Instance>  (193) 
nan

>  <PDB_ID>  (193) 
nan

>  <Standardized_SMILES>  (193) 
COc1cccc2c(Nc3cc(C)[nH]n3)nc(Cc3ccccc3)nc12

>  <Name>  (193) 
nan

>  <Pocket>  (193) 
nan

>  <ATP_Site>  (193) 
nan

>  <Peripheral>  (193) 
nan

>  <Num_H_Atoms_ProtBoundConf>  (193) 
nan

>  <Num_Resolved_Atoms>  (193) 
nan

>  <Num_Not_Resolved_Atoms>  (193) 
nan

$$$$
CHEMBL3087822
     RDKit          3D

  0  0  0  0  0  0  0  0  0  0999 V3000
M  V30 BEGIN CTAB
M  V30 COUNTS 52 56 0 0 0
M  V30 BEGIN ATOM
M  V30 1 C 2.283657 -6.301208 2.420870 0
M  V30 2 C 2.532229 -4.863473 2.629090 0
M  V30 3 N 2.992312 -4.356594 3.769707 0
M  V30 4 N 3.131665 -3.044866 3.695272 0
M  V30 5 C 3.588877 -2.140163 4.733095 0
M  V30 6 C 2.745185 -2.702634 2.455787 0
M  V30 7 C 2.351454 -3.836758 1.735663 0
M  V30 8 C 1.853239 -3.822629 0.374890 0
M  V30 9 N 1.836255 -2.694832 -0.367102 0
M  V30 10 C 1.352589 -2.884486 -1.580329 0
M  V30 11 C 1.178143 -1.967221 -2.592952 0
M  V30 12 O 1.524417 -0.609261 -2.495708 0
M  V30 13 C 0.635394 0.230857 -1.795484 0
M  V30 14 C -0.554633 0.843253 -2.089324 0
M  V30 15 C -1.124066 1.606308 -1.101749 0
M  V30 16 C -0.648089 1.840743 0.165817 0
M  V30 17 C -1.333830 2.652215 1.158757 0
M  V30 18 O -0.585803 2.813479 2.195863 0
M  V30 19 N -2.629575 3.259852 1.171619 0
M  V30 20 C -3.663799 3.252333 0.162500 0
M  V30 21 C -4.852130 3.904509 0.820352 0
M  V30 22 C -4.556725 3.787913 2.299487 0
M  V30 23 C -3.033198 3.985649 2.373314 0
M  V30 24 C 0.561499 1.206991 0.425128 0
M  V30 25 C 1.211928 0.408936 -0.528829 0
M  V30 26 C 0.621076 -2.497379 -3.763095 0
M  V30 27 Cl 0.341443 -1.440533 -5.143447 0
M  V30 28 C 0.284893 -3.831163 -3.866638 0
M  V30 29 N 0.489675 -4.670108 -2.819642 0
M  V30 30 C 1.018176 -4.218791 -1.676367 0
M  V30 31 N 1.350672 -4.694838 -0.468679 0
M  V30 32 H 2.517494 -6.660797 1.404300 0
M  V30 33 H 2.961627 -6.872765 3.134225 0
M  V30 34 H 1.212057 -6.499069 2.724307 0
M  V30 35 H 3.488197 -2.680689 5.704263 0
M  V30 36 H 4.618705 -1.791542 4.563775 0
M  V30 37 H 2.905239 -1.258171 4.830820 0
M  V30 38 H 2.760897 -1.666318 2.119050 0
M  V30 39 H -0.848436 0.611822 -3.082877 0
M  V30 40 H -2.049022 2.025347 -1.448914 0
M  V30 41 H -3.359468 3.807386 -0.755676 0
M  V30 42 H -3.972861 2.192491 -0.078080 0
M  V30 43 H -4.848472 4.990708 0.548237 0
M  V30 44 H -5.810205 3.408505 0.550376 0
M  V30 45 H -4.809104 2.774966 2.673993 0
M  V30 46 H -5.107737 4.545275 2.855591 0
M  V30 47 H -2.679817 3.496208 3.298925 0
M  V30 48 H -2.746737 5.041950 2.367779 0
M  V30 49 H 1.010830 1.341263 1.417451 0
M  V30 50 H 2.157815 0.014166 -0.124909 0
M  V30 51 H -0.140415 -4.237738 -4.764499 0
M  V30 52 H 1.200821 -5.695642 -0.252309 0
M  V30 END ATOM
M  V30 BEGIN BOND
M  V30 1 1 1 2
M  V30 2 2 2 3
M  V30 3 1 3 4
M  V30 4 1 4 5
M  V30 5 1 4 6
M  V30 6 2 6 7
M  V30 7 1 7 8
M  V30 8 2 8 9
M  V30 9 1 9 10
M  V30 10 2 10 11
M  V30 11 1 11 12
M  V30 12 1 12 13
M  V30 13 2 13 14
M  V30 14 1 14 15
M  V30 15 2 15 16
M  V30 16 1 16 17
M  V30 17 2 17 18
M  V30 18 1 17 19
M  V30 19 1 19 20
M  V30 20 1 20 21
M  V30 21 1 21 22
M  V30 22 1 22 23
M  V30 23 1 16 24
M  V30 24 2 24 25
M  V30 25 1 11 26
M  V30 26 1 26 27
M  V30 27 2 26 28
M  V30 28 1 28 29
M  V30 29 2 29 30
M  V30 30 1 30 31
M  V30 31 1 7 2
M  V30 32 1 31 8
M  V30 33 1 30 10
M  V30 34 1 25 13
M  V30 35 1 23 19
M  V30 36 1 1 32
M  V30 37 1 1 33
M  V30 38 1 1 34
M  V30 39 1 5 35
M  V30 40 1 5 36
M  V30 41 1 5 37
M  V30 42 1 6 38
M  V30 43 1 14 39
M  V30 44 1 15 40
M  V30 45 1 20 41
M  V30 46 1 20 42
M  V30 47 1 21 43
M  V30 48 1 21 44
M  V30 49 1 22 45
M  V30 50 1 22 46
M  V30 51 1 23 47
M  V30 52 1 23 48
M  V30 53 1 24 49
M  V30 54 1 25 50
M  V30 55 1 28 51
M  V30 56 1 31 52
M  V30 END BOND
M  V30 END CTAB
M  END
>  <Dataset>  (194) 
ChEMBL_Kinases

>  <Ligand_Instance>  (194) 
nan

>  <PDB_ID>  (194) 
nan

>  <Standardized_SMILES>  (194) 
Cc1nn(C)cc1-c1nc2c(Oc3ccc(C(=O)N4CCCC4)cc3)c(Cl)cnc2[nH]1

>  <Name>  (194) 
nan

>  <Pocket>  (194) 
nan

>  <ATP_Site>  (194) 
nan

>  <Peripheral>  (194) 
nan

>  <Num_H_Atoms_ProtBoundConf>  (194) 
nan

>  <Num_Resolved_Atoms>  (194) 
nan

>  <Num_Not_Resolved_Atoms>  (194) 
nan

$$$$
CHEMBL3685240
     RDKit          3D

  0  0  0  0  0  0  0  0  0  0999 V3000
M  V30 BEGIN CTAB
M  V30 COUNTS 49 52 0 0 0
M  V30 BEGIN ATOM
M  V30 1 C 2.074609 -7.851247 -0.045992 0
M  V30 2 C 3.078111 -6.831845 0.355991 0
M  V30 3 C 2.711594 -5.498484 0.210666 0
M  V30 4 C 3.776155 -4.711508 0.636836 0
M  V30 5 C 3.944827 -3.247139 0.705500 0
M  V30 6 O 4.985827 -2.689545 1.122089 0
M  V30 7 N 2.810179 -2.517857 0.252564 0
M  V30 8 C 2.582903 -1.116683 0.162889 0
M  V30 9 C 2.897999 -0.388734 -0.966976 0
M  V30 10 C 2.648712 0.969092 -0.980551 0
M  V30 11 C 2.094432 1.613143 0.103772 0
M  V30 12 C 1.757794 0.946029 1.257615 0
M  V30 13 C 1.143576 1.492213 2.496373 0
M  V30 14 N -0.295656 1.331595 2.484993 0
M  V30 15 C -1.200111 1.895129 1.548895 0
M  V30 16 N -0.794077 2.673429 0.537521 0
M  V30 17 C -1.642435 3.211584 -0.347804 0
M  V30 18 N -2.965882 3.010775 -0.287636 0
M  V30 19 C -3.445246 2.227988 0.717863 0
M  V30 20 C -4.799535 2.018884 0.784336 0
M  V30 21 C -5.671731 2.624529 -0.198430 0
M  V30 22 N -5.158592 3.437740 -1.240471 0
M  V30 23 O -6.918256 2.465557 -0.183610 0
M  V30 24 C -5.352764 1.246336 1.763352 0
M  V30 25 C -4.475022 0.686057 2.684147 0
M  V30 26 C -3.120672 0.919348 2.584183 0
M  V30 27 C -2.553876 1.689226 1.611113 0
M  V30 28 C 2.031424 -0.427388 1.218314 0
M  V30 29 N 4.742351 -5.585171 1.022242 0
M  V30 30 N 4.332805 -6.831955 0.857464 0
M  V30 31 H 2.496685 -8.862411 0.062019 0
M  V30 32 H 1.803590 -7.626890 -1.117265 0
M  V30 33 H 1.138725 -7.787002 0.570532 0
M  V30 34 H 1.804880 -5.016939 -0.151302 0
M  V30 35 H 1.930488 -2.975714 -0.099453 0
M  V30 36 H 3.333964 -0.870489 -1.831512 0
M  V30 37 H 2.890731 1.555122 -1.860968 0
M  V30 38 H 1.910791 2.670795 0.095102 0
M  V30 39 H 1.430207 2.569119 2.573872 0
M  V30 40 H 1.563299 0.898825 3.328595 0
M  V30 41 H -0.668616 0.738163 3.254426 0
M  V30 42 H -1.315719 3.843020 -1.168767 0
M  V30 43 H -5.260628 4.369349 -1.673133 0
M  V30 44 H -5.246699 4.368857 -1.688211 0
M  V30 45 H -6.417324 1.103505 1.785765 0
M  V30 46 H -4.937633 0.073984 3.455791 0
M  V30 47 H -2.567512 0.434550 3.346780 0
M  V30 48 H 1.792016 -1.017162 2.093982 0
M  V30 49 H 5.692215 -5.337229 1.402099 0
M  V30 END ATOM
M  V30 BEGIN BOND
M  V30 1 1 1 2
M  V30 2 1 2 3
M  V30 3 2 3 4
M  V30 4 1 4 5
M  V30 5 2 5 6
M  V30 6 1 5 7
M  V30 7 1 7 8
M  V30 8 2 8 9
M  V30 9 1 9 10
M  V30 10 2 10 11
M  V30 11 1 11 12
M  V30 12 1 12 13
M  V30 13 1 13 14
M  V30 14 1 14 15
M  V30 15 2 15 16
M  V30 16 1 16 17
M  V30 17 2 17 18
M  V30 18 1 18 19
M  V30 19 2 19 20
M  V30 20 1 20 21
M  V30 21 1 21 22
M  V30 22 2 21 23
M  V30 23 1 20 24
M  V30 24 2 24 25
M  V30 25 1 25 26
M  V30 26 2 26 27
M  V30 27 2 12 28
M  V30 28 1 4 29
M  V30 29 1 29 30
M  V30 30 2 30 2
M  V30 31 1 28 8
M  V30 32 1 27 15
M  V30 33 1 27 19
M  V30 34 1 1 31
M  V30 35 1 1 32
M  V30 36 1 1 33
M  V30 37 1 3 34
M  V30 38 1 7 35
M  V30 39 1 9 36
M  V30 40 1 10 37
M  V30 41 1 11 38
M  V30 42 1 13 39
M  V30 43 1 13 40
M  V30 44 1 14 41
M  V30 45 1 17 42
M  V30 46 1 22 43
M  V30 47 1 22 44
M  V30 48 1 24 45
M  V30 49 1 25 46
M  V30 50 1 26 47
M  V30 51 1 28 48
M  V30 52 1 29 49
M  V30 END BOND
M  V30 END CTAB
M  END
>  <Dataset>  (195) 
ChEMBL_Kinases

>  <Ligand_Instance>  (195) 
nan

>  <PDB_ID>  (195) 
nan

>  <Standardized_SMILES>  (195) 
Cc1cc(C(=O)Nc2cccc(CNc3ncnc4c(C(N)=O)cccc34)c2)[nH]n1

>  <Name>  (195) 
nan

>  <Pocket>  (195) 
nan

>  <ATP_Site>  (195) 
nan

>  <Peripheral>  (195) 
nan

>  <Num_H_Atoms_ProtBoundConf>  (195) 
nan

>  <Num_Resolved_Atoms>  (195) 
nan

>  <Num_Not_Resolved_Atoms>  (195) 
nan

$$$$
CHEMBL4289877
     RDKit          3D

  0  0  0  0  0  0  0  0  0  0999 V3000
M  V30 BEGIN CTAB
M  V30 COUNTS 52 54 0 0 0
M  V30 BEGIN ATOM
M  V30 1 C 1.296227 -2.687458 7.040603 0
M  V30 2 N 1.792153 -3.155065 5.743666 0
M  V30 3 C 1.487929 -2.337481 4.626417 0
M  V30 4 O 0.817187 -1.302235 4.928798 0
M  V30 5 N 1.918349 -2.691307 3.313223 0
M  V30 6 C 1.584531 -1.830506 2.217869 0
M  V30 7 S 2.742640 -0.540085 1.826026 0
M  V30 8 C 1.738708 0.117863 0.424357 0
M  V30 9 C 2.001297 1.184788 -0.423257 0
M  V30 10 C 3.227343 1.977132 -0.278610 0
M  V30 11 C 2.967653 3.126416 0.672220 0
M  V30 12 C 4.399707 1.174157 0.286152 0
M  V30 13 C 1.066086 1.460455 -1.397754 0
M  V30 14 C -0.072105 0.641365 -1.452509 0
M  V30 15 N -1.035593 0.938579 -2.451337 0
M  V30 16 S -2.751983 1.120208 -2.481989 0
M  V30 17 O -3.217797 1.663354 -3.782921 0
M  V30 18 O -3.060583 2.138784 -1.385162 0
M  V30 19 C -3.576978 -0.332444 -2.019326 0
M  V30 20 C -4.043601 -0.746362 -0.782781 0
M  V30 21 C -4.680530 -1.962181 -0.651494 0
M  V30 22 C -4.872886 -2.797419 -1.731238 0
M  V30 23 C -4.421149 -2.411083 -2.962692 0
M  V30 24 C -3.780445 -1.192666 -3.105806 0
M  V30 25 C -0.280671 -0.403827 -0.585918 0
M  V30 26 C 0.635500 -0.703935 0.398322 0
M  V30 27 C 0.603488 -1.691284 1.341919 0
M  V30 28 C -0.470799 -2.665411 1.486384 0
M  V30 29 N -1.654806 -2.787459 0.714049 0
M  V30 30 O -0.470352 -3.553638 2.356276 0
M  V30 31 H 1.494993 -3.395580 7.855690 0
M  V30 32 H 0.216711 -2.473916 6.896959 0
M  V30 33 H 1.798345 -1.699316 7.255869 0
M  V30 34 H 2.347550 -4.038369 5.587315 0
M  V30 35 H 2.454991 -3.568092 3.246316 0
M  V30 36 H 3.572210 2.387833 -1.268448 0
M  V30 37 H 2.011074 3.012587 1.214832 0
M  V30 38 H 3.785104 3.249601 1.418877 0
M  V30 39 H 2.904553 4.075122 0.101028 0
M  V30 40 H 5.370201 1.581231 -0.122610 0
M  V30 41 H 4.332965 0.133092 -0.044503 0
M  V30 42 H 4.476868 1.271637 1.388455 0
M  V30 43 H 1.265412 2.288314 -2.058750 0
M  V30 44 H -0.563289 1.072577 -3.397590 0
M  V30 45 H -3.833509 -0.008250 -0.019934 0
M  V30 46 H -4.982371 -2.133063 0.380024 0
M  V30 47 H -5.387154 -3.713873 -1.469228 0
M  V30 48 H -4.595510 -3.099325 -3.776707 0
M  V30 49 H -3.472536 -1.009761 -4.137546 0
M  V30 50 H -1.188386 -0.969821 -0.721147 0
M  V30 51 H -1.286224 -3.308648 -0.130082 0
M  V30 52 H -1.246177 -3.301775 -0.098619 0
M  V30 END ATOM
M  V30 BEGIN BOND
M  V30 1 1 1 2
M  V30 2 1 2 3
M  V30 3 2 3 4
M  V30 4 1 3 5
M  V30 5 1 5 6
M  V30 6 1 6 7
M  V30 7 1 7 8
M  V30 8 2 8 9
M  V30 9 1 9 10
M  V30 10 1 10 11
M  V30 11 1 10 12
M  V30 12 1 9 13
M  V30 13 2 13 14
M  V30 14 1 14 15
M  V30 15 1 15 16
M  V30 16 2 16 17
M  V30 17 2 16 18
M  V30 18 1 16 19
M  V30 19 2 19 20
M  V30 20 1 20 21
M  V30 21 2 21 22
M  V30 22 1 22 23
M  V30 23 2 23 24
M  V30 24 1 14 25
M  V30 25 2 25 26
M  V30 26 1 26 27
M  V30 27 1 27 28
M  V30 28 1 28 29
M  V30 29 2 28 30
M  V30 30 2 27 6
M  V30 31 1 26 8
M  V30 32 1 24 19
M  V30 33 1 1 31
M  V30 34 1 1 32
M  V30 35 1 1 33
M  V30 36 1 2 34
M  V30 37 1 5 35
M  V30 38 1 10 36
M  V30 39 1 11 37
M  V30 40 1 11 38
M  V30 41 1 11 39
M  V30 42 1 12 40
M  V30 43 1 12 41
M  V30 44 1 12 42
M  V30 45 1 13 43
M  V30 46 1 15 44
M  V30 47 1 20 45
M  V30 48 1 21 46
M  V30 49 1 22 47
M  V30 50 1 23 48
M  V30 51 1 24 49
M  V30 52 1 25 50
M  V30 53 1 29 51
M  V30 54 1 29 52
M  V30 END BOND
M  V30 END CTAB
M  END
>  <Dataset>  (196) 
ChEMBL_Kinases

>  <Ligand_Instance>  (196) 
nan

>  <PDB_ID>  (196) 
nan

>  <Standardized_SMILES>  (196) 
CNC(=O)Nc1sc2c(C(C)C)cc(NS(=O)(=O)c3ccccc3)cc2c1C(N)=O

>  <Name>  (196) 
nan

>  <Pocket>  (196) 
nan

>  <ATP_Site>  (196) 
nan

>  <Peripheral>  (196) 
nan

>  <Num_H_Atoms_ProtBoundConf>  (196) 
nan

>  <Num_Resolved_Atoms>  (196) 
nan

>  <Num_Not_Resolved_Atoms>  (196) 
nan

$$$$
CHEMBL3701758
     RDKit          3D

  0  0  0  0  0  0  0  0  0  0999 V3000
M  V30 BEGIN CTAB
M  V30 COUNTS 61 66 0 0 0
M  V30 BEGIN ATOM
M  V30 1 C 4.113748 -2.028486 6.471503 0
M  V30 2 C 3.243556 -1.638560 5.324154 0
M  V30 3 O 1.885876 -1.748460 5.663763 0
M  V30 4 C 3.569649 -0.355436 4.609142 0
M  V30 5 C 3.679661 -1.067851 3.289258 0
M  V30 6 N 4.964769 -0.887457 2.612781 0
M  V30 7 C 2.566158 -0.949647 2.359311 0
M  V30 8 C 1.939468 -1.999650 1.675671 0
M  V30 9 C 0.881817 -1.791670 0.816054 0
M  V30 10 C 0.397262 -0.512084 0.597992 0
M  V30 11 C -0.722220 -0.457196 -0.336151 0
M  V30 12 N -0.514277 -0.858627 -1.625489 0
M  V30 13 C -1.666565 -0.727595 -2.311893 0
M  V30 14 N -2.613211 -0.251231 -1.495634 0
M  V30 15 C -2.049331 -0.077410 -0.269982 0
M  V30 16 C -2.546851 0.403626 1.018378 0
M  V30 17 C -2.627914 -0.279342 2.216922 0
M  V30 18 C -3.131744 0.351272 3.331757 0
M  V30 19 C -3.556513 1.656312 3.266701 0
M  V30 20 C -3.480151 2.351518 2.070245 0
M  V30 21 C -2.969476 1.713706 0.938772 0
M  V30 22 C -3.983805 0.055779 -1.745148 0
M  V30 23 O -4.312932 -0.210644 -3.079581 0
M  V30 24 C -3.432421 -0.704922 -4.031501 0
M  V30 25 C -3.795265 -0.955160 -5.341392 0
M  V30 26 C -2.919060 -1.445906 -6.285518 0
M  V30 27 C -1.612620 -1.697345 -5.892145 0
M  V30 28 C -0.621824 -2.226884 -6.866591 0
M  V30 29 O -0.605952 -3.626157 -6.883860 0
M  V30 30 C -1.217929 -1.460133 -4.598342 0
M  V30 31 C -2.125970 -0.966956 -3.677826 0
M  V30 32 C 0.987074 0.561914 1.254010 0
M  V30 33 C 2.038725 0.271877 2.096627 0
M  V30 34 C 3.622070 -2.373200 4.055347 0
M  V30 35 H 5.068822 -1.488475 6.551242 0
M  V30 36 H 4.360682 -3.130659 6.433763 0
M  V30 37 H 3.593806 -1.904566 7.466742 0
M  V30 38 H 1.348042 -1.147264 5.118595 0
M  V30 39 H 4.580105 0.013811 4.923798 0
M  V30 40 H 2.781927 0.402945 4.717468 0
M  V30 41 H 5.479130 -1.818066 2.607385 0
M  V30 42 H 4.817692 -0.684993 1.596812 0
M  V30 43 H 2.316876 -2.999489 1.841149 0
M  V30 44 H 0.469157 -2.685613 0.335986 0
M  V30 45 H -2.262918 -1.301058 2.140576 0
M  V30 46 H -3.167528 -0.240578 4.238761 0
M  V30 47 H -3.936369 2.055397 4.206270 0
M  V30 48 H -3.833080 3.392812 2.071713 0
M  V30 49 H -2.968513 2.375945 0.075582 0
M  V30 50 H -4.666579 -0.585273 -1.126171 0
M  V30 51 H -4.208563 1.147429 -1.568522 0
M  V30 52 H -4.805702 -0.764955 -5.663768 0
M  V30 53 H -3.264017 -1.622122 -7.298666 0
M  V30 54 H -0.800785 -1.834159 -7.897370 0
M  V30 55 H 0.415595 -1.924589 -6.560944 0
M  V30 56 H 0.043120 -4.011635 -6.231843 0
M  V30 57 H -0.190440 -1.654295 -4.273696 0
M  V30 58 H 0.562517 1.527231 1.039760 0
M  V30 59 H 2.458386 1.143713 2.578651 0
M  V30 60 H 4.586889 -2.923454 4.089231 0
M  V30 61 H 2.810128 -3.066653 3.795592 0
M  V30 END ATOM
M  V30 BEGIN BOND
M  V30 1 1 1 2
M  V30 2 1 2 3
M  V30 3 1 2 4
M  V30 4 1 4 5
M  V30 5 1 5 6
M  V30 6 1 5 7
M  V30 7 2 7 8
M  V30 8 1 8 9
M  V30 9 2 9 10
M  V30 10 1 10 11
M  V30 11 1 11 12
M  V30 12 2 12 13
M  V30 13 1 13 14
M  V30 14 1 14 15
M  V30 15 1 15 16
M  V30 16 2 16 17
M  V30 17 1 17 18
M  V30 18 2 18 19
M  V30 19 1 19 20
M  V30 20 2 20 21
M  V30 21 1 14 22
M  V30 22 1 22 23
M  V30 23 1 23 24
M  V30 24 2 24 25
M  V30 25 1 25 26
M  V30 26 2 26 27
M  V30 27 1 27 28
M  V30 28 1 28 29
M  V30 29 1 27 30
M  V30 30 2 30 31
M  V30 31 1 10 32
M  V30 32 2 32 33
M  V30 33 1 5 34
M  V30 34 1 34 2
M  V30 35 1 33 7
M  V30 36 2 15 11
M  V30 37 1 21 16
M  V30 38 1 31 24
M  V30 39 1 31 13
M  V30 40 1 1 35
M  V30 41 1 1 36
M  V30 42 1 1 37
M  V30 43 1 3 38
M  V30 44 1 4 39
M  V30 45 1 4 40
M  V30 46 1 6 41
M  V30 47 1 6 42
M  V30 48 1 8 43
M  V30 49 1 9 44
M  V30 50 1 17 45
M  V30 51 1 18 46
M  V30 52 1 19 47
M  V30 53 1 20 48
M  V30 54 1 21 49
M  V30 55 1 22 50
M  V30 56 1 22 51
M  V30 57 1 25 52
M  V30 58 1 26 53
M  V30 59 1 28 54
M  V30 60 1 28 55
M  V30 61 1 29 56
M  V30 62 1 30 57
M  V30 63 1 32 58
M  V30 64 1 33 59
M  V30 65 1 34 60
M  V30 66 1 34 61
M  V30 END BOND
M  V30 END CTAB
M  END
>  <Dataset>  (197) 
ChEMBL_Kinases

>  <Ligand_Instance>  (197) 
nan

>  <PDB_ID>  (197) 
nan

>  <Standardized_SMILES>  (197) 
CC1(O)CC(N)(c2ccc(-c3nc4n(c3-c3ccccc3)COc3ccc(CO)cc3-4)cc2)C1

>  <Name>  (197) 
nan

>  <Pocket>  (197) 
nan

>  <ATP_Site>  (197) 
nan

>  <Peripheral>  (197) 
nan

>  <Num_H_Atoms_ProtBoundConf>  (197) 
nan

>  <Num_Resolved_Atoms>  (197) 
nan

>  <Num_Not_Resolved_Atoms>  (197) 
nan

$$$$
CHEMBL3701757
     RDKit          3D

  0  0  0  0  0  0  0  0  0  0999 V3000
M  V30 BEGIN CTAB
M  V30 COUNTS 58 63 0 0 0
M  V30 BEGIN ATOM
M  V30 1 C 5.774457 1.101867 2.055057 0
M  V30 2 C 5.229918 0.087205 1.106236 0
M  V30 3 C 5.155910 0.546991 -0.328181 0
M  V30 4 O 6.368664 0.897102 -0.871432 0
M  V30 5 C 4.026198 1.475142 -0.679291 0
M  V30 6 C 3.259003 0.390532 -1.355360 0
M  V30 7 N 3.112234 0.621974 -2.800410 0
M  V30 8 C 2.003144 -0.060134 -0.723664 0
M  V30 9 C 1.350855 0.355935 0.417993 0
M  V30 10 C 0.168912 -0.246059 0.794064 0
M  V30 11 C -0.406335 -1.269237 0.066430 0
M  V30 12 C -1.665808 -1.796832 0.603607 0
M  V30 13 N -1.857064 -3.058552 1.069767 0
M  V30 14 C -3.116432 -3.211843 1.484953 0
M  V30 15 N -3.744292 -2.038208 1.284838 0
M  V30 16 C -2.893439 -1.145762 0.747602 0
M  V30 17 C -3.005389 0.247526 0.328224 0
M  V30 18 C -2.767526 0.453594 -1.030048 0
M  V30 19 C -2.851186 1.750032 -1.514822 0
M  V30 20 C -3.155829 2.839726 -0.728179 0
M  V30 21 C -3.384222 2.587335 0.612641 0
M  V30 22 C -3.313138 1.317469 1.142871 0
M  V30 23 C -5.124067 -1.785911 1.604399 0
M  V30 24 O -5.790608 -2.874877 2.150815 0
M  V30 25 C -5.261692 -4.130900 2.405965 0
M  V30 26 N -5.976225 -5.138333 2.940470 0
M  V30 27 C -5.377145 -6.343830 3.158482 0
M  V30 28 C -4.034762 -6.494696 2.818185 0
M  V30 29 N -3.339111 -5.465561 2.282100 0
M  V30 30 C -3.932134 -4.274708 2.067232 0
M  V30 31 C 0.235555 -1.695214 -1.077091 0
M  V30 32 C 1.429509 -1.097522 -1.470471 0
M  V30 33 C 4.452571 -0.521447 -1.151456 0
M  V30 34 H 5.510724 0.728536 3.090306 0
M  V30 35 H 6.870564 1.167796 2.040856 0
M  V30 36 H 5.275420 2.085933 1.968901 0
M  V30 37 H 5.915297 -0.798876 1.114522 0
M  V30 38 H 4.252649 -0.270633 1.480341 0
M  V30 39 H 7.127716 0.847458 -0.239813 0
M  V30 40 H 3.551225 2.000771 0.145677 0
M  V30 41 H 4.384033 2.254583 -1.413860 0
M  V30 42 H 3.868599 0.218524 -3.360139 0
M  V30 43 H 3.046496 1.681359 -2.881244 0
M  V30 44 H 1.875155 1.149498 0.908008 0
M  V30 45 H -0.271732 0.144741 1.702728 0
M  V30 46 H -2.518660 -0.324369 -1.755473 0
M  V30 47 H -2.669502 1.927911 -2.565761 0
M  V30 48 H -3.207865 3.830419 -1.159743 0
M  V30 49 H -3.623966 3.438141 1.240882 0
M  V30 50 H -3.487933 1.103022 2.179945 0
M  V30 51 H -5.704732 -1.427628 0.722433 0
M  V30 52 H -5.120939 -0.918255 2.317722 0
M  V30 53 H -5.994572 -7.120694 3.589584 0
M  V30 54 H -3.621938 -7.476088 3.018169 0
M  V30 55 H -0.244107 -2.495449 -1.617577 0
M  V30 56 H 1.818262 -1.541365 -2.396080 0
M  V30 57 H 4.995922 -0.832992 -2.059407 0
M  V30 58 H 4.147966 -1.432997 -0.595239 0
M  V30 END ATOM
M  V30 BEGIN BOND
M  V30 1 1 1 2
M  V30 2 1 2 3
M  V30 3 1 3 4
M  V30 4 1 3 5
M  V30 5 1 5 6
M  V30 6 1 6 7
M  V30 7 1 6 8
M  V30 8 2 8 9
M  V30 9 1 9 10
M  V30 10 2 10 11
M  V30 11 1 11 12
M  V30 12 1 12 13
M  V30 13 2 13 14
M  V30 14 1 14 15
M  V30 15 1 15 16
M  V30 16 1 16 17
M  V30 17 2 17 18
M  V30 18 1 18 19
M  V30 19 2 19 20
M  V30 20 1 20 21
M  V30 21 2 21 22
M  V30 22 1 15 23
M  V30 23 1 23 24
M  V30 24 1 24 25
M  V30 25 2 25 26
M  V30 26 1 26 27
M  V30 27 2 27 28
M  V30 28 1 28 29
M  V30 29 2 29 30
M  V30 30 1 11 31
M  V30 31 2 31 32
M  V30 32 1 6 33
M  V30 33 1 33 3
M  V30 34 1 32 8
M  V30 35 2 16 12
M  V30 36 1 22 17
M  V30 37 1 30 25
M  V30 38 1 30 14
M  V30 39 1 1 34
M  V30 40 1 1 35
M  V30 41 1 1 36
M  V30 42 1 2 37
M  V30 43 1 2 38
M  V30 44 1 4 39
M  V30 45 1 5 40
M  V30 46 1 5 41
M  V30 47 1 7 42
M  V30 48 1 7 43
M  V30 49 1 9 44
M  V30 50 1 10 45
M  V30 51 1 18 46
M  V30 52 1 19 47
M  V30 53 1 20 48
M  V30 54 1 21 49
M  V30 55 1 22 50
M  V30 56 1 23 51
M  V30 57 1 23 52
M  V30 58 1 27 53
M  V30 59 1 28 54
M  V30 60 1 31 55
M  V30 61 1 32 56
M  V30 62 1 33 57
M  V30 63 1 33 58
M  V30 END BOND
M  V30 END CTAB
M  END
>  <Dataset>  (198) 
ChEMBL_Kinases

>  <Ligand_Instance>  (198) 
nan

>  <PDB_ID>  (198) 
nan

>  <Standardized_SMILES>  (198) 
CCC1(O)CC(N)(c2ccc(-c3nc4n(c3-c3ccccc3)COc3nccnc3-4)cc2)C1

>  <Name>  (198) 
nan

>  <Pocket>  (198) 
nan

>  <ATP_Site>  (198) 
nan

>  <Peripheral>  (198) 
nan

>  <Num_H_Atoms_ProtBoundConf>  (198) 
nan

>  <Num_Resolved_Atoms>  (198) 
nan

>  <Num_Not_Resolved_Atoms>  (198) 
nan

$$$$
CHEMBL4289613
     RDKit          3D

  0  0  0  0  0  0  0  0  0  0999 V3000
M  V30 BEGIN CTAB
M  V30 COUNTS 47 50 0 0 0
M  V30 BEGIN ATOM
M  V30 1 C -1.141530 -5.405988 2.256248 0
M  V30 2 C -0.076236 -4.877069 1.377841 0
M  V30 3 O 1.094211 -4.974867 1.826680 0
M  V30 4 N -0.218037 -4.276095 0.096487 0
M  V30 5 C 1.033455 -3.885551 -0.455783 0
M  V30 6 C 0.913719 -3.323696 -1.830693 0
M  V30 7 C -0.298090 -2.440865 -2.037347 0
M  V30 8 C -0.099071 -1.062205 -1.500835 0
M  V30 9 C -0.011269 0.014040 -2.391852 0
M  V30 10 C 0.174587 1.340353 -1.981551 0
M  V30 11 C 0.276189 1.598195 -0.630021 0
M  V30 12 O 0.450631 2.824082 -0.199153 0
M  V30 13 C 0.555685 3.141800 1.075028 0
M  V30 14 N 0.735132 4.420027 1.476259 0
M  V30 15 C 0.842674 4.740753 2.791148 0
M  V30 16 N 1.030027 6.098974 3.152391 0
M  V30 17 C 0.763152 3.717360 3.715740 0
M  V30 18 C 0.884321 4.112960 5.115920 0
M  V30 19 O 1.049933 5.326574 5.405789 0
M  V30 20 O 0.829547 3.228695 6.185196 0
M  V30 21 C 0.581194 2.385093 3.396025 0
M  V30 22 C 0.482127 2.151684 2.035264 0
M  V30 23 C 0.298045 0.841827 1.619615 0
M  V30 24 O 0.215637 -0.145160 2.400137 0
M  V30 25 C 0.193152 0.555966 0.271460 0
M  V30 26 C 0.009876 -0.737191 -0.168516 0
M  V30 27 C -1.551588 -3.073984 -1.593686 0
M  V30 28 C -1.484750 -4.104101 -0.525655 0
M  V30 29 H -1.056686 -4.953654 3.275750 0
M  V30 30 H -2.168502 -5.160694 1.922576 0
M  V30 31 H -1.022513 -6.523967 2.354560 0
M  V30 32 H 1.619308 -3.213688 0.224381 0
M  V30 33 H 1.648351 -4.827191 -0.556613 0
M  V30 34 H 0.823342 -4.138653 -2.573771 0
M  V30 35 H 1.839123 -2.742294 -2.025196 0
M  V30 36 H -0.340200 -2.287235 -3.150309 0
M  V30 37 H -0.083980 -0.125130 -3.468978 0
M  V30 38 H 0.235113 2.129564 -2.709941 0
M  V30 39 H 0.125571 6.649954 3.207627 0
M  V30 40 H 2.046961 6.292728 3.296165 0
M  V30 41 H 1.249661 3.466608 7.097005 0
M  V30 42 H 0.521018 1.600074 4.121294 0
M  V30 43 H -0.050946 -1.520332 0.541328 0
M  V30 44 H -2.233984 -2.248556 -1.236506 0
M  V30 45 H -2.078172 -3.510846 -2.472696 0
M  V30 46 H -1.786911 -5.100897 -0.912278 0
M  V30 47 H -2.229192 -3.921670 0.305063 0
M  V30 END ATOM
M  V30 BEGIN BOND
M  V30 1 1 1 2
M  V30 2 2 2 3
M  V30 3 1 2 4
M  V30 4 1 4 5
M  V30 5 1 5 6
M  V30 6 1 6 7
M  V30 7 1 7 8
M  V30 8 2 8 9
M  V30 9 1 9 10
M  V30 10 2 10 11
M  V30 11 1 11 12
M  V30 12 1 12 13
M  V30 13 2 13 14
M  V30 14 1 14 15
M  V30 15 1 15 16
M  V30 16 2 15 17
M  V30 17 1 17 18
M  V30 18 2 18 19
M  V30 19 1 18 20
M  V30 20 1 17 21
M  V30 21 2 21 22
M  V30 22 1 22 23
M  V30 23 2 23 24
M  V30 24 1 23 25
M  V30 25 2 25 26
M  V30 26 1 7 27
M  V30 27 1 27 28
M  V30 28 1 28 4
M  V30 29 1 26 8
M  V30 30 1 25 11
M  V30 31 1 22 13
M  V30 32 1 1 29
M  V30 33 1 1 30
M  V30 34 1 1 31
M  V30 35 1 5 32
M  V30 36 1 5 33
M  V30 37 1 6 34
M  V30 38 1 6 35
M  V30 39 1 7 36
M  V30 40 1 9 37
M  V30 41 1 10 38
M  V30 42 1 16 39
M  V30 43 1 16 40
M  V30 44 1 20 41
M  V30 45 1 21 42
M  V30 46 1 26 43
M  V30 47 1 27 44
M  V30 48 1 27 45
M  V30 49 1 28 46
M  V30 50 1 28 47
M  V30 END BOND
M  V30 END CTAB
M  END
>  <Dataset>  (199) 
ChEMBL_Kinases

>  <Ligand_Instance>  (199) 
nan

>  <PDB_ID>  (199) 
nan

>  <Standardized_SMILES>  (199) 
CC(=O)N1CCC(c2ccc3oc4nc(N)c(C(=O)O)cc4c(=O)c3c2)CC1

>  <Name>  (199) 
nan

>  <Pocket>  (199) 
nan

>  <ATP_Site>  (199) 
nan

>  <Peripheral>  (199) 
nan

>  <Num_H_Atoms_ProtBoundConf>  (199) 
nan

>  <Num_Resolved_Atoms>  (199) 
nan

>  <Num_Not_Resolved_Atoms>  (199) 
nan

$$$$
CHEMBL4289433
     RDKit          3D

  0  0  0  0  0  0  0  0  0  0999 V3000
M  V30 BEGIN CTAB
M  V30 COUNTS 53 57 0 0 0
M  V30 BEGIN ATOM
M  V30 1 C 0.325887 -7.095558 3.440079 0
M  V30 2 C 0.603750 -5.777007 2.836129 0
M  V30 3 C -0.315750 -5.211297 1.985994 0
M  V30 4 C -0.007893 -4.006489 1.464913 0
M  V30 5 C 1.086617 -3.213187 1.632937 0
M  V30 6 C 1.520387 -1.893554 1.235606 0
M  V30 7 N 2.767444 -1.612414 1.454903 0
M  V30 8 C 3.559386 -0.479701 1.212915 0
M  V30 9 C 3.259428 0.445818 0.199467 0
M  V30 10 N 4.250229 1.388491 0.191770 0
M  V30 11 N 5.109455 1.051811 1.156432 0
M  V30 12 C 4.726994 -0.083699 1.807777 0
M  V30 13 C 5.390784 -0.790921 2.929631 0
M  V30 14 N 2.123707 0.509484 -0.711125 0
M  V30 15 C 0.839060 0.059333 -0.220934 0
M  V30 16 N -0.164030 0.855617 -0.711101 0
M  V30 17 C -1.435655 0.628598 -0.255715 0
M  V30 18 N -2.444439 1.465742 -0.783744 0
M  V30 19 C -2.087980 2.469859 -1.733753 0
M  V30 20 C -3.148151 2.715648 -2.773139 0
M  V30 21 N -4.485754 2.749625 -2.278997 0
M  V30 22 C -4.863115 3.939942 -1.581481 0
M  V30 23 C -4.771134 1.549106 -1.558326 0
M  V30 24 C -3.821189 1.347099 -0.401956 0
M  V30 25 N -1.673039 -0.361919 0.657615 0
M  V30 26 C -0.706178 -1.153662 1.150678 0
M  V30 27 C 0.570072 -0.934379 0.692876 0
M  V30 28 C 1.965834 -3.878545 2.515512 0
M  V30 29 C 1.771561 -5.102714 3.110705 0
M  V30 30 H -0.374941 -7.036547 4.297198 0
M  V30 31 H -0.141109 -7.750650 2.671842 0
M  V30 32 H 1.264401 -7.636511 3.726706 0
M  V30 33 H -1.256204 -5.660887 1.711024 0
M  V30 34 H -0.689513 -3.567937 0.724966 0
M  V30 35 H 5.954868 1.618382 1.350295 0
M  V30 36 H 4.671209 -1.013669 3.766983 0
M  V30 37 H 5.649591 -1.816320 2.534622 0
M  V30 38 H 6.299577 -0.293863 3.271136 0
M  V30 39 H 2.206496 0.882624 -1.665407 0
M  V30 40 H -1.151871 2.183167 -2.295204 0
M  V30 41 H -1.863040 3.425967 -1.225104 0
M  V30 42 H -3.102442 1.928145 -3.578508 0
M  V30 43 H -2.968039 3.680583 -3.289913 0
M  V30 44 H -3.916965 4.496670 -1.327464 0
M  V30 45 H -5.495961 4.533004 -2.277608 0
M  V30 46 H -5.368531 3.681464 -0.631390 0
M  V30 47 H -4.776235 0.669691 -2.206343 0
M  V30 48 H -5.787938 1.652760 -1.103223 0
M  V30 49 H -4.080862 2.013209 0.470220 0
M  V30 50 H -3.983034 0.307100 -0.026491 0
M  V30 51 H -0.864031 -1.890126 1.913297 0
M  V30 52 H 2.933361 -3.436766 2.810512 0
M  V30 53 H 2.480991 -5.564597 3.779788 0
M  V30 END ATOM
M  V30 BEGIN BOND
M  V30 1 1 1 2
M  V30 2 2 2 3
M  V30 3 1 3 4
M  V30 4 2 4 5
M  V30 5 1 5 6
M  V30 6 2 6 7
M  V30 7 1 7 8
M  V30 8 1 8 9
M  V30 9 2 9 10
M  V30 10 1 10 11
M  V30 11 1 11 12
M  V30 12 1 12 13
M  V30 13 1 9 14
M  V30 14 1 14 15
M  V30 15 2 15 16
M  V30 16 1 16 17
M  V30 17 1 17 18
M  V30 18 1 18 19
M  V30 19 1 19 20
M  V30 20 1 20 21
M  V30 21 1 21 22
M  V30 22 1 21 23
M  V30 23 1 23 24
M  V30 24 2 17 25
M  V30 25 1 25 26
M  V30 26 2 26 27
M  V30 27 1 5 28
M  V30 28 2 28 29
M  V30 29 1 29 2
M  V30 30 1 27 6
M  V30 31 2 12 8
M  V30 32 1 27 15
M  V30 33 1 24 18
M  V30 34 1 1 30
M  V30 35 1 1 31
M  V30 36 1 1 32
M  V30 37 1 3 33
M  V30 38 1 4 34
M  V30 39 1 11 35
M  V30 40 1 13 36
M  V30 41 1 13 37
M  V30 42 1 13 38
M  V30 43 1 14 39
M  V30 44 1 19 40
M  V30 45 1 19 41
M  V30 46 1 20 42
M  V30 47 1 20 43
M  V30 48 1 22 44
M  V30 49 1 22 45
M  V30 50 1 22 46
M  V30 51 1 23 47
M  V30 52 1 23 48
M  V30 53 1 24 49
M  V30 54 1 24 50
M  V30 55 1 26 51
M  V30 56 1 28 52
M  V30 57 1 29 53
M  V30 END BOND
M  V30 END CTAB
M  END
>  <Dataset>  (200) 
ChEMBL_Kinases

>  <Ligand_Instance>  (200) 
nan

>  <PDB_ID>  (200) 
nan

>  <Standardized_SMILES>  (200) 
Cc1ccc(C2=Nc3c(n[nH]c3C)Nc3nc(N4CCN(C)CC4)ncc32)cc1

>  <Name>  (200) 
nan

>  <Pocket>  (200) 
nan

>  <ATP_Site>  (200) 
nan

>  <Peripheral>  (200) 
nan

>  <Num_H_Atoms_ProtBoundConf>  (200) 
nan

>  <Num_Resolved_Atoms>  (200) 
nan

>  <Num_Not_Resolved_Atoms>  (200) 
nan

$$$$
CHEMBL4289062
     RDKit          3D

  0  0  0  0  0  0  0  0  0  0999 V3000
M  V30 BEGIN CTAB
M  V30 COUNTS 37 39 0 0 0
M  V30 BEGIN ATOM
M  V30 1 C -2.374655 -2.248357 4.402880 0
M  V30 2 C -1.217482 -2.485395 3.506741 0
M  V30 3 C -0.249598 -1.550022 3.210089 0
M  V30 4 C 0.675868 -2.091549 2.351566 0
M  V30 5 N 1.896254 -1.664543 1.697494 0
M  V30 6 C 1.364213 -0.788599 0.700044 0
M  V30 7 N 0.662147 -1.218978 -0.382626 0
M  V30 8 C 0.193968 -0.320187 -1.303398 0
M  V30 9 C -0.551265 -1.088078 -2.339526 0
M  V30 10 C 0.367681 -2.223084 -2.836556 0
M  V30 11 C -1.015208 -0.278389 -3.488476 0
M  V30 12 N 0.424397 1.007898 -1.149207 0
M  V30 13 C 1.119009 1.412082 -0.073747 0
M  V30 14 C 1.321697 2.788451 0.025893 0
M  V30 15 C 2.033957 3.343945 1.101069 0
M  V30 16 C 2.512486 2.453309 2.033165 0
M  V30 17 C 2.341309 1.086632 1.984083 0
M  V30 18 C 1.635267 0.566988 0.918665 0
M  V30 19 N 0.250009 -3.377405 2.132166 0
M  V30 20 N -0.870103 -3.584460 2.825338 0
M  V30 21 H -2.286804 -1.254339 4.920072 0
M  V30 22 H -2.479281 -3.041290 5.156584 0
M  V30 23 H -3.350499 -2.263705 3.824054 0
M  V30 24 H -0.106045 -0.537464 3.521233 0
M  V30 25 H 2.893378 -1.928282 1.901002 0
M  V30 26 H -1.406707 -1.614254 -1.830018 0
M  V30 27 H -0.180986 -2.807277 -3.603027 0
M  V30 28 H 1.286782 -1.781830 -3.244212 0
M  V30 29 H 0.616366 -2.881678 -1.992605 0
M  V30 30 H -0.219418 0.456090 -3.770868 0
M  V30 31 H -1.983025 0.231971 -3.311438 0
M  V30 32 H -1.206363 -0.979889 -4.355545 0
M  V30 33 H 0.961463 3.546161 -0.686157 0
M  V30 34 H 2.190234 4.407368 1.174174 0
M  V30 35 H 3.066515 2.862259 2.876946 0
M  V30 36 H 2.705722 0.369538 2.696252 0
M  V30 37 H -1.423635 -4.480063 2.850867 0
M  V30 END ATOM
M  V30 BEGIN BOND
M  V30 1 1 1 2
M  V30 2 2 2 3
M  V30 3 1 3 4
M  V30 4 1 4 5
M  V30 5 1 5 6
M  V30 6 2 6 7
M  V30 7 1 7 8
M  V30 8 1 8 9
M  V30 9 1 9 10
M  V30 10 1 9 11
M  V30 11 2 8 12
M  V30 12 1 12 13
M  V30 13 2 13 14
M  V30 14 1 14 15
M  V30 15 2 15 16
M  V30 16 1 16 17
M  V30 17 2 17 18
M  V30 18 2 4 19
M  V30 19 1 19 20
M  V30 20 1 20 2
M  V30 21 1 18 6
M  V30 22 1 18 13
M  V30 23 1 1 21
M  V30 24 1 1 22
M  V30 25 1 1 23
M  V30 26 1 3 24
M  V30 27 1 5 25
M  V30 28 1 9 26
M  V30 29 1 10 27
M  V30 30 1 10 28
M  V30 31 1 10 29
M  V30 32 1 11 30
M  V30 33 1 11 31
M  V30 34 1 11 32
M  V30 35 1 14 33
M  V30 36 1 15 34
M  V30 37 1 16 35
M  V30 38 1 17 36
M  V30 39 1 20 37
M  V30 END BOND
M  V30 END CTAB
M  END
>  <Dataset>  (201) 
ChEMBL_Kinases

>  <Ligand_Instance>  (201) 
nan

>  <PDB_ID>  (201) 
nan

>  <Standardized_SMILES>  (201) 
Cc1cc(Nc2nc(C(C)C)nc3ccccc23)n[nH]1

>  <Name>  (201) 
nan

>  <Pocket>  (201) 
nan

>  <ATP_Site>  (201) 
nan

>  <Peripheral>  (201) 
nan

>  <Num_H_Atoms_ProtBoundConf>  (201) 
nan

>  <Num_Resolved_Atoms>  (201) 
nan

>  <Num_Not_Resolved_Atoms>  (201) 
nan

$$$$
CHEMBL4289017
     RDKit          3D

  0  0  0  0  0  0  0  0  0  0999 V3000
M  V30 BEGIN CTAB
M  V30 COUNTS 59 63 0 0 0
M  V30 BEGIN ATOM
M  V30 1 C 4.912355 -2.960672 3.077434 0
M  V30 2 C 4.794140 -1.485619 3.176998 0
M  V30 3 O 5.561438 -1.109679 4.115483 0
M  V30 4 N 3.974874 -0.621580 2.376474 0
M  V30 5 C 4.195022 0.740158 2.845560 0
M  V30 6 C 3.405989 1.745687 2.099425 0
M  V30 7 O 3.743169 2.844392 2.661146 0
M  V30 8 N 2.461346 1.687926 1.005591 0
M  V30 9 C 1.740492 0.827776 0.043429 0 CFG=2
M  V30 10 C 2.284233 1.379585 -1.239916 0
M  V30 11 C 2.250088 2.873276 -0.941171 0
M  V30 12 C 1.876576 2.928578 0.523251 0 CFG=1
M  V30 13 C 0.452356 2.589536 0.635952 0
M  V30 14 C -0.674069 3.300031 0.958820 0
M  V30 15 C -1.886621 2.691149 0.974497 0
M  V30 16 C -2.074178 1.336037 0.672117 0
M  V30 17 N -3.357834 0.731459 0.705031 0
M  V30 18 C -3.770820 -0.585813 0.394810 0
M  V30 19 N -5.086051 -0.833217 0.560119 0
M  V30 20 C -5.675710 -2.004965 0.318583 0
M  V30 21 C -4.849316 -3.001479 -0.128185 0
M  V30 22 C -5.507659 -4.313689 -0.404448 0
M  V30 23 F -5.380523 -4.710818 -1.717288 0
M  V30 24 F -6.859860 -4.288030 -0.125632 0
M  V30 25 F -4.985996 -5.316862 0.423519 0
M  V30 26 C -3.495105 -2.831525 -0.323533 0
M  V30 27 N -2.710912 -3.905909 -0.790070 0
M  V30 28 C -1.314708 -4.023400 -1.079995 0
M  V30 29 C -0.792632 -3.054335 -2.119351 0
M  V30 30 C 0.354316 -2.773553 -1.139810 0
M  V30 31 C -0.441717 -3.389337 -0.034060 0
M  V30 32 N -3.010512 -1.599545 -0.044823 0
M  V30 33 C -0.896675 0.691430 0.358180 0
M  V30 34 C 0.353033 1.248323 0.325373 0
M  V30 35 H 5.961101 -3.215074 2.793585 0
M  V30 36 H 4.175280 -3.360786 2.343507 0
M  V30 37 H 4.713067 -3.443328 4.059869 0
M  V30 38 H 3.477367 -1.230244 1.709777 0
M  V30 39 H 5.282179 0.947061 2.694678 0
M  V30 40 H 3.990427 0.770983 3.952354 0
M  V30 41 H 1.941029 -0.225479 0.213571 0
M  V30 42 H 1.683157 1.125542 -2.128966 0
M  V30 43 H 3.339898 1.081763 -1.304468 0
M  V30 44 H 1.385593 3.313683 -1.509591 0
M  V30 45 H 3.186803 3.388185 -1.186396 0
M  V30 46 H 2.187109 3.830472 1.033185 0
M  V30 47 H -0.591326 4.339113 1.198580 0
M  V30 48 H -2.747578 3.312303 1.240201 0
M  V30 49 H -4.097171 1.418880 1.020116 0
M  V30 50 H -6.733376 -2.164391 0.463245 0
M  V30 51 H -3.243915 -4.812617 -0.964969 0
M  V30 52 H -1.016538 -5.059830 -1.358433 0
M  V30 53 H -0.386387 -3.534742 -3.021955 0
M  V30 54 H -1.461225 -2.177168 -2.282832 0
M  V30 55 H 0.575131 -1.698332 -1.048192 0
M  V30 56 H 1.291824 -3.324811 -1.391166 0
M  V30 57 H 0.108288 -4.108686 0.611432 0
M  V30 58 H -0.941216 -2.651149 0.590230 0
M  V30 59 H -0.999177 -0.341598 0.118678 0
M  V30 END ATOM
M  V30 BEGIN BOND
M  V30 1 1 1 2
M  V30 2 2 2 3
M  V30 3 1 2 4
M  V30 4 1 4 5
M  V30 5 1 5 6
M  V30 6 2 6 7
M  V30 7 1 6 8
M  V30 8 1 8 9
M  V30 9 1 9 10
M  V30 10 1 10 11
M  V30 11 1 11 12
M  V30 12 1 12 13
M  V30 13 2 13 14
M  V30 14 1 14 15
M  V30 15 2 15 16
M  V30 16 1 16 17
M  V30 17 1 17 18
M  V30 18 2 18 19
M  V30 19 1 19 20
M  V30 20 2 20 21
M  V30 21 1 21 22
M  V30 22 1 22 23
M  V30 23 1 22 24
M  V30 24 1 22 25
M  V30 25 1 21 26
M  V30 26 1 26 27
M  V30 27 1 27 28
M  V30 28 1 28 29
M  V30 29 1 29 30
M  V30 30 1 30 31
M  V30 31 2 26 32
M  V30 32 1 16 33
M  V30 33 2 33 34
M  V30 34 1 12 8
M  V30 35 1 34 13
M  V30 36 1 34 9
M  V30 37 1 32 18
M  V30 38 1 31 28
M  V30 39 1 1 35
M  V30 40 1 1 36
M  V30 41 1 1 37
M  V30 42 1 4 38
M  V30 43 1 5 39
M  V30 44 1 5 40
M  V30 45 1 9 41 CFG=1
M  V30 46 1 10 42
M  V30 47 1 10 43
M  V30 48 1 11 44
M  V30 49 1 11 45
M  V30 50 1 12 46 CFG=1
M  V30 51 1 14 47
M  V30 52 1 15 48
M  V30 53 1 17 49
M  V30 54 1 20 50
M  V30 55 1 27 51
M  V30 56 1 28 52
M  V30 57 1 29 53
M  V30 58 1 29 54
M  V30 59 1 30 55
M  V30 60 1 30 56
M  V30 61 1 31 57
M  V30 62 1 31 58
M  V30 63 1 33 59
M  V30 END BOND
M  V30 END CTAB
M  END
>  <Dataset>  (202) 
ChEMBL_Kinases

>  <Ligand_Instance>  (202) 
nan

>  <PDB_ID>  (202) 
nan

>  <Standardized_SMILES>  (202) 
CC(=O)NCC(=O)N1[C@@H]2CC[C@H]1c1ccc(Nc3ncc(C(F)(F)F)c(NC4CCC4)n3)cc12

>  <Name>  (202) 
PF-03814735

>  <Pocket>  (202) 
nan

>  <ATP_Site>  (202) 
nan

>  <Peripheral>  (202) 
nan

>  <Num_H_Atoms_ProtBoundConf>  (202) 
nan

>  <Num_Resolved_Atoms>  (202) 
nan

>  <Num_Not_Resolved_Atoms>  (202) 
nan

$$$$
CHEMBL3685238
     RDKit          3D

  0  0  0  0  0  0  0  0  0  0999 V3000
M  V30 BEGIN CTAB
M  V30 COUNTS 54 57 0 0 0
M  V30 BEGIN ATOM
M  V30 1 C 3.888641 -3.467621 3.465135 0
M  V30 2 N 4.692935 -2.437303 4.047976 0
M  V30 3 C 4.755614 -1.039633 3.804037 0
M  V30 4 C 5.637149 -0.265559 4.521995 0
M  V30 5 C 5.679245 1.084280 4.267957 0
M  V30 6 C 4.846537 1.662442 3.302229 0
M  V30 7 C 3.965130 0.879619 2.586327 0
M  V30 8 C 3.126258 1.543499 1.595383 0
M  V30 9 O 3.261780 2.786645 1.466881 0
M  V30 10 N 2.211861 0.765841 0.836076 0
M  V30 11 C 1.284828 1.126508 -0.179481 0
M  V30 12 C 1.766359 1.098964 -1.472212 0
M  V30 13 C 0.973515 1.425791 -2.578350 0
M  V30 14 C -0.316251 1.774007 -2.270275 0
M  V30 15 C -0.833261 1.813185 -0.993238 0
M  V30 16 C -2.275344 2.205015 -0.712920 0
M  V30 17 N -3.144407 1.119671 -0.718132 0
M  V30 18 C -4.063651 0.014229 -0.717707 0
M  V30 19 N -5.384668 0.031710 -0.492848 0
M  V30 20 C -6.216170 -1.000006 -0.496907 0
M  V30 21 N -5.642611 -2.170155 -0.756809 0
M  V30 22 C -4.344699 -2.342235 -0.999376 0
M  V30 23 C -3.951592 -3.640994 -1.247036 0
M  V30 24 C -4.881312 -4.759327 -1.246386 0
M  V30 25 N -6.266056 -4.553602 -0.983321 0
M  V30 26 O -4.484716 -5.931927 -1.477695 0
M  V30 27 C -2.615237 -3.865531 -1.503696 0
M  V30 28 C -1.751850 -2.817660 -1.502877 0
M  V30 29 C -2.237682 -1.557853 -1.244972 0
M  V30 30 C -3.534846 -1.229865 -0.980476 0
M  V30 31 C -0.021286 1.484588 0.070604 0
M  V30 32 C 3.944203 -0.470631 2.861799 0
M  V30 33 H 3.250731 -3.110229 2.632049 0
M  V30 34 H 4.445096 -4.368661 3.149070 0
M  V30 35 H 3.169460 -3.819298 4.252366 0
M  V30 36 H 5.303186 -2.887786 4.760381 0
M  V30 37 H 6.303881 -0.654167 5.279015 0
M  V30 38 H 6.373561 1.704859 4.831040 0
M  V30 39 H 4.948284 2.740843 3.167906 0
M  V30 40 H 2.073982 -0.256599 0.915015 0
M  V30 41 H 2.796807 0.817654 -1.683374 0
M  V30 42 H 1.342556 1.406894 -3.594071 0
M  V30 43 H -1.002623 2.042454 -3.061123 0
M  V30 44 H -2.270871 2.875859 0.184904 0
M  V30 45 H -2.485949 2.905972 -1.585088 0
M  V30 46 H -3.891324 1.835567 -0.487678 0
M  V30 47 H -7.268481 -0.830054 -0.295978 0
M  V30 48 H -6.774595 -4.645541 -1.890971 0
M  V30 49 H -6.872276 -4.345041 -0.157458 0
M  V30 50 H -2.286199 -4.874703 -1.700317 0
M  V30 51 H -0.701391 -2.973743 -1.701739 0
M  V30 52 H -1.520502 -0.763599 -1.255151 0
M  V30 53 H -0.383926 1.502869 1.075742 0
M  V30 54 H 3.273135 -1.093091 2.322473 0
M  V30 END ATOM
M  V30 BEGIN BOND
M  V30 1 1 1 2
M  V30 2 1 2 3
M  V30 3 2 3 4
M  V30 4 1 4 5
M  V30 5 2 5 6
M  V30 6 1 6 7
M  V30 7 1 7 8
M  V30 8 2 8 9
M  V30 9 1 8 10
M  V30 10 1 10 11
M  V30 11 2 11 12
M  V30 12 1 12 13
M  V30 13 2 13 14
M  V30 14 1 14 15
M  V30 15 1 15 16
M  V30 16 1 16 17
M  V30 17 1 17 18
M  V30 18 2 18 19
M  V30 19 1 19 20
M  V30 20 2 20 21
M  V30 21 1 21 22
M  V30 22 2 22 23
M  V30 23 1 23 24
M  V30 24 1 24 25
M  V30 25 2 24 26
M  V30 26 1 23 27
M  V30 27 2 27 28
M  V30 28 1 28 29
M  V30 29 2 29 30
M  V30 30 2 15 31
M  V30 31 2 7 32
M  V30 32 1 32 3
M  V30 33 1 31 11
M  V30 34 1 30 18
M  V30 35 1 30 22
M  V30 36 1 1 33
M  V30 37 1 1 34
M  V30 38 1 1 35
M  V30 39 1 2 36
M  V30 40 1 4 37
M  V30 41 1 5 38
M  V30 42 1 6 39
M  V30 43 1 10 40
M  V30 44 1 12 41
M  V30 45 1 13 42
M  V30 46 1 14 43
M  V30 47 1 16 44
M  V30 48 1 16 45
M  V30 49 1 17 46
M  V30 50 1 20 47
M  V30 51 1 25 48
M  V30 52 1 25 49
M  V30 53 1 27 50
M  V30 54 1 28 51
M  V30 55 1 29 52
M  V30 56 1 31 53
M  V30 57 1 32 54
M  V30 END BOND
M  V30 END CTAB
M  END
>  <Dataset>  (203) 
ChEMBL_Kinases

>  <Ligand_Instance>  (203) 
nan

>  <PDB_ID>  (203) 
nan

>  <Standardized_SMILES>  (203) 
CNc1cccc(C(=O)Nc2cccc(CNc3ncnc4c(C(N)=O)cccc34)c2)c1

>  <Name>  (203) 
nan

>  <Pocket>  (203) 
nan

>  <ATP_Site>  (203) 
nan

>  <Peripheral>  (203) 
nan

>  <Num_H_Atoms_ProtBoundConf>  (203) 
nan

>  <Num_Resolved_Atoms>  (203) 
nan

>  <Num_Not_Resolved_Atoms>  (203) 
nan

$$$$
CHEMBL4580637
     RDKit          3D

  0  0  0  0  0  0  0  0  0  0999 V3000
M  V30 BEGIN CTAB
M  V30 COUNTS 46 49 0 0 0
M  V30 BEGIN ATOM
M  V30 1 C 1.627180 -2.190705 3.459622 0
M  V30 2 C 2.131258 -1.330312 2.357826 0
M  V30 3 C 3.471000 -1.367674 1.989306 0
M  V30 4 C 3.897689 -0.555318 0.964046 0
M  V30 5 C 3.052442 0.297266 0.283417 0
M  V30 6 C 3.452350 1.178418 -0.809578 0
M  V30 7 O 2.673759 1.943645 -1.414168 0
M  V30 8 N 4.792324 1.242929 -1.290778 0
M  V30 9 C 5.217039 2.101513 -2.366520 0
M  V30 10 C 6.640926 2.401307 -2.551172 0
M  V30 11 C 6.049002 1.375028 -3.460210 0
M  V30 12 C 1.707921 0.344458 0.642576 0
M  V30 13 C 1.291783 -0.475397 1.672868 0
M  V30 14 N -0.110270 -0.390417 2.008020 0
M  V30 15 C -0.826625 -1.329534 1.237617 0
M  V30 16 O -0.130826 -2.020801 0.449132 0
M  V30 17 C -2.268034 -1.544453 1.292591 0
M  V30 18 C -2.783564 -2.514159 0.456833 0
M  V30 19 C -4.141923 -2.750018 0.476622 0
M  V30 20 C -4.975901 -2.031829 1.315575 0
M  V30 21 C -4.410280 -1.067437 2.137191 0
M  V30 22 C -3.056716 -0.801929 2.146664 0
M  V30 23 O -5.330390 -0.407642 2.935802 0
M  V30 24 C -6.716620 -0.446566 2.731984 0
M  V30 25 C -7.196357 -1.761013 2.182302 0
M  V30 26 O -6.307133 -2.347820 1.253689 0
M  V30 27 H 2.208225 -3.134366 3.520624 0
M  V30 28 H 1.779883 -1.661095 4.426824 0
M  V30 29 H 0.569936 -2.494689 3.316397 0
M  V30 30 H 4.188295 -2.015633 2.483718 0
M  V30 31 H 4.937098 -0.573062 0.665784 0
M  V30 32 H 5.538435 0.642656 -0.857883 0
M  V30 33 H 4.396695 2.714892 -2.791020 0
M  V30 34 H 6.892176 3.388241 -2.989251 0
M  V30 35 H 7.300414 2.097450 -1.704319 0
M  V30 36 H 5.867320 1.664268 -4.512112 0
M  V30 37 H 6.225274 0.292582 -3.322756 0
M  V30 38 H 1.020731 0.994372 0.136859 0
M  V30 39 H -0.650518 0.206941 2.678341 0
M  V30 40 H -2.167540 -3.106193 -0.221823 0
M  V30 41 H -4.533899 -3.526897 -0.196750 0
M  V30 42 H -2.669994 -0.052670 2.794557 0
M  V30 43 H -7.238015 -0.269706 3.697016 0
M  V30 44 H -7.067112 0.351124 2.026665 0
M  V30 45 H -8.158207 -1.624476 1.615439 0
M  V30 46 H -7.300937 -2.491750 3.020333 0
M  V30 END ATOM
M  V30 BEGIN BOND
M  V30 1 1 1 2
M  V30 2 2 2 3
M  V30 3 1 3 4
M  V30 4 2 4 5
M  V30 5 1 5 6
M  V30 6 2 6 7
M  V30 7 1 6 8
M  V30 8 1 8 9
M  V30 9 1 9 10
M  V30 10 1 10 11
M  V30 11 1 5 12
M  V30 12 2 12 13
M  V30 13 1 13 14
M  V30 14 1 14 15
M  V30 15 2 15 16
M  V30 16 1 15 17
M  V30 17 2 17 18
M  V30 18 1 18 19
M  V30 19 2 19 20
M  V30 20 1 20 21
M  V30 21 2 21 22
M  V30 22 1 21 23
M  V30 23 1 23 24
M  V30 24 1 24 25
M  V30 25 1 25 26
M  V30 26 1 13 2
M  V30 27 1 22 17
M  V30 28 1 11 9
M  V30 29 1 26 20
M  V30 30 1 1 27
M  V30 31 1 1 28
M  V30 32 1 1 29
M  V30 33 1 3 30
M  V30 34 1 4 31
M  V30 35 1 8 32
M  V30 36 1 9 33
M  V30 37 1 10 34
M  V30 38 1 10 35
M  V30 39 1 11 36
M  V30 40 1 11 37
M  V30 41 1 12 38
M  V30 42 1 14 39
M  V30 43 1 18 40
M  V30 44 1 19 41
M  V30 45 1 22 42
M  V30 46 1 24 43
M  V30 47 1 24 44
M  V30 48 1 25 45
M  V30 49 1 25 46
M  V30 END BOND
M  V30 END CTAB
M  END
>  <Dataset>  (204) 
ChEMBL_Kinases

>  <Ligand_Instance>  (204) 
nan

>  <PDB_ID>  (204) 
nan

>  <Standardized_SMILES>  (204) 
Cc1ccc(C(=O)NC2CC2)cc1NC(=O)c1ccc2c(c1)OCCO2

>  <Name>  (204) 
nan

>  <Pocket>  (204) 
nan

>  <ATP_Site>  (204) 
nan

>  <Peripheral>  (204) 
nan

>  <Num_H_Atoms_ProtBoundConf>  (204) 
nan

>  <Num_Resolved_Atoms>  (204) 
nan

>  <Num_Not_Resolved_Atoms>  (204) 
nan

$$$$
CHEMBL3086066
     RDKit          3D

  0  0  0  0  0  0  0  0  0  0999 V3000
M  V30 BEGIN CTAB
M  V30 COUNTS 57 59 0 0 0
M  V30 BEGIN ATOM
M  V30 1 C 1.395995 -2.941573 2.325783 0
M  V30 2 C 0.447801 -2.175235 1.485632 0
M  V30 3 C -0.075016 -1.014775 2.005391 0
M  V30 4 C 0.205179 -0.388546 3.317644 0
M  V30 5 C 1.496414 0.324038 3.308063 0
M  V30 6 C 2.744403 -0.108359 3.680302 0
M  V30 7 C 3.865801 0.689519 3.606677 0
M  V30 8 C 3.733193 1.979322 3.139270 0
M  V30 9 C 2.501498 2.481581 2.746282 0
M  V30 10 N 2.428796 3.817832 2.277361 0
M  V30 11 S 1.558572 4.358165 0.890000 0
M  V30 12 O 1.986817 3.645204 -0.362300 0
M  V30 13 O 1.732206 5.830928 0.754585 0
M  V30 14 N -0.119884 4.028149 1.120662 0
M  V30 15 C -0.799028 5.134987 1.763647 0
M  V30 16 C -0.770475 3.690331 -0.116112 0
M  V30 17 C 1.412440 1.640586 2.840472 0
M  V30 18 C -0.967502 -0.387950 1.128379 0
M  V30 19 O -1.566459 0.696890 1.406084 0
M  V30 20 O -1.323907 -0.788781 -0.071209 0
M  V30 21 C -0.829746 -1.903966 -0.587844 0
M  V30 22 C -1.189152 -2.343029 -1.843726 0
M  V30 23 C -0.659645 -3.507226 -2.356885 0
M  V30 24 O -0.959098 -4.028671 -3.604114 0
M  V30 25 C -2.034039 -4.870105 -3.878844 0
M  V30 26 O -1.181006 -4.126552 -3.354055 0
M  V30 27 N -3.201715 -5.653255 -3.637177 0
M  V30 28 C -4.001444 -5.943347 -2.463660 0
M  V30 29 C -3.547403 -6.219866 -4.942232 0
M  V30 30 C 0.245474 -4.198754 -1.540701 0
M  V30 31 Cl 0.937478 -5.694147 -2.176242 0
M  V30 32 C 0.595034 -3.746225 -0.286496 0
M  V30 33 C 0.057708 -2.571652 0.226605 0
M  V30 34 H 2.446263 -2.820836 2.041467 0
M  V30 35 H 1.178806 -2.726336 3.402916 0
M  V30 36 H 1.091262 -4.027335 2.222841 0
M  V30 37 H 0.165528 -1.137213 4.138837 0
M  V30 38 H -0.641998 0.318079 3.536909 0
M  V30 39 H 2.798260 -1.108884 4.039966 0
M  V30 40 H 4.800566 0.282548 3.914316 0
M  V30 41 H 4.650665 2.575550 3.097787 0
M  V30 42 H 2.979460 4.504204 2.874335 0
M  V30 43 H -0.154994 6.013739 1.850368 0
M  V30 44 H -1.757205 5.336479 1.217829 0
M  V30 45 H -1.098945 4.783562 2.778275 0
M  V30 46 H -1.861282 3.651148 0.110108 0
M  V30 47 H -0.473204 2.700189 -0.482320 0
M  V30 48 H -0.634002 4.497847 -0.874324 0
M  V30 49 H 0.498845 2.113451 2.515148 0
M  V30 50 H -1.879136 -1.802839 -2.449761 0
M  V30 51 H -3.699319 -5.193046 -1.684314 0
M  V30 52 H -3.882261 -6.961921 -2.098888 0
M  V30 53 H -5.073993 -5.675985 -2.687162 0
M  V30 54 H -2.710335 -6.870048 -5.257705 0
M  V30 55 H -3.663280 -5.438236 -5.706363 0
M  V30 56 H -4.439629 -6.870580 -4.857850 0
M  V30 57 H 1.302656 -4.362807 0.247428 0
M  V30 END ATOM
M  V30 BEGIN BOND
M  V30 1 1 1 2
M  V30 2 2 2 3
M  V30 3 1 3 4
M  V30 4 1 4 5
M  V30 5 2 5 6
M  V30 6 1 6 7
M  V30 7 2 7 8
M  V30 8 1 8 9
M  V30 9 1 9 10
M  V30 10 1 10 11
M  V30 11 2 11 12
M  V30 12 2 11 13
M  V30 13 1 11 14
M  V30 14 1 14 15
M  V30 15 1 14 16
M  V30 16 2 9 17
M  V30 17 1 3 18
M  V30 18 2 18 19
M  V30 19 1 18 20
M  V30 20 1 20 21
M  V30 21 2 21 22
M  V30 22 1 22 23
M  V30 23 1 23 24
M  V30 24 1 24 25
M  V30 25 2 25 26
M  V30 26 1 25 27
M  V30 27 1 27 28
M  V30 28 1 27 29
M  V30 29 2 23 30
M  V30 30 1 30 31
M  V30 31 1 30 32
M  V30 32 2 32 33
M  V30 33 1 33 2
M  V30 34 1 17 5
M  V30 35 1 33 21
M  V30 36 1 1 34
M  V30 37 1 1 35
M  V30 38 1 1 36
M  V30 39 1 4 37
M  V30 40 1 4 38
M  V30 41 1 6 39
M  V30 42 1 7 40
M  V30 43 1 8 41
M  V30 44 1 10 42
M  V30 45 1 15 43
M  V30 46 1 15 44
M  V30 47 1 15 45
M  V30 48 1 16 46
M  V30 49 1 16 47
M  V30 50 1 16 48
M  V30 51 1 17 49
M  V30 52 1 22 50
M  V30 53 1 28 51
M  V30 54 1 28 52
M  V30 55 1 28 53
M  V30 56 1 29 54
M  V30 57 1 29 55
M  V30 58 1 29 56
M  V30 59 1 32 57
M  V30 END BOND
M  V30 END CTAB
M  END
>  <Dataset>  (205) 
ChEMBL_Kinases

>  <Ligand_Instance>  (205) 
nan

>  <PDB_ID>  (205) 
nan

>  <Standardized_SMILES>  (205) 
Cc1c(Cc2cccc(NS(=O)(=O)N(C)C)c2)c(=O)oc2cc(OC(=O)N(C)C)c(Cl)cc12

>  <Name>  (205) 
nan

>  <Pocket>  (205) 
nan

>  <ATP_Site>  (205) 
nan

>  <Peripheral>  (205) 
nan

>  <Num_H_Atoms_ProtBoundConf>  (205) 
nan

>  <Num_Resolved_Atoms>  (205) 
nan

>  <Num_Not_Resolved_Atoms>  (205) 
nan

$$$$
CHEMBL3086067
     RDKit          3D

  0  0  0  0  0  0  0  0  0  0999 V3000
M  V30 BEGIN CTAB
M  V30 COUNTS 56 58 0 0 0
M  V30 BEGIN ATOM
M  V30 1 C -0.922146 -0.429035 2.140137 0
M  V30 2 C -0.082039 -1.551865 1.718188 0
M  V30 3 C 1.193129 -1.660822 2.231086 0
M  V30 4 C 1.865532 -0.721681 3.143844 0
M  V30 5 C 2.427693 0.463649 2.506221 0
M  V30 6 C 3.770808 0.392743 2.113248 0
M  V30 7 C 4.511361 1.369852 1.492602 0
M  V30 8 C 3.885529 2.569219 1.211443 0
M  V30 9 C 2.540785 2.712124 1.576094 0
M  V30 10 N 1.887144 3.927209 1.282472 0
M  V30 11 C 1.561432 5.220663 1.724886 0
M  V30 12 O 1.913655 5.682184 2.841542 0
M  V30 13 N 0.795659 6.053382 0.868114 0
M  V30 14 C 0.520853 7.366719 1.412029 0
M  V30 15 C 0.320626 5.633794 -0.443921 0
M  V30 16 C 1.875640 1.682981 2.194509 0
M  V30 17 C 1.844245 -2.799275 1.742495 0
M  V30 18 O 3.028659 -3.064323 2.106655 0
M  V30 19 O 1.385535 -3.707670 0.899580 0
M  V30 20 C 0.162554 -3.571915 0.427076 0
M  V30 21 C -0.382511 -4.472760 -0.453845 0
M  V30 22 C -1.649448 -4.344483 -0.954018 0
M  V30 23 O -2.343204 -5.146354 -1.838289 0
M  V30 24 C -3.016834 -6.293810 -1.564231 0
M  V30 25 O -3.351411 -7.125607 -0.656499 0
M  V30 26 N -3.684661 -6.980873 -2.612807 0
M  V30 27 C -4.401849 -8.238478 -2.342574 0
M  V30 28 C -3.688282 -6.461673 -3.961145 0
M  V30 29 C -2.431583 -3.249577 -0.554423 0
M  V30 30 Cl -4.094489 -2.950449 -1.116865 0
M  V30 31 C -1.863876 -2.337138 0.345605 0
M  V30 32 C -0.583896 -2.485363 0.837136 0
M  V30 33 H -1.911553 -0.876781 2.468892 0
M  V30 34 H -1.187886 0.300730 1.371002 0
M  V30 35 H -0.557629 0.039886 3.104031 0
M  V30 36 H 2.687835 -1.289277 3.638223 0
M  V30 37 H 1.204155 -0.389923 3.996170 0
M  V30 38 H 4.334381 -0.534944 2.305241 0
M  V30 39 H 5.548691 1.219474 1.227526 0
M  V30 40 H 4.467355 3.333339 0.725201 0
M  V30 41 H 1.537134 3.633487 0.321656 0
M  V30 42 H 0.315996 8.081019 0.583832 0
M  V30 43 H -0.386338 7.364787 2.083165 0
M  V30 44 H 1.370264 7.762840 2.010071 0
M  V30 45 H -0.475693 4.860866 -0.378375 0
M  V30 46 H 1.158534 5.151364 -1.010299 0
M  V30 47 H 0.014277 6.514584 -1.010873 0
M  V30 48 H 0.842261 1.821067 2.469859 0
M  V30 49 H 0.141096 -5.321447 -0.800524 0
M  V30 50 H -3.821554 -9.106846 -2.673928 0
M  V30 51 H -4.707206 -8.326286 -1.280374 0
M  V30 52 H -5.354459 -8.121087 -2.935406 0
M  V30 53 H -4.271213 -7.123870 -4.624271 0
M  V30 54 H -2.685245 -6.353200 -4.401033 0
M  V30 55 H -4.140925 -5.436129 -4.022241 0
M  V30 56 H -2.493380 -1.490886 0.638954 0
M  V30 END ATOM
M  V30 BEGIN BOND
M  V30 1 1 1 2
M  V30 2 2 2 3
M  V30 3 1 3 4
M  V30 4 1 4 5
M  V30 5 2 5 6
M  V30 6 1 6 7
M  V30 7 2 7 8
M  V30 8 1 8 9
M  V30 9 1 9 10
M  V30 10 1 10 11
M  V30 11 2 11 12
M  V30 12 1 11 13
M  V30 13 1 13 14
M  V30 14 1 13 15
M  V30 15 2 9 16
M  V30 16 1 3 17
M  V30 17 2 17 18
M  V30 18 1 17 19
M  V30 19 1 19 20
M  V30 20 2 20 21
M  V30 21 1 21 22
M  V30 22 1 22 23
M  V30 23 1 23 24
M  V30 24 2 24 25
M  V30 25 1 24 26
M  V30 26 1 26 27
M  V30 27 1 26 28
M  V30 28 2 22 29
M  V30 29 1 29 30
M  V30 30 1 29 31
M  V30 31 2 31 32
M  V30 32 1 32 2
M  V30 33 1 16 5
M  V30 34 1 32 20
M  V30 35 1 1 33
M  V30 36 1 1 34
M  V30 37 1 1 35
M  V30 38 1 4 36
M  V30 39 1 4 37
M  V30 40 1 6 38
M  V30 41 1 7 39
M  V30 42 1 8 40
M  V30 43 1 10 41
M  V30 44 1 14 42
M  V30 45 1 14 43
M  V30 46 1 14 44
M  V30 47 1 15 45
M  V30 48 1 15 46
M  V30 49 1 15 47
M  V30 50 1 16 48
M  V30 51 1 21 49
M  V30 52 1 27 50
M  V30 53 1 27 51
M  V30 54 1 27 52
M  V30 55 1 28 53
M  V30 56 1 28 54
M  V30 57 1 28 55
M  V30 58 1 31 56
M  V30 END BOND
M  V30 END CTAB
M  END
>  <Dataset>  (206) 
ChEMBL_Kinases

>  <Ligand_Instance>  (206) 
nan

>  <PDB_ID>  (206) 
nan

>  <Standardized_SMILES>  (206) 
Cc1c(Cc2cccc(NC(=O)N(C)C)c2)c(=O)oc2cc(OC(=O)N(C)C)c(Cl)cc12

>  <Name>  (206) 
nan

>  <Pocket>  (206) 
nan

>  <ATP_Site>  (206) 
nan

>  <Peripheral>  (206) 
nan

>  <Num_H_Atoms_ProtBoundConf>  (206) 
nan

>  <Num_Resolved_Atoms>  (206) 
nan

>  <Num_Not_Resolved_Atoms>  (206) 
nan

$$$$
CHEMBL3685248
     RDKit          3D

  0  0  0  0  0  0  0  0  0  0999 V3000
M  V30 BEGIN CTAB
M  V30 COUNTS 55 58 0 0 0
M  V30 BEGIN ATOM
M  V30 1 N 2.891038 -4.496867 6.523741 0
M  V30 2 C 2.340291 -3.971825 5.324497 0
M  V30 3 O 1.152067 -4.362400 5.227778 0
M  V30 4 C 3.149829 -3.119309 4.431594 0
M  V30 5 C 4.450448 -2.821728 4.749269 0
M  V30 6 C 5.137641 -2.017350 3.859341 0
M  V30 7 C 4.515810 -1.557282 2.722917 0
M  V30 8 C 3.228032 -1.838511 2.386453 0
M  V30 9 C 2.637988 -1.360238 1.240322 0
M  V30 10 N 3.344197 -0.538080 0.326101 0
M  V30 11 C 2.835798 0.026868 -0.907482 0
M  V30 12 C 1.706583 0.945358 -0.654310 0
M  V30 13 C 2.091107 2.249289 -0.341259 0
M  V30 14 C 1.122532 3.190867 -0.098055 0
M  V30 15 C -0.190895 2.840434 -0.165551 0
M  V30 16 C -0.627751 1.566463 -0.470791 0
M  V30 17 N -1.996115 1.313426 -0.513641 0
M  V30 18 C -2.743289 0.136224 -0.789854 0
M  V30 19 O -2.057899 -0.887068 -1.048146 0
M  V30 20 C -4.207259 0.061506 -0.788045 0
M  V30 21 C -4.853802 0.988157 -1.786888 0
M  V30 22 C -4.180416 0.782757 -3.112151 0
M  V30 23 C -4.146823 -0.623039 -3.588938 0
M  V30 24 C -4.214126 -1.694031 -2.586723 0
M  V30 25 C -4.627981 -1.328840 -1.210429 0
M  V30 26 C 0.358027 0.673161 -0.702667 0
M  V30 27 N 1.366007 -1.729853 1.058487 0
M  V30 28 C 0.687059 -2.504155 1.904350 0
M  V30 29 N 1.268594 -2.973291 3.030288 0
M  V30 30 C 2.566067 -2.637899 3.283834 0
M  V30 31 H 2.509106 -4.055299 7.406002 0
M  V30 32 H 2.572848 -4.121000 7.436006 0
M  V30 33 H 4.821562 -3.245052 5.670708 0
M  V30 34 H 6.167031 -1.794489 4.131530 0
M  V30 35 H 5.149877 -0.947470 2.118279 0
M  V30 36 H 4.318948 -0.280189 0.499393 0
M  V30 37 H 2.515284 -0.807579 -1.607213 0
M  V30 38 H 3.607467 0.562997 -1.462166 0
M  V30 39 H 3.130397 2.570440 -0.277154 0
M  V30 40 H 1.407321 4.195277 0.143202 0
M  V30 41 H -0.916053 3.634560 0.038449 0
M  V30 42 H -2.664617 2.119978 -0.308326 0
M  V30 43 H -4.650867 0.271959 0.202400 0
M  V30 44 H -5.914197 0.698401 -1.880768 0
M  V30 45 H -4.744936 2.048417 -1.525021 0
M  V30 46 H -3.146652 1.197880 -3.019756 0
M  V30 47 H -4.693549 1.449517 -3.839044 0
M  V30 48 H -3.223263 -0.753749 -4.198088 0
M  V30 49 H -4.977916 -0.731073 -4.340390 0
M  V30 50 H -4.929175 -2.496904 -2.938885 0
M  V30 51 H -3.248950 -2.277540 -2.501890 0
M  V30 52 H -5.727914 -1.371743 -1.154953 0
M  V30 53 H -4.220893 -2.061956 -0.476568 0
M  V30 54 H 0.139160 -0.327783 -0.954870 0
M  V30 55 H -0.337693 -2.731278 1.642327 0
M  V30 END ATOM
M  V30 BEGIN BOND
M  V30 1 1 1 2
M  V30 2 2 2 3
M  V30 3 1 2 4
M  V30 4 2 4 5
M  V30 5 1 5 6
M  V30 6 2 6 7
M  V30 7 1 7 8
M  V30 8 2 8 9
M  V30 9 1 9 10
M  V30 10 1 10 11
M  V30 11 1 11 12
M  V30 12 2 12 13
M  V30 13 1 13 14
M  V30 14 2 14 15
M  V30 15 1 15 16
M  V30 16 1 16 17
M  V30 17 1 17 18
M  V30 18 2 18 19
M  V30 19 1 18 20
M  V30 20 1 20 21
M  V30 21 1 21 22
M  V30 22 1 22 23
M  V30 23 1 23 24
M  V30 24 1 24 25
M  V30 25 2 16 26
M  V30 26 1 9 27
M  V30 27 2 27 28
M  V30 28 1 28 29
M  V30 29 2 29 30
M  V30 30 1 30 4
M  V30 31 1 30 8
M  V30 32 1 26 12
M  V30 33 1 25 20
M  V30 34 1 1 31
M  V30 35 1 1 32
M  V30 36 1 5 33
M  V30 37 1 6 34
M  V30 38 1 7 35
M  V30 39 1 10 36
M  V30 40 1 11 37
M  V30 41 1 11 38
M  V30 42 1 13 39
M  V30 43 1 14 40
M  V30 44 1 15 41
M  V30 45 1 17 42
M  V30 46 1 20 43
M  V30 47 1 21 44
M  V30 48 1 21 45
M  V30 49 1 22 46
M  V30 50 1 22 47
M  V30 51 1 23 48
M  V30 52 1 23 49
M  V30 53 1 24 50
M  V30 54 1 24 51
M  V30 55 1 25 52
M  V30 56 1 25 53
M  V30 57 1 26 54
M  V30 58 1 28 55
M  V30 END BOND
M  V30 END CTAB
M  END
>  <Dataset>  (207) 
ChEMBL_Kinases

>  <Ligand_Instance>  (207) 
nan

>  <PDB_ID>  (207) 
nan

>  <Standardized_SMILES>  (207) 
NC(=O)c1cccc2c(NCc3cccc(NC(=O)C4CCCCC4)c3)ncnc12

>  <Name>  (207) 
nan

>  <Pocket>  (207) 
nan

>  <ATP_Site>  (207) 
nan

>  <Peripheral>  (207) 
nan

>  <Num_H_Atoms_ProtBoundConf>  (207) 
nan

>  <Num_Resolved_Atoms>  (207) 
nan

>  <Num_Not_Resolved_Atoms>  (207) 
nan

$$$$
CHEMBL3086068
     RDKit          3D

  0  0  0  0  0  0  0  0  0  0999 V3000
M  V30 BEGIN CTAB
M  V30 COUNTS 52 54 0 0 0
M  V30 BEGIN ATOM
M  V30 1 C -1.083017 1.286181 -0.691972 0
M  V30 2 C -0.639266 -0.091491 -0.950529 0
M  V30 3 C 0.609974 -0.250743 -1.512564 0
M  V30 4 C 1.581448 0.790229 -1.873687 0
M  V30 5 C 2.336550 1.369679 -0.764310 0
M  V30 6 C 3.503040 0.696393 -0.377429 0
M  V30 7 C 4.320701 1.123333 0.648562 0
M  V30 8 C 3.953086 2.273247 1.313974 0
M  V30 9 C 2.824194 3.007217 1.008623 0
M  V30 10 N 2.419978 4.195506 1.677294 0
M  V30 11 S 3.375510 5.547522 2.122271 0
M  V30 12 C 4.620033 4.988370 3.256445 0
M  V30 13 O 3.983829 6.213409 0.921574 0
M  V30 14 O 2.490798 6.519619 2.847872 0
M  V30 15 C 2.068618 2.504715 -0.030154 0
M  V30 16 C 0.933962 -1.598074 -1.729243 0
M  V30 17 O 2.069199 -1.855278 -2.246668 0
M  V30 18 O 0.243038 -2.687337 -1.481847 0
M  V30 19 C -0.959369 -2.512743 -0.939003 0
M  V30 20 C -1.739994 -3.621139 -0.652043 0
M  V30 21 C -2.993130 -3.432773 -0.085081 0
M  V30 22 O -3.654326 -4.640521 0.143423 0
M  V30 23 C -3.466032 -5.289561 1.356132 0
M  V30 24 O -2.659956 -4.506691 1.964026 0
M  V30 25 N -4.031367 -6.506496 1.789414 0
M  V30 26 C -4.947339 -7.418816 1.131573 0
M  V30 27 C -3.574191 -6.852386 3.142771 0
M  V30 28 C -3.436827 -2.154730 0.181089 0
M  V30 29 Cl -5.026225 -2.050353 0.893168 0
M  V30 30 C -2.632949 -1.073760 -0.117823 0
M  V30 31 C -1.380723 -1.222886 -0.682478 0
M  V30 32 H -0.628840 2.000232 -1.445625 0
M  V30 33 H -2.186333 1.390506 -0.918543 0
M  V30 34 H -0.963914 1.632108 0.347658 0
M  V30 35 H 2.311291 0.339488 -2.594048 0
M  V30 36 H 1.101764 1.612957 -2.444872 0
M  V30 37 H 3.821263 -0.223140 -0.889956 0
M  V30 38 H 5.215237 0.571572 0.915777 0
M  V30 39 H 4.584523 2.616834 2.118352 0
M  V30 40 H 1.378281 4.159151 1.893878 0
M  V30 41 H 5.547140 4.727251 2.710979 0
M  V30 42 H 4.216743 4.179587 3.893494 0
M  V30 43 H 4.812452 5.837431 3.977522 0
M  V30 44 H 1.179348 3.043311 -0.308834 0
M  V30 45 H -1.307395 -4.590660 -0.896606 0
M  V30 46 H -5.942556 -7.431553 1.648847 0
M  V30 47 H -4.593967 -8.462025 1.151968 0
M  V30 48 H -5.087864 -7.075416 0.095506 0
M  V30 49 H -3.899948 -7.878217 3.422210 0
M  V30 50 H -2.450464 -6.910834 3.044533 0
M  V30 51 H -3.813818 -6.081036 3.881134 0
M  V30 52 H -3.037850 -0.103729 0.116934 0
M  V30 END ATOM
M  V30 BEGIN BOND
M  V30 1 1 1 2
M  V30 2 2 2 3
M  V30 3 1 3 4
M  V30 4 1 4 5
M  V30 5 2 5 6
M  V30 6 1 6 7
M  V30 7 2 7 8
M  V30 8 1 8 9
M  V30 9 1 9 10
M  V30 10 1 10 11
M  V30 11 1 11 12
M  V30 12 2 11 13
M  V30 13 2 11 14
M  V30 14 2 9 15
M  V30 15 1 3 16
M  V30 16 2 16 17
M  V30 17 1 16 18
M  V30 18 1 18 19
M  V30 19 2 19 20
M  V30 20 1 20 21
M  V30 21 1 21 22
M  V30 22 1 22 23
M  V30 23 2 23 24
M  V30 24 1 23 25
M  V30 25 1 25 26
M  V30 26 1 25 27
M  V30 27 2 21 28
M  V30 28 1 28 29
M  V30 29 1 28 30
M  V30 30 2 30 31
M  V30 31 1 31 2
M  V30 32 1 15 5
M  V30 33 1 31 19
M  V30 34 1 1 32
M  V30 35 1 1 33
M  V30 36 1 1 34
M  V30 37 1 4 35
M  V30 38 1 4 36
M  V30 39 1 6 37
M  V30 40 1 7 38
M  V30 41 1 8 39
M  V30 42 1 10 40
M  V30 43 1 12 41
M  V30 44 1 12 42
M  V30 45 1 12 43
M  V30 46 1 15 44
M  V30 47 1 20 45
M  V30 48 1 26 46
M  V30 49 1 26 47
M  V30 50 1 26 48
M  V30 51 1 27 49
M  V30 52 1 27 50
M  V30 53 1 27 51
M  V30 54 1 30 52
M  V30 END BOND
M  V30 END CTAB
M  END
>  <Dataset>  (208) 
ChEMBL_Kinases

>  <Ligand_Instance>  (208) 
nan

>  <PDB_ID>  (208) 
nan

>  <Standardized_SMILES>  (208) 
Cc1c(Cc2cccc(NS(C)(=O)=O)c2)c(=O)oc2cc(OC(=O)N(C)C)c(Cl)cc12

>  <Name>  (208) 
nan

>  <Pocket>  (208) 
nan

>  <ATP_Site>  (208) 
nan

>  <Peripheral>  (208) 
nan

>  <Num_H_Atoms_ProtBoundConf>  (208) 
nan

>  <Num_Resolved_Atoms>  (208) 
nan

>  <Num_Not_Resolved_Atoms>  (208) 
nan

$$$$
CHEMBL3086069
     RDKit          3D

  0  0  0  0  0  0  0  0  0  0999 V3000
M  V30 BEGIN CTAB
M  V30 COUNTS 55 57 0 0 0
M  V30 BEGIN ATOM
M  V30 1 C 2.430707 -1.157358 4.623276 0
M  V30 2 C 3.827228 -1.011501 4.106416 0
M  V30 3 S 4.582090 0.541615 4.551420 0
M  V30 4 O 6.008515 0.516894 4.105691 0
M  V30 5 O 4.578736 0.578428 6.071768 0
M  V30 6 N 3.709802 1.872589 3.942969 0
M  V30 7 C 3.556712 2.018433 2.538827 0
M  V30 8 C 4.613553 1.828153 1.686587 0
M  V30 9 C 4.410771 1.979287 0.332157 0
M  V30 10 C 3.141627 2.317861 -0.104997 0
M  V30 11 C 2.040559 2.519454 0.736889 0
M  V30 12 C 0.780798 2.882574 0.041974 0
M  V30 13 C 0.050558 1.666187 -0.387113 0
M  V30 14 C -0.720794 0.810600 0.368172 0
M  V30 15 C -0.881533 1.133168 1.790385 0
M  V30 16 C -1.313202 -0.287309 -0.220373 0
M  V30 17 C -2.074991 -1.134607 0.525005 0
M  V30 18 C -2.707084 -2.255903 0.031627 0
M  V30 19 Cl -3.679768 -3.318227 1.031255 0
M  V30 20 C -2.573011 -2.568469 -1.326039 0
M  V30 21 O -3.208812 -3.696832 -1.824545 0
M  V30 22 C -4.481594 -3.635437 -2.360131 0
M  V30 23 O -5.095670 -2.542732 -2.407439 0
M  V30 24 N -5.024623 -4.849926 -2.835136 0
M  V30 25 C -4.328363 -6.131437 -2.785938 0
M  V30 26 C -6.372818 -4.831732 -3.417938 0
M  V30 27 C -1.800532 -1.709196 -2.079734 0
M  V30 28 C -1.189313 -0.609029 -1.560847 0
M  V30 29 O -0.447135 0.213170 -2.293119 0
M  V30 30 C 0.121911 1.266297 -1.730945 0
M  V30 31 O 0.778824 1.907746 -2.610496 0
M  V30 32 C 2.305954 2.354759 2.076613 0
M  V30 33 H 2.229790 -2.222665 4.897112 0
M  V30 34 H 2.293541 -0.492707 5.508019 0
M  V30 35 H 1.709744 -0.934274 3.796007 0
M  V30 36 H 3.884556 -1.123718 2.987733 0
M  V30 37 H 4.428037 -1.857771 4.495187 0
M  V30 38 H 3.287584 2.582071 4.611751 0
M  V30 39 H 5.599134 1.563293 2.049901 0
M  V30 40 H 5.231918 1.833633 -0.355513 0
M  V30 41 H 3.063921 2.418958 -1.182980 0
M  V30 42 H 1.014721 3.475842 -0.881432 0
M  V30 43 H 0.144375 3.511495 0.698870 0
M  V30 44 H -0.789018 2.245602 1.978670 0
M  V30 45 H -0.246087 0.539753 2.471161 0
M  V30 46 H -1.960577 0.943032 2.072824 0
M  V30 47 H -2.238998 -0.986603 1.574218 0
M  V30 48 H -3.784038 -6.109366 -1.795871 0
M  V30 49 H -5.047097 -6.966105 -2.801505 0
M  V30 50 H -3.585324 -6.183914 -3.592493 0
M  V30 51 H -7.074326 -4.814782 -2.560503 0
M  V30 52 H -6.498220 -5.716546 -4.074061 0
M  V30 53 H -6.527934 -3.891081 -3.996978 0
M  V30 54 H -1.689506 -1.938288 -3.126846 0
M  V30 55 H 1.459782 2.515685 2.717737 0
M  V30 END ATOM
M  V30 BEGIN BOND
M  V30 1 1 1 2
M  V30 2 1 2 3
M  V30 3 2 3 4
M  V30 4 2 3 5
M  V30 5 1 3 6
M  V30 6 1 6 7
M  V30 7 2 7 8
M  V30 8 1 8 9
M  V30 9 2 9 10
M  V30 10 1 10 11
M  V30 11 1 11 12
M  V30 12 1 12 13
M  V30 13 2 13 14
M  V30 14 1 14 15
M  V30 15 1 14 16
M  V30 16 2 16 17
M  V30 17 1 17 18
M  V30 18 1 18 19
M  V30 19 2 18 20
M  V30 20 1 20 21
M  V30 21 1 21 22
M  V30 22 2 22 23
M  V30 23 1 22 24
M  V30 24 1 24 25
M  V30 25 1 24 26
M  V30 26 1 20 27
M  V30 27 2 27 28
M  V30 28 1 28 29
M  V30 29 1 29 30
M  V30 30 2 30 31
M  V30 31 2 11 32
M  V30 32 1 32 7
M  V30 33 1 30 13
M  V30 34 1 28 16
M  V30 35 1 1 33
M  V30 36 1 1 34
M  V30 37 1 1 35
M  V30 38 1 2 36
M  V30 39 1 2 37
M  V30 40 1 6 38
M  V30 41 1 8 39
M  V30 42 1 9 40
M  V30 43 1 10 41
M  V30 44 1 12 42
M  V30 45 1 12 43
M  V30 46 1 15 44
M  V30 47 1 15 45
M  V30 48 1 15 46
M  V30 49 1 17 47
M  V30 50 1 25 48
M  V30 51 1 25 49
M  V30 52 1 25 50
M  V30 53 1 26 51
M  V30 54 1 26 52
M  V30 55 1 26 53
M  V30 56 1 27 54
M  V30 57 1 32 55
M  V30 END BOND
M  V30 END CTAB
M  END
>  <Dataset>  (209) 
ChEMBL_Kinases

>  <Ligand_Instance>  (209) 
nan

>  <PDB_ID>  (209) 
nan

>  <Standardized_SMILES>  (209) 
CCS(=O)(=O)Nc1cccc(Cc2c(C)c3cc(Cl)c(OC(=O)N(C)C)cc3oc2=O)c1

>  <Name>  (209) 
nan

>  <Pocket>  (209) 
nan

>  <ATP_Site>  (209) 
nan

>  <Peripheral>  (209) 
nan

>  <Num_H_Atoms_ProtBoundConf>  (209) 
nan

>  <Num_Resolved_Atoms>  (209) 
nan

>  <Num_Not_Resolved_Atoms>  (209) 
nan

$$$$
CHEMBL3086070
     RDKit          3D

  0  0  0  0  0  0  0  0  0  0999 V3000
M  V30 BEGIN CTAB
M  V30 COUNTS 55 57 0 0 0
M  V30 BEGIN ATOM
M  V30 1 C 3.660776 -1.605731 0.349474 0
M  V30 2 O 4.861233 -0.900446 0.587367 0
M  V30 3 N 5.142653 -0.074426 -0.450237 0
M  V30 4 S 5.670128 1.447189 0.172274 0
M  V30 5 O 6.838582 1.126628 1.096715 0
M  V30 6 O 6.267353 2.303081 -0.911037 0
M  V30 7 N 4.500608 2.245090 1.115274 0
M  V30 8 C 3.209684 2.718500 0.764180 0
M  V30 9 C 3.024493 3.441562 -0.420378 0
M  V30 10 C 1.756451 3.892375 -0.730663 0
M  V30 11 C 0.651080 3.665576 0.072936 0
M  V30 12 C 0.804606 2.956486 1.244633 0
M  V30 13 C -0.219137 2.588776 2.257508 0
M  V30 14 C -0.873493 1.313929 2.069714 0
M  V30 15 C -1.879808 0.991801 1.183605 0
M  V30 16 C -2.404891 2.035196 0.316719 0
M  V30 17 C -2.340426 -0.331813 1.180871 0
M  V30 18 C -3.346675 -0.645583 0.291174 0
M  V30 19 C -3.913019 -1.918137 0.165965 0
M  V30 20 Cl -5.179597 -2.307209 -0.955953 0
M  V30 21 C -3.413640 -2.924075 1.005284 0
M  V30 22 O -3.895718 -4.228648 0.974377 0
M  V30 23 C -3.423476 -5.207969 0.120591 0
M  V30 24 O -2.761335 -4.184033 -0.138967 0
M  V30 25 N -2.996385 -6.253358 -0.714079 0
M  V30 26 C -1.935305 -5.998712 -1.680745 0
M  V30 27 C -3.762745 -7.443681 -0.405598 0
M  V30 28 C -2.407168 -2.611394 1.895523 0
M  V30 29 C -1.867130 -1.345237 1.996986 0
M  V30 30 O -0.908390 -1.005410 2.830829 0
M  V30 31 C -0.444660 0.242277 2.862533 0
M  V30 32 O 0.455006 0.365174 3.712628 0
M  V30 33 C 2.082302 2.510806 1.542505 0
M  V30 34 H 2.777810 -1.072006 0.769255 0
M  V30 35 H 3.552894 -1.673312 -0.750842 0
M  V30 36 H 3.785161 -2.597836 0.841861 0
M  V30 37 H 4.327981 0.047649 -1.097380 0
M  V30 38 H 4.646670 2.482592 2.142244 0
M  V30 39 H 3.848126 3.654420 -1.094547 0
M  V30 40 H 1.532146 4.466696 -1.642604 0
M  V30 41 H -0.336396 3.997129 -0.130474 0
M  V30 42 H -0.941988 3.427340 2.247064 0
M  V30 43 H 0.235354 2.643147 3.290042 0
M  V30 44 H -2.305631 3.042011 0.816628 0
M  V30 45 H -3.531094 1.921364 0.281543 0
M  V30 46 H -2.059865 2.049804 -0.716269 0
M  V30 47 H -3.791371 0.046795 -0.390346 0
M  V30 48 H -0.921806 -6.166232 -1.268315 0
M  V30 49 H -2.128879 -6.547228 -2.624954 0
M  V30 50 H -2.021690 -4.910324 -1.963950 0
M  V30 51 H -3.663745 -7.742034 0.655951 0
M  V30 52 H -3.502345 -8.247306 -1.109493 0
M  V30 53 H -4.832248 -7.198148 -0.566063 0
M  V30 54 H -1.988666 -3.364519 2.569305 0
M  V30 55 H 2.312709 1.940478 2.446584 0
M  V30 END ATOM
M  V30 BEGIN BOND
M  V30 1 1 1 2
M  V30 2 1 2 3
M  V30 3 1 3 4
M  V30 4 2 4 5
M  V30 5 2 4 6
M  V30 6 1 4 7
M  V30 7 1 7 8
M  V30 8 2 8 9
M  V30 9 1 9 10
M  V30 10 2 10 11
M  V30 11 1 11 12
M  V30 12 1 12 13
M  V30 13 1 13 14
M  V30 14 2 14 15
M  V30 15 1 15 16
M  V30 16 1 15 17
M  V30 17 2 17 18
M  V30 18 1 18 19
M  V30 19 1 19 20
M  V30 20 2 19 21
M  V30 21 1 21 22
M  V30 22 1 22 23
M  V30 23 2 23 24
M  V30 24 1 23 25
M  V30 25 1 25 26
M  V30 26 1 25 27
M  V30 27 1 21 28
M  V30 28 2 28 29
M  V30 29 1 29 30
M  V30 30 1 30 31
M  V30 31 2 31 32
M  V30 32 2 12 33
M  V30 33 1 33 8
M  V30 34 1 31 14
M  V30 35 1 29 17
M  V30 36 1 1 34
M  V30 37 1 1 35
M  V30 38 1 1 36
M  V30 39 1 3 37
M  V30 40 1 7 38
M  V30 41 1 9 39
M  V30 42 1 10 40
M  V30 43 1 11 41
M  V30 44 1 13 42
M  V30 45 1 13 43
M  V30 46 1 16 44
M  V30 47 1 16 45
M  V30 48 1 16 46
M  V30 49 1 18 47
M  V30 50 1 26 48
M  V30 51 1 26 49
M  V30 52 1 26 50
M  V30 53 1 27 51
M  V30 54 1 27 52
M  V30 55 1 27 53
M  V30 56 1 28 54
M  V30 57 1 33 55
M  V30 END BOND
M  V30 END CTAB
M  END
>  <Dataset>  (210) 
ChEMBL_Kinases

>  <Ligand_Instance>  (210) 
nan

>  <PDB_ID>  (210) 
nan

>  <Standardized_SMILES>  (210) 
CONS(=O)(=O)Nc1cccc(Cc2c(C)c3cc(Cl)c(OC(=O)N(C)C)cc3oc2=O)c1

>  <Name>  (210) 
nan

>  <Pocket>  (210) 
nan

>  <ATP_Site>  (210) 
nan

>  <Peripheral>  (210) 
nan

>  <Num_H_Atoms_ProtBoundConf>  (210) 
nan

>  <Num_Resolved_Atoms>  (210) 
nan

>  <Num_Not_Resolved_Atoms>  (210) 
nan

$$$$
CHEMBL3685247
     RDKit          3D

  0  0  0  0  0  0  0  0  0  0999 V3000
M  V30 BEGIN CTAB
M  V30 COUNTS 56 59 0 0 0
M  V30 BEGIN ATOM
M  V30 1 C -5.059114 -6.754269 -1.528202 0
M  V30 2 C -4.238907 -7.474994 -0.498698 0
M  V30 3 O -3.652459 -6.622797 0.462323 0
M  V30 4 C -2.759398 -5.633673 0.093828 0
M  V30 5 C -2.283260 -5.290301 -1.152424 0
M  V30 6 C -1.385526 -4.257554 -1.312618 0
M  V30 7 C -0.907027 -3.507241 -0.261626 0
M  V30 8 C 0.041992 -2.408620 -0.375368 0
M  V30 9 O 0.384683 -1.794640 0.664443 0
M  V30 10 N 0.617584 -1.969430 -1.571043 0
M  V30 11 C 1.540171 -0.936776 -1.856690 0
M  V30 12 C 1.946555 -0.722274 -3.156003 0
M  V30 13 C 2.839975 0.260192 -3.505166 0
M  V30 14 C 3.378020 1.090095 -2.547723 0
M  V30 15 C 2.998443 0.915151 -1.212567 0
M  V30 16 C 3.617151 1.823034 -0.217035 0
M  V30 17 N 2.845733 3.051076 -0.194212 0
M  V30 18 C 1.485146 3.238944 0.138238 0
M  V30 19 N 0.666034 2.252320 0.507552 0
M  V30 20 C -0.620944 2.378876 0.832788 0
M  V30 21 N -1.147925 3.608172 0.786848 0
M  V30 22 C -0.404964 4.660275 0.428126 0
M  V30 23 C -1.006668 5.883594 0.402773 0
M  V30 24 C -2.409030 6.031991 0.753713 0
M  V30 25 N -3.313668 5.020466 1.147594 0
M  V30 26 O -3.076378 7.080704 0.772855 0
M  V30 27 C -0.322130 7.013761 0.047696 0
M  V30 28 C 1.011378 6.870921 -0.287317 0
M  V30 29 C 1.584030 5.618432 -0.249964 0
M  V30 30 C 0.915638 4.492326 0.100258 0
M  V30 31 C 2.100298 -0.087467 -0.931857 0
M  V30 32 C -1.393725 -3.864563 0.977542 0
M  V30 33 C -2.293583 -4.892328 1.179600 0
M  V30 34 H -6.120841 -7.070406 -1.357163 0
M  V30 35 H -4.707751 -6.988883 -2.532506 0
M  V30 36 H -4.969372 -5.657176 -1.372934 0
M  V30 37 H -4.827935 -8.265872 0.037299 0
M  V30 38 H -3.408273 -8.004170 -1.028326 0
M  V30 39 H -2.667309 -5.889575 -1.954083 0
M  V30 40 H -1.051685 -4.038984 -2.314550 0
M  V30 41 H 0.279425 -2.535925 -2.398786 0
M  V30 42 H 1.554483 -1.349993 -3.967913 0
M  V30 43 H 3.116325 0.374342 -4.543267 0
M  V30 44 H 4.079240 1.854490 -2.853196 0
M  V30 45 H 4.661005 1.974942 -0.553887 0
M  V30 46 H 3.648086 1.353306 0.797751 0
M  V30 47 H 3.438447 3.857468 -0.469417 0
M  V30 48 H -1.117631 1.457222 1.106393 0
M  V30 49 H -3.557374 4.007146 1.066787 0
M  V30 50 H -3.479599 4.002607 1.010062 0
M  V30 51 H -0.830325 7.972465 0.037636 0
M  V30 52 H 1.553047 7.749541 -0.565796 0
M  V30 53 H 2.617542 5.600130 -0.523388 0
M  V30 54 H 1.859455 -0.180036 0.092373 0
M  V30 55 H -1.042650 -3.299258 1.835558 0
M  V30 56 H -2.605754 -5.077511 2.220290 0
M  V30 END ATOM
M  V30 BEGIN BOND
M  V30 1 1 1 2
M  V30 2 1 2 3
M  V30 3 1 3 4
M  V30 4 2 4 5
M  V30 5 1 5 6
M  V30 6 2 6 7
M  V30 7 1 7 8
M  V30 8 2 8 9
M  V30 9 1 8 10
M  V30 10 1 10 11
M  V30 11 2 11 12
M  V30 12 1 12 13
M  V30 13 2 13 14
M  V30 14 1 14 15
M  V30 15 1 15 16
M  V30 16 1 16 17
M  V30 17 1 17 18
M  V30 18 2 18 19
M  V30 19 1 19 20
M  V30 20 2 20 21
M  V30 21 1 21 22
M  V30 22 2 22 23
M  V30 23 1 23 24
M  V30 24 1 24 25
M  V30 25 2 24 26
M  V30 26 1 23 27
M  V30 27 2 27 28
M  V30 28 1 28 29
M  V30 29 2 29 30
M  V30 30 2 15 31
M  V30 31 1 7 32
M  V30 32 2 32 33
M  V30 33 1 33 4
M  V30 34 1 31 11
M  V30 35 1 30 18
M  V30 36 1 30 22
M  V30 37 1 1 34
M  V30 38 1 1 35
M  V30 39 1 1 36
M  V30 40 1 2 37
M  V30 41 1 2 38
M  V30 42 1 5 39
M  V30 43 1 6 40
M  V30 44 1 10 41
M  V30 45 1 12 42
M  V30 46 1 13 43
M  V30 47 1 14 44
M  V30 48 1 16 45
M  V30 49 1 16 46
M  V30 50 1 17 47
M  V30 51 1 20 48
M  V30 52 1 25 49
M  V30 53 1 25 50
M  V30 54 1 27 51
M  V30 55 1 28 52
M  V30 56 1 29 53
M  V30 57 1 31 54
M  V30 58 1 32 55
M  V30 59 1 33 56
M  V30 END BOND
M  V30 END CTAB
M  END
>  <Dataset>  (211) 
ChEMBL_Kinases

>  <Ligand_Instance>  (211) 
nan

>  <PDB_ID>  (211) 
nan

>  <Standardized_SMILES>  (211) 
CCOc1ccc(C(=O)Nc2cccc(CNc3ncnc4c(C(N)=O)cccc34)c2)cc1

>  <Name>  (211) 
nan

>  <Pocket>  (211) 
nan

>  <ATP_Site>  (211) 
nan

>  <Peripheral>  (211) 
nan

>  <Num_H_Atoms_ProtBoundConf>  (211) 
nan

>  <Num_Resolved_Atoms>  (211) 
nan

>  <Num_Not_Resolved_Atoms>  (211) 
nan

$$$$
CHEMBL3086071
     RDKit          3D

  0  0  0  0  0  0  0  0  0  0999 V3000
M  V30 BEGIN CTAB
M  V30 COUNTS 57 59 0 0 0
M  V30 BEGIN ATOM
M  V30 1 C 2.803268 -2.469749 0.533754 0
M  V30 2 C 1.394364 -2.148875 0.752967 0
M  V30 3 C 1.071980 -1.337521 1.818584 0
M  V30 4 C 1.990489 -0.707367 2.800509 0
M  V30 5 C 2.719397 0.467110 2.255083 0
M  V30 6 C 4.009636 0.406900 1.773740 0
M  V30 7 C 4.699057 1.481223 1.255982 0
M  V30 8 C 4.029851 2.685377 1.229488 0
M  V30 9 C 2.716204 2.819011 1.702472 0
M  V30 10 N 2.225102 4.143453 1.578410 0
M  V30 11 S 1.362556 5.060286 2.752779 0
M  V30 12 O 1.153269 6.476835 2.300732 0
M  V30 13 O 2.196417 5.070751 4.021621 0
M  V30 14 N -0.146614 4.335941 3.184505 0
M  V30 15 C -1.029560 4.240332 2.032352 0
M  V30 16 C -2.341034 3.593149 2.493551 0
M  V30 17 F -2.065761 2.355918 2.989170 0
M  V30 18 F -2.849395 4.453851 3.452390 0
M  V30 19 F -3.261456 3.569523 1.464557 0
M  V30 20 C 2.096809 1.694240 2.205509 0
M  V30 21 C -0.303194 -1.099119 1.952122 0
M  V30 22 O -0.764851 -0.388839 2.861342 0
M  V30 23 O -1.280026 -1.567092 1.173678 0
M  V30 24 C -0.980779 -2.349508 0.142749 0
M  V30 25 C -1.926726 -2.873590 -0.713050 0
M  V30 26 C -1.604806 -3.682688 -1.783432 0
M  V30 27 O -2.624730 -4.162104 -2.588024 0
M  V30 28 C -3.177170 -5.412377 -2.542363 0
M  V30 29 O -2.643905 -6.140556 -1.645220 0
M  V30 30 N -4.224384 -5.877158 -3.383365 0
M  V30 31 C -4.674801 -7.251263 -3.176042 0
M  V30 32 C -4.758851 -4.972481 -4.364928 0
M  V30 33 C -0.269308 -3.967735 -1.987848 0
M  V30 34 Cl 0.173316 -4.992554 -3.338138 0
M  V30 35 C 0.661068 -3.433601 -1.119130 0
M  V30 36 C 0.365309 -2.622864 -0.042355 0
M  V30 37 H 3.299074 -2.519456 1.550892 0
M  V30 38 H 2.967741 -3.521328 0.155509 0
M  V30 39 H 3.368607 -1.737857 -0.047226 0
M  V30 40 H 1.388442 -0.324901 3.655986 0
M  V30 41 H 2.754709 -1.425896 3.168378 0
M  V30 42 H 4.550694 -0.523544 1.788017 0
M  V30 43 H 5.728400 1.387489 0.883636 0
M  V30 44 H 4.606869 3.526316 0.810107 0
M  V30 45 H 2.401498 4.640261 0.652079 0
M  V30 46 H -0.632031 4.941716 3.871395 0
M  V30 47 H -1.276312 5.272901 1.718799 0
M  V30 48 H -0.605254 3.696575 1.189070 0
M  V30 49 H 1.091010 1.879251 2.548258 0
M  V30 50 H -2.965134 -2.620217 -0.510463 0
M  V30 51 H -5.417716 -7.535950 -3.959203 0
M  V30 52 H -3.783798 -7.894478 -3.293697 0
M  V30 53 H -5.094289 -7.335990 -2.145927 0
M  V30 54 H -3.958819 -4.413360 -4.906165 0
M  V30 55 H -5.345678 -5.489717 -5.170792 0
M  V30 56 H -5.435714 -4.200289 -3.947570 0
M  V30 57 H 1.678975 -3.712139 -1.364140 0
M  V30 END ATOM
M  V30 BEGIN BOND
M  V30 1 1 1 2
M  V30 2 2 2 3
M  V30 3 1 3 4
M  V30 4 1 4 5
M  V30 5 2 5 6
M  V30 6 1 6 7
M  V30 7 2 7 8
M  V30 8 1 8 9
M  V30 9 1 9 10
M  V30 10 1 10 11
M  V30 11 2 11 12
M  V30 12 2 11 13
M  V30 13 1 11 14
M  V30 14 1 14 15
M  V30 15 1 15 16
M  V30 16 1 16 17
M  V30 17 1 16 18
M  V30 18 1 16 19
M  V30 19 2 9 20
M  V30 20 1 3 21
M  V30 21 2 21 22
M  V30 22 1 21 23
M  V30 23 1 23 24
M  V30 24 2 24 25
M  V30 25 1 25 26
M  V30 26 1 26 27
M  V30 27 1 27 28
M  V30 28 2 28 29
M  V30 29 1 28 30
M  V30 30 1 30 31
M  V30 31 1 30 32
M  V30 32 2 26 33
M  V30 33 1 33 34
M  V30 34 1 33 35
M  V30 35 2 35 36
M  V30 36 1 36 2
M  V30 37 1 20 5
M  V30 38 1 36 24
M  V30 39 1 1 37
M  V30 40 1 1 38
M  V30 41 1 1 39
M  V30 42 1 4 40
M  V30 43 1 4 41
M  V30 44 1 6 42
M  V30 45 1 7 43
M  V30 46 1 8 44
M  V30 47 1 10 45
M  V30 48 1 14 46
M  V30 49 1 15 47
M  V30 50 1 15 48
M  V30 51 1 20 49
M  V30 52 1 25 50
M  V30 53 1 31 51
M  V30 54 1 31 52
M  V30 55 1 31 53
M  V30 56 1 32 54
M  V30 57 1 32 55
M  V30 58 1 32 56
M  V30 59 1 35 57
M  V30 END BOND
M  V30 END CTAB
M  END
>  <Dataset>  (212) 
ChEMBL_Kinases

>  <Ligand_Instance>  (212) 
nan

>  <PDB_ID>  (212) 
nan

>  <Standardized_SMILES>  (212) 
Cc1c(Cc2cccc(NS(=O)(=O)NCC(F)(F)F)c2)c(=O)oc2cc(OC(=O)N(C)C)c(Cl)cc12

>  <Name>  (212) 
nan

>  <Pocket>  (212) 
nan

>  <ATP_Site>  (212) 
nan

>  <Peripheral>  (212) 
nan

>  <Num_H_Atoms_ProtBoundConf>  (212) 
nan

>  <Num_Resolved_Atoms>  (212) 
nan

>  <Num_Not_Resolved_Atoms>  (212) 
nan

$$$$
CHEMBL3086076
     RDKit          3D

  0  0  0  0  0  0  0  0  0  0999 V3000
M  V30 BEGIN CTAB
M  V30 COUNTS 66 69 0 0 0
M  V30 BEGIN ATOM
M  V30 1 C 2.650083 -1.878242 1.519612 0
M  V30 2 C 1.604457 -1.922430 2.531790 0
M  V30 3 C 1.631576 -0.982830 3.540022 0
M  V30 4 C 2.601979 0.118675 3.732336 0
M  V30 5 C 2.375016 1.273584 2.827436 0
M  V30 6 C 1.445037 2.194226 3.325894 0
M  V30 7 C 1.079076 3.349501 2.658324 0
M  V30 8 C 1.693764 3.557943 1.439119 0
M  V30 9 C 2.630485 2.671637 0.892700 0
M  V30 10 N 3.239190 2.939614 -0.356336 0
M  V30 11 S 2.640595 3.437245 -1.895662 0
M  V30 12 O 3.765452 3.688623 -2.857615 0
M  V30 13 O 1.922910 4.774584 -1.771060 0
M  V30 14 N 1.570263 2.249839 -2.489797 0
M  V30 15 C 0.430010 2.050185 -1.657017 0
M  V30 16 C -0.355183 0.854701 -2.137166 0
M  V30 17 N -0.556999 0.799941 -3.546801 0
M  V30 18 C -1.798959 1.387158 -3.943801 0
M  V30 19 C 0.535934 1.216315 -4.362007 0
M  V30 20 C 1.198417 2.482407 -3.874121 0
M  V30 21 C 2.942201 1.546687 1.614650 0
M  V30 22 C 0.588116 -1.118902 4.467549 0
M  V30 23 O 0.434361 -0.353658 5.471433 0
M  V30 24 O -0.359621 -2.027454 4.443204 0
M  V30 25 C -0.409969 -2.948149 3.478554 0
M  V30 26 C -1.411140 -3.898226 3.462368 0
M  V30 27 C -1.422266 -4.844018 2.428480 0
M  V30 28 O -2.456090 -5.772563 2.470201 0
M  V30 29 C -3.651549 -5.545430 1.804296 0
M  V30 30 O -2.744737 -4.674126 1.734920 0
M  V30 31 N -4.871922 -5.300191 1.117167 0
M  V30 32 C -5.943767 -6.289915 1.178489 0
M  V30 33 C -5.076022 -4.083947 0.353535 0
M  V30 34 C -0.438636 -4.801698 1.459330 0
M  V30 35 Cl -0.480869 -5.992336 0.186693 0
M  V30 36 C 0.529983 -3.819994 1.544185 0
M  V30 37 C 0.594091 -2.863001 2.536202 0
M  V30 38 H 2.952526 -2.947610 1.297552 0
M  V30 39 H 3.618891 -1.450732 1.918709 0
M  V30 40 H 2.377036 -1.462910 0.550539 0
M  V30 41 H 3.624258 -0.264290 3.544465 0
M  V30 42 H 2.546617 0.440240 4.802173 0
M  V30 43 H 0.931726 2.071706 4.288869 0
M  V30 44 H 0.366832 4.046287 3.048958 0
M  V30 45 H 1.442979 4.447019 0.874988 0
M  V30 46 H 4.290410 2.788800 -0.278731 0
M  V30 47 H -0.259155 2.918263 -1.616376 0
M  V30 48 H 0.803644 1.788571 -0.641353 0
M  V30 49 H 0.051438 -0.107176 -1.720360 0
M  V30 50 H -1.372548 0.961942 -1.656763 0
M  V30 51 H -2.558909 1.315458 -3.120208 0
M  V30 52 H -2.278253 0.849820 -4.799600 0
M  V30 53 H -1.681154 2.462613 -4.155337 0
M  V30 54 H 0.142453 1.435965 -5.387357 0
M  V30 55 H 1.280621 0.396501 -4.414974 0
M  V30 56 H 2.148340 2.577525 -4.443473 0
M  V30 57 H 0.539279 3.336712 -4.032787 0
M  V30 58 H 3.642836 0.832625 1.266526 0
M  V30 59 H -2.170049 -3.902331 4.241289 0
M  V30 60 H -5.600836 -7.234492 1.613128 0
M  V30 61 H -6.725448 -5.803494 1.831558 0
M  V30 62 H -6.366769 -6.465251 0.186356 0
M  V30 63 H -4.328422 -3.313367 0.626587 0
M  V30 64 H -5.194454 -4.250727 -0.719332 0
M  V30 65 H -6.050307 -3.663041 0.736660 0
M  V30 66 H 1.257930 -3.854681 0.748426 0
M  V30 END ATOM
M  V30 BEGIN BOND
M  V30 1 1 1 2
M  V30 2 2 2 3
M  V30 3 1 3 4
M  V30 4 1 4 5
M  V30 5 2 5 6
M  V30 6 1 6 7
M  V30 7 2 7 8
M  V30 8 1 8 9
M  V30 9 1 9 10
M  V30 10 1 10 11
M  V30 11 2 11 12
M  V30 12 2 11 13
M  V30 13 1 11 14
M  V30 14 1 14 15
M  V30 15 1 15 16
M  V30 16 1 16 17
M  V30 17 1 17 18
M  V30 18 1 17 19
M  V30 19 1 19 20
M  V30 20 2 9 21
M  V30 21 1 3 22
M  V30 22 2 22 23
M  V30 23 1 22 24
M  V30 24 1 24 25
M  V30 25 2 25 26
M  V30 26 1 26 27
M  V30 27 1 27 28
M  V30 28 1 28 29
M  V30 29 2 29 30
M  V30 30 1 29 31
M  V30 31 1 31 32
M  V30 32 1 31 33
M  V30 33 2 27 34
M  V30 34 1 34 35
M  V30 35 1 34 36
M  V30 36 2 36 37
M  V30 37 1 37 2
M  V30 38 1 21 5
M  V30 39 1 37 25
M  V30 40 1 20 14
M  V30 41 1 1 38
M  V30 42 1 1 39
M  V30 43 1 1 40
M  V30 44 1 4 41
M  V30 45 1 4 42
M  V30 46 1 6 43
M  V30 47 1 7 44
M  V30 48 1 8 45
M  V30 49 1 10 46
M  V30 50 1 15 47
M  V30 51 1 15 48
M  V30 52 1 16 49
M  V30 53 1 16 50
M  V30 54 1 18 51
M  V30 55 1 18 52
M  V30 56 1 18 53
M  V30 57 1 19 54
M  V30 58 1 19 55
M  V30 59 1 20 56
M  V30 60 1 20 57
M  V30 61 1 21 58
M  V30 62 1 26 59
M  V30 63 1 32 60
M  V30 64 1 32 61
M  V30 65 1 32 62
M  V30 66 1 33 63
M  V30 67 1 33 64
M  V30 68 1 33 65
M  V30 69 1 36 66
M  V30 END BOND
M  V30 END CTAB
M  END
>  <Dataset>  (213) 
ChEMBL_Kinases

>  <Ligand_Instance>  (213) 
nan

>  <PDB_ID>  (213) 
nan

>  <Standardized_SMILES>  (213) 
Cc1c(Cc2cccc(NS(=O)(=O)N3CCN(C)CC3)c2)c(=O)oc2cc(OC(=O)N(C)C)c(Cl)cc12

>  <Name>  (213) 
nan

>  <Pocket>  (213) 
nan

>  <ATP_Site>  (213) 
nan

>  <Peripheral>  (213) 
nan

>  <Num_H_Atoms_ProtBoundConf>  (213) 
nan

>  <Num_Resolved_Atoms>  (213) 
nan

>  <Num_Not_Resolved_Atoms>  (213) 
nan

$$$$
CHEMBL2170414
     RDKit          3D

  0  0  0  0  0  0  0  0  0  0999 V3000
M  V30 BEGIN CTAB
M  V30 COUNTS 38 40 0 0 0
M  V30 BEGIN ATOM
M  V30 1 N 1.517667 -4.807959 3.470126 0
M  V30 2 C 0.902370 -3.536088 3.758235 0
M  V30 3 O -0.002740 -3.531351 4.615469 0
M  V30 4 C 1.565609 -2.552293 2.896348 0
M  V30 5 C 2.677758 -2.667049 2.081890 0
M  V30 6 C 3.084692 -1.601010 1.348678 0
M  V30 7 C 2.477256 -0.367546 1.331571 0
M  V30 8 N 3.012307 0.673711 0.518020 0
M  V30 9 C 2.163513 1.668712 -0.076212 0
M  V30 10 N 2.581476 2.771651 -0.751698 0
M  V30 11 C 1.701169 3.624602 -1.318448 0
M  V30 12 C 0.325655 3.396456 -1.226491 0
M  V30 13 F -0.667472 4.142819 -1.732700 0
M  V30 14 C -0.093508 2.277610 -0.540321 0
M  V30 15 N -1.426875 1.823735 -0.304772 0
M  V30 16 C -2.001644 0.529143 -0.458468 0
M  V30 17 C -1.252724 -0.530764 -0.927035 0
M  V30 18 C -1.854282 -1.782961 -1.061249 0
M  V30 19 C -3.204094 -1.961836 -0.724469 0
M  V30 20 C -3.891654 -0.858401 -0.263091 0
M  V30 21 C -3.325966 0.418958 -0.111836 0
M  V30 22 Cl -4.287880 1.767409 0.486965 0
M  V30 23 N 0.833613 1.448406 0.013883 0
M  V30 24 C 1.349929 -0.269870 2.166836 0
M  V30 25 C 0.942489 -1.345095 2.905174 0
M  V30 26 H 0.830487 -5.529933 3.085199 0
M  V30 27 H 1.658416 -5.815187 3.172001 0
M  V30 28 H 3.123987 -3.653682 2.121804 0
M  V30 29 H 3.967976 -1.850568 0.760122 0
M  V30 30 H 4.065902 0.643201 0.395975 0
M  V30 31 H 1.991099 4.495834 -1.859607 0
M  V30 32 H -1.936851 2.655657 0.015177 0
M  V30 33 H -0.215747 -0.447066 -1.197719 0
M  V30 34 H -1.344770 -2.680574 -1.419514 0
M  V30 35 H -3.734959 -2.909674 -0.807119 0
M  V30 36 H -4.952681 -1.001962 -0.000979 0
M  V30 37 H 0.848368 0.685153 2.198258 0
M  V30 38 H 0.046827 -1.143319 3.522177 0
M  V30 END ATOM
M  V30 BEGIN BOND
M  V30 1 1 1 2
M  V30 2 2 2 3
M  V30 3 1 2 4
M  V30 4 2 4 5
M  V30 5 1 5 6
M  V30 6 2 6 7
M  V30 7 1 7 8
M  V30 8 1 8 9
M  V30 9 2 9 10
M  V30 10 1 10 11
M  V30 11 2 11 12
M  V30 12 1 12 13
M  V30 13 1 12 14
M  V30 14 1 14 15
M  V30 15 1 15 16
M  V30 16 2 16 17
M  V30 17 1 17 18
M  V30 18 2 18 19
M  V30 19 1 19 20
M  V30 20 2 20 21
M  V30 21 1 21 22
M  V30 22 2 14 23
M  V30 23 1 7 24
M  V30 24 2 24 25
M  V30 25 1 25 4
M  V30 26 1 23 9
M  V30 27 1 21 16
M  V30 28 1 1 26
M  V30 29 1 1 27
M  V30 30 1 5 28
M  V30 31 1 6 29
M  V30 32 1 8 30
M  V30 33 1 11 31
M  V30 34 1 15 32
M  V30 35 1 17 33
M  V30 36 1 18 34
M  V30 37 1 19 35
M  V30 38 1 20 36
M  V30 39 1 24 37
M  V30 40 1 25 38
M  V30 END BOND
M  V30 END CTAB
M  END
>  <Dataset>  (214) 
ChEMBL_Kinases

>  <Ligand_Instance>  (214) 
nan

>  <PDB_ID>  (214) 
nan

>  <Standardized_SMILES>  (214) 
NC(=O)c1ccc(Nc2ncc(F)c(Nc3ccccc3Cl)n2)cc1

>  <Name>  (214) 
nan

>  <Pocket>  (214) 
nan

>  <ATP_Site>  (214) 
nan

>  <Peripheral>  (214) 
nan

>  <Num_H_Atoms_ProtBoundConf>  (214) 
nan

>  <Num_Resolved_Atoms>  (214) 
nan

>  <Num_Not_Resolved_Atoms>  (214) 
nan

$$$$
CHEMBL3086073
     RDKit          3D

  0  0  0  0  0  0  0  0  0  0999 V3000
M  V30 BEGIN CTAB
M  V30 COUNTS 58 60 0 0 0
M  V30 BEGIN ATOM
M  V30 1 C -0.400214 -0.180643 2.883560 0
M  V30 2 C 0.260748 -1.341037 2.288971 0
M  V30 3 C 1.635407 -1.527384 2.332763 0
M  V30 4 C 2.549125 -0.579735 2.918136 0
M  V30 5 C 3.064133 0.536589 2.164818 0
M  V30 6 C 4.397632 0.422431 1.719070 0
M  V30 7 C 5.152442 1.347660 1.018102 0
M  V30 8 C 4.485070 2.513197 0.738545 0
M  V30 9 C 3.158032 2.746901 1.125265 0
M  V30 10 N 2.637090 3.997579 0.732128 0
M  V30 11 S 1.202020 4.566688 1.527724 0
M  V30 12 O 1.315703 4.613835 2.998004 0
M  V30 13 O 0.748502 5.897645 1.018767 0
M  V30 14 N -0.112138 3.439701 1.149899 0
M  V30 15 C -0.294500 3.504539 -0.312085 0
M  V30 16 C -1.363147 2.618915 -0.845013 0
M  V30 17 C -1.152758 1.207357 -0.653237 0
M  V30 18 N -0.987482 0.075735 -0.519818 0
M  V30 19 C 2.533923 1.742690 1.811912 0
M  V30 20 C 2.161584 -2.693156 1.757971 0
M  V30 21 O 3.411767 -2.872636 1.792537 0
M  V30 22 O 1.366062 -3.593724 1.187396 0
M  V30 23 C 0.064714 -3.423002 1.142767 0
M  V30 24 C -0.614039 -4.449983 0.517197 0
M  V30 25 C -1.983650 -4.375659 0.415543 0
M  V30 26 O -2.815790 -5.317899 -0.181090 0
M  V30 27 C -3.167047 -5.252486 -1.521648 0
M  V30 28 O -2.397456 -4.305818 -1.146757 0
M  V30 29 N -3.627377 -5.350655 -2.846024 0
M  V30 30 C -4.486338 -6.444547 -3.193823 0
M  V30 31 C -3.226701 -4.350863 -3.804011 0
M  V30 32 C -2.626693 -3.253645 0.956155 0
M  V30 33 Cl -4.373003 -3.036345 0.895787 0
M  V30 34 C -1.929091 -2.238362 1.577005 0
M  V30 35 C -0.539513 -2.305770 1.683364 0
M  V30 36 H -1.082262 0.381628 2.214595 0
M  V30 37 H -1.117816 -0.617505 3.654487 0
M  V30 38 H 0.246747 0.470677 3.483203 0
M  V30 39 H 2.120988 -0.159404 3.883477 0
M  V30 40 H 3.426521 -1.178719 3.322810 0
M  V30 41 H 4.960826 -0.506809 1.928301 0
M  V30 42 H 6.171527 1.152484 0.726834 0
M  V30 43 H 5.051215 3.273984 0.184412 0
M  V30 44 H 3.083600 4.568136 -0.008680 0
M  V30 45 H -0.976366 3.790810 1.595107 0
M  V30 46 H -0.479383 4.559697 -0.572690 0
M  V30 47 H 0.712192 3.225698 -0.736270 0
M  V30 48 H -1.524395 2.841534 -1.939019 0
M  V30 49 H -2.356922 2.883481 -0.385836 0
M  V30 50 H 1.521054 1.916168 2.105667 0
M  V30 51 H -0.136175 -5.313392 0.099754 0
M  V30 52 H -4.079797 -7.357125 -2.689573 0
M  V30 53 H -5.517370 -6.192202 -2.829605 0
M  V30 54 H -4.477890 -6.602556 -4.289538 0
M  V30 55 H -4.160015 -4.008559 -4.325283 0
M  V30 56 H -2.466826 -4.697826 -4.528002 0
M  V30 57 H -2.818690 -3.441282 -3.337405 0
M  V30 58 H -2.403177 -1.364884 2.000636 0
M  V30 END ATOM
M  V30 BEGIN BOND
M  V30 1 1 1 2
M  V30 2 2 2 3
M  V30 3 1 3 4
M  V30 4 1 4 5
M  V30 5 2 5 6
M  V30 6 1 6 7
M  V30 7 2 7 8
M  V30 8 1 8 9
M  V30 9 1 9 10
M  V30 10 1 10 11
M  V30 11 2 11 12
M  V30 12 2 11 13
M  V30 13 1 11 14
M  V30 14 1 14 15
M  V30 15 1 15 16
M  V30 16 1 16 17
M  V30 17 3 17 18
M  V30 18 2 9 19
M  V30 19 1 3 20
M  V30 20 2 20 21
M  V30 21 1 20 22
M  V30 22 1 22 23
M  V30 23 2 23 24
M  V30 24 1 24 25
M  V30 25 1 25 26
M  V30 26 1 26 27
M  V30 27 2 27 28
M  V30 28 1 27 29
M  V30 29 1 29 30
M  V30 30 1 29 31
M  V30 31 2 25 32
M  V30 32 1 32 33
M  V30 33 1 32 34
M  V30 34 2 34 35
M  V30 35 1 35 2
M  V30 36 1 19 5
M  V30 37 1 35 23
M  V30 38 1 1 36
M  V30 39 1 1 37
M  V30 40 1 1 38
M  V30 41 1 4 39
M  V30 42 1 4 40
M  V30 43 1 6 41
M  V30 44 1 7 42
M  V30 45 1 8 43
M  V30 46 1 10 44
M  V30 47 1 14 45
M  V30 48 1 15 46
M  V30 49 1 15 47
M  V30 50 1 16 48
M  V30 51 1 16 49
M  V30 52 1 19 50
M  V30 53 1 24 51
M  V30 54 1 30 52
M  V30 55 1 30 53
M  V30 56 1 30 54
M  V30 57 1 31 55
M  V30 58 1 31 56
M  V30 59 1 31 57
M  V30 60 1 34 58
M  V30 END BOND
M  V30 END CTAB
M  END
>  <Dataset>  (215) 
ChEMBL_Kinases

>  <Ligand_Instance>  (215) 
nan

>  <PDB_ID>  (215) 
nan

>  <Standardized_SMILES>  (215) 
Cc1c(Cc2cccc(NS(=O)(=O)NCCC#N)c2)c(=O)oc2cc(OC(=O)N(C)C)c(Cl)cc12

>  <Name>  (215) 
nan

>  <Pocket>  (215) 
nan

>  <ATP_Site>  (215) 
nan

>  <Peripheral>  (215) 
nan

>  <Num_H_Atoms_ProtBoundConf>  (215) 
nan

>  <Num_Resolved_Atoms>  (215) 
nan

>  <Num_Not_Resolved_Atoms>  (215) 
nan

$$$$
CHEMBL2170407
     RDKit          3D

  0  0  0  0  0  0  0  0  0  0999 V3000
M  V30 BEGIN CTAB
M  V30 COUNTS 38 41 0 0 0
M  V30 BEGIN ATOM
M  V30 1 O -0.427515 -4.250683 4.359350 0
M  V30 2 C 0.383248 -3.576535 3.672002 0
M  V30 3 N 1.379723 -4.023565 2.889545 0
M  V30 4 C 2.059155 -3.031207 2.293198 0
M  V30 5 C 3.122413 -2.877239 1.431295 0
M  V30 6 C 3.580714 -1.661813 1.003880 0
M  V30 7 C 2.954998 -0.494082 1.449044 0
M  V30 8 N 3.321953 0.861891 1.106287 0
M  V30 9 C 2.283452 1.175082 0.194172 0
M  V30 10 N 2.739863 0.997582 -1.079326 0
M  V30 11 C 1.889597 1.220864 -2.125734 0
M  V30 12 C 0.590098 1.622804 -1.802852 0
M  V30 13 C 0.128214 1.803736 -0.492853 0
M  V30 14 N -1.225649 2.199396 -0.538371 0
M  V30 15 C -2.141747 1.124978 -0.326208 0
M  V30 16 C -1.753962 -0.155373 -0.047430 0
M  V30 17 C -2.626035 -1.228702 0.152662 0
M  V30 18 C -3.983479 -0.965884 0.060294 0
M  V30 19 C -4.409404 0.334232 -0.222711 0
M  V30 20 C -3.519711 1.366442 -0.414419 0
M  V30 21 Cl -4.055493 3.002068 -0.776783 0
M  V30 22 N 1.021685 1.566979 0.504450 0
M  V30 23 C 1.868007 -0.608412 2.331037 0
M  V30 24 C 1.425681 -1.873612 2.748175 0
M  V30 25 N 0.425241 -2.230226 3.571921 0
M  V30 26 H 1.596553 -5.025565 2.764809 0
M  V30 27 H 3.600834 -3.774911 1.085097 0
M  V30 28 H 4.403224 -1.504025 0.330690 0
M  V30 29 H 4.127510 1.440161 1.444289 0
M  V30 30 H 2.243949 1.080481 -3.144056 0
M  V30 31 H 0.022629 1.762799 -2.728451 0
M  V30 32 H -1.607747 3.140836 -0.708168 0
M  V30 33 H -0.704853 -0.392876 0.031940 0
M  V30 34 H -2.223019 -2.233549 0.375839 0
M  V30 35 H -4.657809 -1.802066 0.211932 0
M  V30 36 H -5.480941 0.515771 -0.292133 0
M  V30 37 H 1.366641 0.282307 2.686871 0
M  V30 38 H -0.243300 -1.609214 4.082897 0
M  V30 END ATOM
M  V30 BEGIN BOND
M  V30 1 2 1 2
M  V30 2 1 2 3
M  V30 3 1 3 4
M  V30 4 2 4 5
M  V30 5 1 5 6
M  V30 6 2 6 7
M  V30 7 1 7 8
M  V30 8 1 8 9
M  V30 9 2 9 10
M  V30 10 1 10 11
M  V30 11 2 11 12
M  V30 12 1 12 13
M  V30 13 1 13 14
M  V30 14 1 14 15
M  V30 15 2 15 16
M  V30 16 1 16 17
M  V30 17 2 17 18
M  V30 18 1 18 19
M  V30 19 2 19 20
M  V30 20 1 20 21
M  V30 21 2 13 22
M  V30 22 1 7 23
M  V30 23 2 23 24
M  V30 24 1 24 25
M  V30 25 1 25 2
M  V30 26 1 24 4
M  V30 27 1 22 9
M  V30 28 1 20 15
M  V30 29 1 3 26
M  V30 30 1 5 27
M  V30 31 1 6 28
M  V30 32 1 8 29
M  V30 33 1 11 30
M  V30 34 1 12 31
M  V30 35 1 14 32
M  V30 36 1 16 33
M  V30 37 1 17 34
M  V30 38 1 18 35
M  V30 39 1 19 36
M  V30 40 1 23 37
M  V30 41 1 25 38
M  V30 END BOND
M  V30 END CTAB
M  END
>  <Dataset>  (216) 
ChEMBL_Kinases

>  <Ligand_Instance>  (216) 
nan

>  <PDB_ID>  (216) 
nan

>  <Standardized_SMILES>  (216) 
O=c1[nH]c2ccc(Nc3nccc(Nc4ccccc4Cl)n3)cc2[nH]1

>  <Name>  (216) 
nan

>  <Pocket>  (216) 
nan

>  <ATP_Site>  (216) 
nan

>  <Peripheral>  (216) 
nan

>  <Num_H_Atoms_ProtBoundConf>  (216) 
nan

>  <Num_Resolved_Atoms>  (216) 
nan

>  <Num_Not_Resolved_Atoms>  (216) 
nan

$$$$
CHEMBL3685245
     RDKit          3D

  0  0  0  0  0  0  0  0  0  0999 V3000
M  V30 BEGIN CTAB
M  V30 COUNTS 52 55 0 0 0
M  V30 BEGIN ATOM
M  V30 1 N 7.003221 -2.590856 3.223221 0
M  V30 2 C 5.849029 -2.239958 2.464004 0
M  V30 3 O 5.176394 -3.137371 1.860360 0
M  V30 4 C 5.440283 -0.822878 2.384302 0
M  V30 5 C 6.145516 0.163590 3.025054 0
M  V30 6 C 5.726237 1.479215 2.922966 0
M  V30 7 C 4.599482 1.736205 2.168166 0
M  V30 8 C 3.852643 0.788880 1.503957 0
M  V30 9 C 2.737392 1.118831 0.767515 0
M  V30 10 N 2.286126 2.443518 0.642011 0
M  V30 11 C 1.142530 2.887199 -0.096666 0
M  V30 12 C -0.153629 2.342544 0.376443 0
M  V30 13 C -0.724773 3.061793 1.404464 0
M  V30 14 C -1.931750 2.665394 1.922569 0
M  V30 15 C -2.512080 1.549601 1.372849 0
M  V30 16 C -2.008381 0.782059 0.350897 0
M  V30 17 N -2.582982 -0.364560 -0.229170 0
M  V30 18 C -3.785695 -1.024857 0.060650 0
M  V30 19 O -4.470977 -0.518068 0.988587 0
M  V30 20 C -4.367393 -2.206450 -0.543969 0
M  V30 21 C -5.570685 -2.706663 -0.112983 0
M  V30 22 C -6.193379 -3.818225 -0.626026 0
M  V30 23 C -5.597754 -4.506743 -1.647534 0
M  V30 24 C -6.265898 -5.708479 -2.204479 0
M  V30 25 F -6.882225 -6.446863 -1.218493 0
M  V30 26 F -7.093378 -5.389268 -3.255290 0
M  V30 27 F -5.244391 -6.502246 -2.722185 0
M  V30 28 C -4.387967 -4.071458 -2.139319 0
M  V30 29 C -3.830440 -2.949371 -1.570399 0
M  V30 30 F -2.646470 -2.596385 -2.114862 0
M  V30 31 C -0.795223 1.236970 -0.121327 0
M  V30 32 N 2.126154 0.090667 0.186423 0
M  V30 33 C 2.552796 -1.161530 0.302903 0
M  V30 34 N 3.659333 -1.488741 1.033608 0
M  V30 35 C 4.338169 -0.490398 1.657852 0
M  V30 36 H 8.039162 -2.616867 3.208105 0
M  V30 37 H 6.475323 -2.931020 4.082309 0
M  V30 38 H 7.028603 -0.072644 3.611233 0
M  V30 39 H 6.291340 2.244033 3.432411 0
M  V30 40 H 4.342946 2.782692 2.140978 0
M  V30 41 H 2.767006 3.240130 1.096780 0
M  V30 42 H 1.101194 3.989790 -0.227773 0
M  V30 43 H 1.324483 2.516983 -1.158253 0
M  V30 44 H -0.260700 3.947439 1.838241 0
M  V30 45 H -2.387817 3.219960 2.726672 0
M  V30 46 H -3.458268 1.283301 1.817848 0
M  V30 47 H -2.049750 -0.814427 -0.999893 0
M  V30 48 H -6.116635 -2.217846 0.700264 0
M  V30 49 H -7.140263 -4.165444 -0.246709 0
M  V30 50 H -3.925375 -4.621430 -2.945778 0
M  V30 51 H -0.305551 0.716367 -0.933733 0
M  V30 52 H 2.048810 -2.002655 -0.175111 0
M  V30 END ATOM
M  V30 BEGIN BOND
M  V30 1 1 1 2
M  V30 2 2 2 3
M  V30 3 1 2 4
M  V30 4 2 4 5
M  V30 5 1 5 6
M  V30 6 2 6 7
M  V30 7 1 7 8
M  V30 8 2 8 9
M  V30 9 1 9 10
M  V30 10 1 10 11
M  V30 11 1 11 12
M  V30 12 2 12 13
M  V30 13 1 13 14
M  V30 14 2 14 15
M  V30 15 1 15 16
M  V30 16 1 16 17
M  V30 17 1 17 18
M  V30 18 2 18 19
M  V30 19 1 18 20
M  V30 20 2 20 21
M  V30 21 1 21 22
M  V30 22 2 22 23
M  V30 23 1 23 24
M  V30 24 1 24 25
M  V30 25 1 24 26
M  V30 26 1 24 27
M  V30 27 1 23 28
M  V30 28 2 28 29
M  V30 29 1 29 30
M  V30 30 2 16 31
M  V30 31 1 9 32
M  V30 32 2 32 33
M  V30 33 1 33 34
M  V30 34 2 34 35
M  V30 35 1 35 4
M  V30 36 1 35 8
M  V30 37 1 31 12
M  V30 38 1 29 20
M  V30 39 1 1 36
M  V30 40 1 1 37
M  V30 41 1 5 38
M  V30 42 1 6 39
M  V30 43 1 7 40
M  V30 44 1 10 41
M  V30 45 1 11 42
M  V30 46 1 11 43
M  V30 47 1 13 44
M  V30 48 1 14 45
M  V30 49 1 15 46
M  V30 50 1 17 47
M  V30 51 1 21 48
M  V30 52 1 22 49
M  V30 53 1 28 50
M  V30 54 1 31 51
M  V30 55 1 33 52
M  V30 END BOND
M  V30 END CTAB
M  END
>  <Dataset>  (217) 
ChEMBL_Kinases

>  <Ligand_Instance>  (217) 
nan

>  <PDB_ID>  (217) 
nan

>  <Standardized_SMILES>  (217) 
NC(=O)c1cccc2c(NCc3cccc(NC(=O)c4ccc(C(F)(F)F)cc4F)c3)ncnc12

>  <Name>  (217) 
nan

>  <Pocket>  (217) 
nan

>  <ATP_Site>  (217) 
nan

>  <Peripheral>  (217) 
nan

>  <Num_H_Atoms_ProtBoundConf>  (217) 
nan

>  <Num_Resolved_Atoms>  (217) 
nan

>  <Num_Not_Resolved_Atoms>  (217) 
nan

$$$$
CHEMBL2170404
     RDKit          3D

  0  0  0  0  0  0  0  0  0  0999 V3000
M  V30 BEGIN CTAB
M  V30 COUNTS 48 50 0 0 0
M  V30 BEGIN ATOM
M  V30 1 C 1.414473 -6.216290 3.408659 0
M  V30 2 O 2.086844 -5.685482 2.289191 0
M  V30 3 C 3.415393 -5.376592 2.569063 0
M  V30 4 C 4.105637 -4.801431 1.337623 0
M  V30 5 N 3.444916 -3.592898 0.895903 0
M  V30 6 C 3.336690 -2.443846 1.726025 0
M  V30 7 O 3.846893 -2.516018 2.876992 0
M  V30 8 C 2.661821 -1.202881 1.288558 0
M  V30 9 C 2.033042 -1.055733 0.059974 0
M  V30 10 C 1.431619 0.143039 -0.263669 0
M  V30 11 C 1.426668 1.222485 0.593586 0
M  V30 12 N 0.802020 2.454585 0.254892 0
M  V30 13 C 0.087208 2.605913 -0.962810 0
M  V30 14 N 0.536764 2.962822 -2.200510 0
M  V30 15 C -0.318408 3.057003 -3.242147 0
M  V30 16 C -1.656296 2.785327 -3.030890 0
M  V30 17 C -2.130520 2.422622 -1.784880 0
M  V30 18 N -3.527623 2.145462 -1.564574 0
M  V30 19 C -4.027521 1.772723 -0.295903 0
M  V30 20 C -4.980243 2.681621 0.173987 0
M  V30 21 C -5.594782 2.493445 1.409642 0
M  V30 22 C -5.260585 1.405815 2.170735 0
M  V30 23 C -4.324465 0.495228 1.730871 0
M  V30 24 C -3.727240 0.694870 0.509639 0
M  V30 25 Cl -2.523027 -0.361748 -0.199276 0
M  V30 26 N -1.238215 2.339900 -0.767411 0
M  V30 27 C 2.054657 1.064178 1.811424 0
M  V30 28 C 2.662324 -0.127830 2.154225 0
M  V30 29 H 1.450689 -5.452716 4.199554 0
M  V30 30 H 1.882035 -7.147680 3.775185 0
M  V30 31 H 0.368163 -6.428126 3.077091 0
M  V30 32 H 3.987290 -6.320569 2.804664 0
M  V30 33 H 3.536769 -4.745162 3.463648 0
M  V30 34 H 4.033254 -5.584806 0.566137 0
M  V30 35 H 5.166414 -4.636154 1.596125 0
M  V30 36 H 3.035870 -3.567776 -0.064296 0
M  V30 37 H 2.030788 -1.893377 -0.618788 0
M  V30 38 H 0.959300 0.220045 -1.212067 0
M  V30 39 H 0.873142 3.257257 0.915125 0
M  V30 40 H 0.113699 3.344623 -4.189965 0
M  V30 41 H -2.332819 2.867036 -3.890236 0
M  V30 42 H -4.164117 2.231069 -2.385767 0
M  V30 43 H -5.333865 3.581775 -0.327414 0
M  V30 44 H -6.332500 3.164585 1.811206 0
M  V30 45 H -5.720002 1.220988 3.144793 0
M  V30 46 H -4.024137 -0.379572 2.289554 0
M  V30 47 H 2.037603 1.921223 2.464047 0
M  V30 48 H 3.138405 -0.186166 3.127210 0
M  V30 END ATOM
M  V30 BEGIN BOND
M  V30 1 1 1 2
M  V30 2 1 2 3
M  V30 3 1 3 4
M  V30 4 1 4 5
M  V30 5 1 5 6
M  V30 6 2 6 7
M  V30 7 1 6 8
M  V30 8 2 8 9
M  V30 9 1 9 10
M  V30 10 2 10 11
M  V30 11 1 11 12
M  V30 12 1 12 13
M  V30 13 2 13 14
M  V30 14 1 14 15
M  V30 15 2 15 16
M  V30 16 1 16 17
M  V30 17 1 17 18
M  V30 18 1 18 19
M  V30 19 2 19 20
M  V30 20 1 20 21
M  V30 21 2 21 22
M  V30 22 1 22 23
M  V30 23 2 23 24
M  V30 24 1 24 25
M  V30 25 2 17 26
M  V30 26 1 11 27
M  V30 27 2 27 28
M  V30 28 1 28 8
M  V30 29 1 26 13
M  V30 30 1 24 19
M  V30 31 1 1 29
M  V30 32 1 1 30
M  V30 33 1 1 31
M  V30 34 1 3 32
M  V30 35 1 3 33
M  V30 36 1 4 34
M  V30 37 1 4 35
M  V30 38 1 5 36
M  V30 39 1 9 37
M  V30 40 1 10 38
M  V30 41 1 12 39
M  V30 42 1 15 40
M  V30 43 1 16 41
M  V30 44 1 18 42
M  V30 45 1 20 43
M  V30 46 1 21 44
M  V30 47 1 22 45
M  V30 48 1 23 46
M  V30 49 1 27 47
M  V30 50 1 28 48
M  V30 END BOND
M  V30 END CTAB
M  END
>  <Dataset>  (218) 
ChEMBL_Kinases

>  <Ligand_Instance>  (218) 
nan

>  <PDB_ID>  (218) 
nan

>  <Standardized_SMILES>  (218) 
COCCNC(=O)c1ccc(Nc2nccc(Nc3ccccc3Cl)n2)cc1

>  <Name>  (218) 
nan

>  <Pocket>  (218) 
nan

>  <ATP_Site>  (218) 
nan

>  <Peripheral>  (218) 
nan

>  <Num_H_Atoms_ProtBoundConf>  (218) 
nan

>  <Num_Resolved_Atoms>  (218) 
nan

>  <Num_Not_Resolved_Atoms>  (218) 
nan

$$$$
CHEMBL2170294
     RDKit          3D

  0  0  0  0  0  0  0  0  0  0999 V3000
M  V30 BEGIN CTAB
M  V30 COUNTS 54 58 0 0 0
M  V30 BEGIN ATOM
M  V30 1 C 2.828063 -2.658866 -1.041444 0
M  V30 2 C 3.255526 -3.019123 0.354525 0
M  V30 3 C 3.808836 -4.277438 0.616449 0
M  V30 4 C 4.173023 -4.518672 1.932826 0
M  V30 5 C 4.031509 -3.629000 2.972565 0
M  V30 6 C 3.482758 -2.422944 2.631303 0
M  V30 7 C 3.081190 -2.068131 1.352942 0
M  V30 8 N 2.513090 -0.802221 1.034692 0
M  V30 9 N 1.211809 -0.805505 0.721942 0
M  V30 10 C 0.547240 0.318460 0.400998 0
M  V30 11 C -0.862448 0.205899 0.081634 0
M  V30 12 C -1.809406 1.134627 -0.277489 0
M  V30 13 C -1.600906 2.559261 -0.444270 0
M  V30 14 C -1.203106 2.947513 -1.729117 0
M  V30 15 C -0.995702 4.296338 -1.944866 0
M  V30 16 C -1.168976 5.236526 -0.945703 0
M  V30 17 F -0.956057 6.553680 -1.193979 0
M  V30 18 C -1.561617 4.794287 0.299060 0
M  V30 19 C -1.791243 3.459978 0.600870 0
M  V30 20 N -3.001525 0.551512 -0.474155 0
M  V30 21 N -2.849003 -0.753120 -0.248297 0
M  V30 22 C -1.548455 -0.987990 0.093039 0
M  V30 23 N -1.227594 -2.330163 0.361823 0
M  V30 24 C -2.163632 -3.420601 0.558821 0
M  V30 25 C -3.583680 -2.982134 0.534059 0 CFG=1
M  V30 26 C -4.138750 -2.737507 1.937811 0
M  V30 27 O -4.039826 -3.951348 2.641955 0
M  V30 28 C -3.839917 -1.780812 -0.333164 0
M  V30 29 C 1.308514 1.460371 0.420778 0
M  V30 30 C 2.649303 1.493896 0.738653 0
M  V30 31 C 3.272519 0.306215 1.058706 0
M  V30 32 O 4.494455 0.291812 1.354853 0
M  V30 33 H 3.386893 -3.310743 -1.749328 0
M  V30 34 H 1.744849 -2.887118 -1.191439 0
M  V30 35 H 2.948057 -1.587130 -1.231000 0
M  V30 36 H 3.940627 -5.010080 -0.164469 0
M  V30 37 H 4.602081 -5.516081 2.094427 0
M  V30 38 H 4.337382 -3.882566 3.977933 0
M  V30 39 H 3.354424 -1.685503 3.438531 0
M  V30 40 H -1.062309 2.234061 -2.520818 0
M  V30 41 H -0.687680 4.614661 -2.932598 0
M  V30 42 H -1.709332 5.509301 1.116188 0
M  V30 43 H -2.098651 3.101900 1.570388 0
M  V30 44 H -0.241696 -2.649933 0.441457 0
M  V30 45 H -1.948376 -3.856076 1.556383 0
M  V30 46 H -1.955740 -4.248074 -0.176143 0
M  V30 47 H -4.195959 -3.818210 0.118882 0
M  V30 48 H -5.222888 -2.513454 1.868927 0
M  V30 49 H -3.631950 -1.921286 2.451618 0
M  V30 50 H -3.206525 -3.957797 3.178702 0
M  V30 51 H -4.814050 -1.366241 -0.002098 0
M  V30 52 H -3.994544 -2.052455 -1.417612 0
M  V30 53 H 0.844538 2.381365 0.179723 0
M  V30 54 H 3.185819 2.433208 0.733225 0
M  V30 END ATOM
M  V30 BEGIN BOND
M  V30 1 1 1 2
M  V30 2 2 2 3
M  V30 3 1 3 4
M  V30 4 2 4 5
M  V30 5 1 5 6
M  V30 6 2 6 7
M  V30 7 1 7 8
M  V30 8 1 8 9
M  V30 9 2 9 10
M  V30 10 1 10 11
M  V30 11 1 11 12
M  V30 12 1 12 13
M  V30 13 2 13 14
M  V30 14 1 14 15
M  V30 15 2 15 16
M  V30 16 1 16 17
M  V30 17 1 16 18
M  V30 18 2 18 19
M  V30 19 2 12 20
M  V30 20 1 20 21
M  V30 21 1 21 22
M  V30 22 1 22 23
M  V30 23 1 23 24
M  V30 24 1 24 25
M  V30 25 1 25 26
M  V30 26 1 26 27
M  V30 27 1 25 28
M  V30 28 1 10 29
M  V30 29 2 29 30
M  V30 30 1 30 31
M  V30 31 2 31 32
M  V30 32 1 7 2
M  V30 33 1 31 8
M  V30 34 2 22 11
M  V30 35 1 19 13
M  V30 36 1 28 21
M  V30 37 1 1 33
M  V30 38 1 1 34
M  V30 39 1 1 35
M  V30 40 1 3 36
M  V30 41 1 4 37
M  V30 42 1 5 38
M  V30 43 1 6 39
M  V30 44 1 14 40
M  V30 45 1 15 41
M  V30 46 1 18 42
M  V30 47 1 19 43
M  V30 48 1 23 44
M  V30 49 1 24 45
M  V30 50 1 24 46
M  V30 51 1 25 47 CFG=3
M  V30 52 1 26 48
M  V30 53 1 26 49
M  V30 54 1 27 50
M  V30 55 1 28 51
M  V30 56 1 28 52
M  V30 57 1 29 53
M  V30 58 1 30 54
M  V30 END BOND
M  V30 END CTAB
M  END
>  <Dataset>  (219) 
ChEMBL_Kinases

>  <Ligand_Instance>  (219) 
nan

>  <PDB_ID>  (219) 
nan

>  <Standardized_SMILES>  (219) 
Cc1ccccc1-n1nc(-c2c(-c3ccc(F)cc3)nn3c2NC[C@@H](CO)C3)ccc1=O

>  <Name>  (219) 
AS1940477

>  <Pocket>  (219) 
nan

>  <ATP_Site>  (219) 
nan

>  <Peripheral>  (219) 
nan

>  <Num_H_Atoms_ProtBoundConf>  (219) 
nan

>  <Num_Resolved_Atoms>  (219) 
nan

>  <Num_Not_Resolved_Atoms>  (219) 
nan

$$$$
CHEMBL3086074
     RDKit          3D

  0  0  0  0  0  0  0  0  0  0999 V3000
M  V30 BEGIN CTAB
M  V30 COUNTS 58 60 0 0 0
M  V30 BEGIN ATOM
M  V30 1 C 1.544315 1.945595 1.840058 0
M  V30 2 C 0.104968 1.720295 2.006828 0
M  V30 3 C -0.268456 0.841791 3.004560 0
M  V30 4 C 0.624307 0.063618 3.915801 0
M  V30 5 C 1.214118 -1.128916 3.265336 0
M  V30 6 C 0.450113 -2.306237 3.286706 0
M  V30 7 C 0.817893 -3.518538 2.743082 0
M  V30 8 C 2.043449 -3.578031 2.125045 0
M  V30 9 C 2.833348 -2.455206 2.074887 0
M  V30 10 N 4.112868 -2.493749 1.435252 0
M  V30 11 S 5.243537 -3.763586 1.672707 0
M  V30 12 O 5.555906 -3.874230 3.137250 0
M  V30 13 O 6.518679 -3.387155 0.975844 0
M  V30 14 N 4.642152 -5.284261 1.166031 0
M  V30 15 C 4.321406 -5.367756 -0.232916 0
M  V30 16 C 3.796592 -6.743287 -0.597951 0
M  V30 17 O 2.656378 -6.952675 0.159682 0
M  V30 18 C 2.421501 -1.278151 2.629426 0
M  V30 19 C -1.660431 0.689731 3.114351 0
M  V30 20 O -2.176344 -0.082921 3.984073 0
M  V30 21 O -2.559646 1.295497 2.370709 0
M  V30 22 C -2.216359 2.137700 1.412218 0
M  V30 23 C -3.202765 2.743892 0.662176 0
M  V30 24 C -2.773206 3.611089 -0.322800 0
M  V30 25 O -3.648499 4.294917 -1.157602 0
M  V30 26 C -4.038751 3.677643 -2.336127 0
M  V30 27 O -3.248845 2.978242 -1.651307 0
M  V30 28 N -4.552029 3.234843 -3.564096 0
M  V30 29 C -5.456909 4.074139 -4.317648 0
M  V30 30 C -4.156352 1.929299 -4.052449 0
M  V30 31 C -1.414262 3.867405 -0.554862 0
M  V30 32 Cl -0.899305 4.976568 -1.816111 0
M  V30 33 C -0.492560 3.208435 0.253492 0
M  V30 34 C -0.859444 2.331830 1.252579 0
M  V30 35 H 1.686543 3.053017 1.655583 0
M  V30 36 H 2.121137 1.764909 2.768364 0
M  V30 37 H 1.894285 1.431673 0.947813 0
M  V30 38 H 1.391231 0.710395 4.385378 0
M  V30 39 H -0.009157 -0.290319 4.752848 0
M  V30 40 H -0.531914 -2.285243 3.773606 0
M  V30 41 H 0.160481 -4.368638 2.810718 0
M  V30 42 H 2.335468 -4.521114 1.699687 0
M  V30 43 H 4.304616 -1.669192 0.799885 0
M  V30 44 H 5.197599 -6.065696 1.517831 0
M  V30 45 H 3.634574 -4.566868 -0.566351 0
M  V30 46 H 5.267090 -5.236227 -0.798858 0
M  V30 47 H 4.539188 -7.534727 -0.388102 0
M  V30 48 H 3.587220 -6.798673 -1.685383 0
M  V30 49 H 1.887974 -6.992204 -0.464945 0
M  V30 50 H 3.034445 -0.414647 2.592009 0
M  V30 51 H -4.246912 2.578946 0.803418 0
M  V30 52 H -4.899362 4.679759 -5.089919 0
M  V30 53 H -6.193386 3.474150 -4.905488 0
M  V30 54 H -6.060110 4.728528 -3.656777 0
M  V30 55 H -3.769359 1.319601 -3.214626 0
M  V30 56 H -3.346986 1.998329 -4.812649 0
M  V30 57 H -5.039724 1.410124 -4.481002 0
M  V30 58 H 0.540371 3.423060 0.050461 0
M  V30 END ATOM
M  V30 BEGIN BOND
M  V30 1 1 1 2
M  V30 2 2 2 3
M  V30 3 1 3 4
M  V30 4 1 4 5
M  V30 5 2 5 6
M  V30 6 1 6 7
M  V30 7 2 7 8
M  V30 8 1 8 9
M  V30 9 1 9 10
M  V30 10 1 10 11
M  V30 11 2 11 12
M  V30 12 2 11 13
M  V30 13 1 11 14
M  V30 14 1 14 15
M  V30 15 1 15 16
M  V30 16 1 16 17
M  V30 17 2 9 18
M  V30 18 1 3 19
M  V30 19 2 19 20
M  V30 20 1 19 21
M  V30 21 1 21 22
M  V30 22 2 22 23
M  V30 23 1 23 24
M  V30 24 1 24 25
M  V30 25 1 25 26
M  V30 26 2 26 27
M  V30 27 1 26 28
M  V30 28 1 28 29
M  V30 29 1 28 30
M  V30 30 2 24 31
M  V30 31 1 31 32
M  V30 32 1 31 33
M  V30 33 2 33 34
M  V30 34 1 34 2
M  V30 35 1 18 5
M  V30 36 1 34 22
M  V30 37 1 1 35
M  V30 38 1 1 36
M  V30 39 1 1 37
M  V30 40 1 4 38
M  V30 41 1 4 39
M  V30 42 1 6 40
M  V30 43 1 7 41
M  V30 44 1 8 42
M  V30 45 1 10 43
M  V30 46 1 14 44
M  V30 47 1 15 45
M  V30 48 1 15 46
M  V30 49 1 16 47
M  V30 50 1 16 48
M  V30 51 1 17 49
M  V30 52 1 18 50
M  V30 53 1 23 51
M  V30 54 1 29 52
M  V30 55 1 29 53
M  V30 56 1 29 54
M  V30 57 1 30 55
M  V30 58 1 30 56
M  V30 59 1 30 57
M  V30 60 1 33 58
M  V30 END BOND
M  V30 END CTAB
M  END
>  <Dataset>  (220) 
ChEMBL_Kinases

>  <Ligand_Instance>  (220) 
nan

>  <PDB_ID>  (220) 
nan

>  <Standardized_SMILES>  (220) 
Cc1c(Cc2cccc(NS(=O)(=O)NCCO)c2)c(=O)oc2cc(OC(=O)N(C)C)c(Cl)cc12

>  <Name>  (220) 
nan

>  <Pocket>  (220) 
nan

>  <ATP_Site>  (220) 
nan

>  <Peripheral>  (220) 
nan

>  <Num_H_Atoms_ProtBoundConf>  (220) 
nan

>  <Num_Resolved_Atoms>  (220) 
nan

>  <Num_Not_Resolved_Atoms>  (220) 
nan

$$$$
CHEMBL3086075
     RDKit          3D

  0  0  0  0  0  0  0  0  0  0999 V3000
M  V30 BEGIN CTAB
M  V30 COUNTS 61 63 0 0 0
M  V30 BEGIN ATOM
M  V30 1 C 4.425505 0.278121 7.573040 0
M  V30 2 O 4.470248 0.512590 6.202048 0
M  V30 3 C 4.256142 1.847135 5.871616 0
M  V30 4 C 4.331764 1.952021 4.357014 0
M  V30 5 N 4.117788 3.311944 3.910513 0
M  V30 6 S 4.233380 3.270304 2.167463 0
M  V30 7 O 5.581164 2.690846 1.840573 0
M  V30 8 O 4.106731 4.663339 1.617647 0
M  V30 9 N 3.029974 2.261673 1.484292 0
M  V30 10 C 1.624892 2.334097 1.520312 0
M  V30 11 C 1.066228 2.580940 2.772481 0
M  V30 12 C -0.310430 2.661683 2.909971 0
M  V30 13 C -1.063139 2.489200 1.772411 0
M  V30 14 C -0.588210 2.244373 0.508387 0
M  V30 15 C -1.290095 2.036663 -0.759222 0
M  V30 16 C -1.486610 0.636084 -1.147450 0
M  V30 17 C -2.398915 -0.264868 -0.649303 0
M  V30 18 C -3.335370 0.200021 0.404729 0
M  V30 19 C -2.408517 -1.550691 -1.157394 0
M  V30 20 C -3.326796 -2.439422 -0.647309 0
M  V30 21 C -3.412602 -3.739208 -1.088473 0
M  V30 22 Cl -4.523042 -4.978209 -0.541171 0
M  V30 23 C -2.567767 -4.202947 -2.073134 0
M  V30 24 O -2.424510 -5.426532 -2.701262 0
M  V30 25 C -3.129114 -5.759795 -3.822043 0
M  V30 26 O -3.985986 -5.348501 -4.644616 0
M  V30 27 N -2.995154 -7.011324 -4.482023 0
M  V30 28 C -3.745591 -7.355915 -5.672811 0
M  V30 29 C -2.135898 -8.120032 -4.114130 0
M  V30 30 C -1.621869 -3.317931 -2.610918 0
M  V30 31 C -1.559189 -2.005355 -2.143275 0
M  V30 32 O -0.706036 -1.116089 -2.591977 0
M  V30 33 C -0.653552 0.112375 -2.145471 0
M  V30 34 O 0.254734 0.760856 -2.742598 0
M  V30 35 C 0.807278 2.170828 0.414388 0
M  V30 36 H 3.441275 0.552865 8.005961 0
M  V30 37 H 5.295309 0.674472 8.106038 0
M  V30 38 H 4.477536 -0.847278 7.666776 0
M  V30 39 H 5.002365 2.524074 6.347104 0
M  V30 40 H 3.260481 2.159865 6.261390 0
M  V30 41 H 5.315481 1.547376 4.057795 0
M  V30 42 H 3.535462 1.266780 3.970883 0
M  V30 43 H 4.945415 3.872770 4.223833 0
M  V30 44 H 3.281373 1.403219 0.915970 0
M  V30 45 H 1.611353 2.723940 3.704387 0
M  V30 46 H -0.827089 2.849899 3.842470 0
M  V30 47 H -2.137958 2.547242 1.831517 0
M  V30 48 H -0.707661 2.553485 -1.566170 0
M  V30 49 H -2.290394 2.527756 -0.776173 0
M  V30 50 H -3.463919 1.303140 0.306228 0
M  V30 51 H -4.358873 -0.249054 0.305694 0
M  V30 52 H -2.906990 0.028351 1.423918 0
M  V30 53 H -4.042873 -2.219871 0.123202 0
M  V30 54 H -3.053109 -7.737867 -6.457558 0
M  V30 55 H -4.287805 -6.526001 -6.128762 0
M  V30 56 H -4.415617 -8.208260 -5.436465 0
M  V30 57 H -1.415875 -8.391432 -4.914557 0
M  V30 58 H -2.847373 -8.971154 -3.918356 0
M  V30 59 H -1.565784 -7.912831 -3.189692 0
M  V30 60 H -0.880227 -3.498913 -3.382356 0
M  V30 61 H 1.370250 1.988540 -0.479951 0
M  V30 END ATOM
M  V30 BEGIN BOND
M  V30 1 1 1 2
M  V30 2 1 2 3
M  V30 3 1 3 4
M  V30 4 1 4 5
M  V30 5 1 5 6
M  V30 6 2 6 7
M  V30 7 2 6 8
M  V30 8 1 6 9
M  V30 9 1 9 10
M  V30 10 2 10 11
M  V30 11 1 11 12
M  V30 12 2 12 13
M  V30 13 1 13 14
M  V30 14 1 14 15
M  V30 15 1 15 16
M  V30 16 2 16 17
M  V30 17 1 17 18
M  V30 18 1 17 19
M  V30 19 2 19 20
M  V30 20 1 20 21
M  V30 21 1 21 22
M  V30 22 2 21 23
M  V30 23 1 23 24
M  V30 24 1 24 25
M  V30 25 2 25 26
M  V30 26 1 25 27
M  V30 27 1 27 28
M  V30 28 1 27 29
M  V30 29 1 23 30
M  V30 30 2 30 31
M  V30 31 1 31 32
M  V30 32 1 32 33
M  V30 33 2 33 34
M  V30 34 2 14 35
M  V30 35 1 35 10
M  V30 36 1 33 16
M  V30 37 1 31 19
M  V30 38 1 1 36
M  V30 39 1 1 37
M  V30 40 1 1 38
M  V30 41 1 3 39
M  V30 42 1 3 40
M  V30 43 1 4 41
M  V30 44 1 4 42
M  V30 45 1 5 43
M  V30 46 1 9 44
M  V30 47 1 11 45
M  V30 48 1 12 46
M  V30 49 1 13 47
M  V30 50 1 15 48
M  V30 51 1 15 49
M  V30 52 1 18 50
M  V30 53 1 18 51
M  V30 54 1 18 52
M  V30 55 1 20 53
M  V30 56 1 28 54
M  V30 57 1 28 55
M  V30 58 1 28 56
M  V30 59 1 29 57
M  V30 60 1 29 58
M  V30 61 1 29 59
M  V30 62 1 30 60
M  V30 63 1 35 61
M  V30 END BOND
M  V30 END CTAB
M  END
>  <Dataset>  (221) 
ChEMBL_Kinases

>  <Ligand_Instance>  (221) 
nan

>  <PDB_ID>  (221) 
nan

>  <Standardized_SMILES>  (221) 
COCCNS(=O)(=O)Nc1cccc(Cc2c(C)c3cc(Cl)c(OC(=O)N(C)C)cc3oc2=O)c1

>  <Name>  (221) 
nan

>  <Pocket>  (221) 
nan

>  <ATP_Site>  (221) 
nan

>  <Peripheral>  (221) 
nan

>  <Num_H_Atoms_ProtBoundConf>  (221) 
nan

>  <Num_Resolved_Atoms>  (221) 
nan

>  <Num_Not_Resolved_Atoms>  (221) 
nan

$$$$
CHEMBL216769
     RDKit          3D

  0  0  0  0  0  0  0  0  0  0999 V3000
M  V30 BEGIN CTAB
M  V30 COUNTS 75 79 0 0 0
M  V30 BEGIN ATOM
M  V30 1 C -1.764259 5.422983 -0.437307 0
M  V30 2 O -0.848706 4.841123 0.434773 0
M  V30 3 C 0.006685 3.805391 0.038833 0
M  V30 4 C -0.161061 3.433708 -1.301488 0
M  V30 5 C 0.657736 2.421524 -1.734567 0
M  V30 6 C 0.550519 2.010769 -3.044960 0
M  V30 7 N -0.370040 2.535501 -3.997446 0
M  V30 8 C -1.449770 1.590023 -3.925043 0
M  V30 9 C -1.405093 0.475306 -4.771261 0
M  V30 10 C -2.516615 -0.354046 -4.583424 0
M  V30 11 C -2.784482 -1.619152 -5.307866 0
M  V30 12 C -2.126698 -2.748933 -4.610965 0
M  V30 13 O -1.539414 -2.286756 -3.605960 0
M  V30 14 N -2.096425 -4.118995 -4.923944 0
M  V30 15 C -1.448693 -5.158041 -4.221256 0
M  V30 16 C -1.553044 -6.431721 -4.717961 0
M  V30 17 C -0.961689 -7.510518 -4.111715 0
M  V30 18 C -0.223974 -7.376587 -2.962311 0
M  V30 19 C -0.108636 -6.124797 -2.455494 0
M  V30 20 F 0.608825 -5.930612 -1.320397 0
M  V30 21 C -0.708114 -5.033038 -3.070034 0
M  V30 22 N -3.199132 0.313337 -3.609482 0
M  V30 23 N -2.589488 1.414340 -3.240530 0
M  V30 24 N 1.325592 1.030733 -3.537887 0
M  V30 25 C 2.248372 0.401334 -2.765930 0
M  V30 26 N 2.374437 0.789026 -1.461800 0
M  V30 27 C 1.599131 1.769704 -0.968824 0
M  V30 28 C 1.673413 2.219340 0.328920 0
M  V30 29 C 0.931773 3.213332 0.912196 0
M  V30 30 O 0.897302 3.723845 2.098361 0
M  V30 31 C 1.246288 3.842043 3.369185 0
M  V30 32 C 0.990304 2.676835 4.290873 0
M  V30 33 C 1.669937 1.408514 3.906008 0
M  V30 34 N 1.442927 0.323493 4.851264 0
M  V30 35 C 2.134902 -0.876465 4.420275 0
M  V30 36 C 1.496798 -1.590495 3.281651 0
M  V30 37 C 0.008550 -1.620608 3.275241 0
M  V30 38 C -0.446357 -1.672596 1.810889 0
M  V30 39 O -0.001600 -0.566816 1.110032 0
M  V30 40 C -0.664563 -0.431281 3.873115 0
M  V30 41 C 0.071025 0.025981 5.093916 0
M  V30 42 H -2.292497 6.225642 0.155769 0
M  V30 43 H -1.245791 5.833462 -1.311211 0
M  V30 44 H -2.512696 4.625500 -0.700718 0
M  V30 45 H -0.874678 3.894085 -1.964748 0
M  V30 46 H -0.259049 3.392064 -4.582382 0
M  V30 47 H -0.646116 0.217127 -5.503532 0
M  V30 48 H -3.858961 -1.797418 -5.401003 0
M  V30 49 H -2.375166 -1.470843 -6.336058 0
M  V30 50 H -2.639828 -4.307882 -5.789906 0
M  V30 51 H -2.135503 -6.592082 -5.640012 0
M  V30 52 H -1.096985 -8.466980 -4.571590 0
M  V30 53 H 0.250034 -8.201920 -2.465534 0
M  V30 54 H -0.578736 -4.074924 -2.619494 0
M  V30 55 H -4.095948 -0.040359 -3.227387 0
M  V30 56 H 2.919204 -0.389344 -3.048771 0
M  V30 57 H 2.406552 1.748740 0.969204 0
M  V30 58 H 2.323248 4.204102 3.537186 0
M  V30 59 H 0.602380 4.682687 3.830780 0
M  V30 60 H -0.126375 2.507700 4.317155 0
M  V30 61 H 1.217620 2.963836 5.363402 0
M  V30 62 H 2.747321 1.571587 3.808769 0
M  V30 63 H 1.281001 1.116518 2.900923 0
M  V30 64 H 3.128171 -0.495699 4.030188 0
M  V30 65 H 2.376180 -1.523788 5.270080 0
M  V30 66 H 1.830359 -2.667115 3.363731 0
M  V30 67 H 1.921105 -1.263542 2.303905 0
M  V30 68 H -0.405550 -2.546592 3.747843 0
M  V30 69 H -1.556854 -1.711543 1.765127 0
M  V30 70 H -0.029646 -2.572724 1.309965 0
M  V30 71 H 0.627669 -0.800474 0.377677 0
M  V30 72 H -0.828659 0.331903 3.109914 0
M  V30 73 H -1.690249 -0.757441 4.199529 0
M  V30 74 H 0.048614 -0.825124 5.806677 0
M  V30 75 H -0.467791 0.847285 5.613365 0
M  V30 END ATOM
M  V30 BEGIN BOND
M  V30 1 1 1 2
M  V30 2 1 2 3
M  V30 3 2 3 4
M  V30 4 1 4 5
M  V30 5 2 5 6
M  V30 6 1 6 7
M  V30 7 1 7 8
M  V30 8 1 8 9
M  V30 9 2 9 10
M  V30 10 1 10 11
M  V30 11 1 11 12
M  V30 12 2 12 13
M  V30 13 1 12 14
M  V30 14 1 14 15
M  V30 15 2 15 16
M  V30 16 1 16 17
M  V30 17 2 17 18
M  V30 18 1 18 19
M  V30 19 1 19 20
M  V30 20 2 19 21
M  V30 21 1 10 22
M  V30 22 1 22 23
M  V30 23 1 6 24
M  V30 24 2 24 25
M  V30 25 1 25 26
M  V30 26 2 26 27
M  V30 27 1 27 28
M  V30 28 2 28 29
M  V30 29 1 29 30
M  V30 30 1 30 31
M  V30 31 1 31 32
M  V30 32 1 32 33
M  V30 33 1 33 34
M  V30 34 1 34 35
M  V30 35 1 35 36
M  V30 36 1 36 37
M  V30 37 1 37 38
M  V30 38 1 38 39
M  V30 39 1 37 40
M  V30 40 1 40 41
M  V30 41 1 29 3
M  V30 42 1 41 34
M  V30 43 1 27 5
M  V30 44 2 23 8
M  V30 45 1 21 15
M  V30 46 1 1 42
M  V30 47 1 1 43
M  V30 48 1 1 44
M  V30 49 1 4 45
M  V30 50 1 7 46
M  V30 51 1 9 47
M  V30 52 1 11 48
M  V30 53 1 11 49
M  V30 54 1 14 50
M  V30 55 1 16 51
M  V30 56 1 17 52
M  V30 57 1 18 53
M  V30 58 1 21 54
M  V30 59 1 22 55
M  V30 60 1 25 56
M  V30 61 1 28 57
M  V30 62 1 31 58
M  V30 63 1 31 59
M  V30 64 1 32 60
M  V30 65 1 32 61
M  V30 66 1 33 62
M  V30 67 1 33 63
M  V30 68 1 35 64
M  V30 69 1 35 65
M  V30 70 1 36 66
M  V30 71 1 36 67
M  V30 72 1 37 68
M  V30 73 1 38 69
M  V30 74 1 38 70
M  V30 75 1 39 71
M  V30 76 1 40 72
M  V30 77 1 40 73
M  V30 78 1 41 74
M  V30 79 1 41 75
M  V30 END BOND
M  V30 END CTAB
M  END
>  <Dataset>  (222) 
ChEMBL_Kinases

>  <Ligand_Instance>  (222) 
nan

>  <PDB_ID>  (222) 
nan

>  <Standardized_SMILES>  (222) 
COc1cc2c(Nc3cc(CC(=O)Nc4cccc(F)c4)[nH]n3)ncnc2cc1OCCCN1CCC(CO)CC1

>  <Name>  (222) 
nan

>  <Pocket>  (222) 
nan

>  <ATP_Site>  (222) 
nan

>  <Peripheral>  (222) 
nan

>  <Num_H_Atoms_ProtBoundConf>  (222) 
nan

>  <Num_Resolved_Atoms>  (222) 
nan

>  <Num_Not_Resolved_Atoms>  (222) 
nan

$$$$
CHEMBL3086072
     RDKit          3D

  0  0  0  0  0  0  0  0  0  0999 V3000
M  V30 BEGIN CTAB
M  V30 COUNTS 59 61 0 0 0
M  V30 BEGIN ATOM
M  V30 1 C -1.088141 0.180541 0.861430 0
M  V30 2 C -1.467138 1.188201 -0.125098 0
M  V30 3 C -0.781584 2.359190 -0.160722 0
M  V30 4 C 0.398224 2.718253 0.663331 0
M  V30 5 C 1.644517 2.117818 0.140931 0
M  V30 6 C 2.321644 2.857499 -0.839111 0
M  V30 7 C 3.475186 2.498207 -1.463456 0
M  V30 8 C 4.006965 1.290233 -1.077956 0
M  V30 9 C 3.429101 0.469774 -0.118839 0
M  V30 10 N 4.017596 -0.761271 0.251748 0
M  V30 11 S 4.442232 -1.608161 1.679125 0
M  V30 12 O 5.099753 -2.902708 1.292226 0
M  V30 13 O 5.386795 -0.785890 2.548817 0
M  V30 14 N 3.037836 -1.929942 2.621376 0
M  V30 15 C 3.049424 -1.173063 3.861330 0
M  V30 16 C 1.785718 -1.523108 4.621112 0
M  V30 17 N 1.800354 -2.951352 4.882806 0
M  V30 18 C 2.266582 0.932673 0.445292 0
M  V30 19 C -1.256838 3.268462 -1.120882 0
M  V30 20 O -0.739230 4.417425 -1.294429 0
M  V30 21 O -2.282888 3.022616 -1.933995 0
M  V30 22 C -2.929514 1.885983 -1.885363 0
M  V30 23 C -3.977438 1.708949 -2.761630 0
M  V30 24 C -4.676419 0.521417 -2.735598 0
M  V30 25 O -5.775719 0.127597 -3.537259 0
M  V30 26 C -5.609241 -0.496781 -4.762675 0
M  V30 27 O -5.757570 0.072171 -3.646008 0
M  V30 28 N -5.057263 -1.078752 -5.944886 0
M  V30 29 C -3.671770 -1.228136 -6.353203 0
M  V30 30 C -6.037051 -1.588317 -6.885193 0
M  V30 31 C -4.325456 -0.491742 -1.829355 0
M  V30 32 Cl -5.153129 -2.036846 -1.717575 0
M  V30 33 C -3.263523 -0.217131 -0.995485 0
M  V30 34 C -2.520834 0.942487 -0.964923 0
M  V30 35 H -2.032507 -0.277376 1.276227 0
M  V30 36 H -0.497864 -0.623437 0.391195 0
M  V30 37 H -0.471932 0.586789 1.693803 0
M  V30 38 H 0.247048 2.493767 1.738417 0
M  V30 39 H 0.495906 3.819416 0.619854 0
M  V30 40 H 1.924143 3.826109 -1.166321 0
M  V30 41 H 3.954129 3.110712 -2.212760 0
M  V30 42 H 4.936419 0.946396 -1.552963 0
M  V30 43 H 4.227520 -1.256202 -0.671627 0
M  V30 44 H 2.150568 -1.840258 2.108335 0
M  V30 45 H 3.897738 -1.541843 4.484073 0
M  V30 46 H 3.181013 -0.084622 3.699179 0
M  V30 47 H 0.884378 -1.275289 4.045963 0
M  V30 48 H 1.803680 -0.957143 5.595030 0
M  V30 49 H 1.996370 -3.193417 5.858828 0
M  V30 50 H 1.029009 -3.465405 4.418464 0
M  V30 51 H 1.787362 0.335102 1.196576 0
M  V30 52 H -4.329471 2.414914 -3.495722 0
M  V30 53 H -3.418615 -2.249310 -6.650338 0
M  V30 54 H -3.006118 -0.839984 -5.529166 0
M  V30 55 H -3.513631 -0.514808 -7.212238 0
M  V30 56 H -5.785450 -1.099133 -7.874649 0
M  V30 57 H -7.067147 -1.305312 -6.675410 0
M  V30 58 H -5.909761 -2.670459 -7.058659 0
M  V30 59 H -2.988036 -1.011400 -0.294210 0
M  V30 END ATOM
M  V30 BEGIN BOND
M  V30 1 1 1 2
M  V30 2 2 2 3
M  V30 3 1 3 4
M  V30 4 1 4 5
M  V30 5 2 5 6
M  V30 6 1 6 7
M  V30 7 2 7 8
M  V30 8 1 8 9
M  V30 9 1 9 10
M  V30 10 1 10 11
M  V30 11 2 11 12
M  V30 12 2 11 13
M  V30 13 1 11 14
M  V30 14 1 14 15
M  V30 15 1 15 16
M  V30 16 1 16 17
M  V30 17 2 9 18
M  V30 18 1 3 19
M  V30 19 2 19 20
M  V30 20 1 19 21
M  V30 21 1 21 22
M  V30 22 2 22 23
M  V30 23 1 23 24
M  V30 24 1 24 25
M  V30 25 1 25 26
M  V30 26 2 26 27
M  V30 27 1 26 28
M  V30 28 1 28 29
M  V30 29 1 28 30
M  V30 30 2 24 31
M  V30 31 1 31 32
M  V30 32 1 31 33
M  V30 33 2 33 34
M  V30 34 1 34 2
M  V30 35 1 18 5
M  V30 36 1 34 22
M  V30 37 1 1 35
M  V30 38 1 1 36
M  V30 39 1 1 37
M  V30 40 1 4 38
M  V30 41 1 4 39
M  V30 42 1 6 40
M  V30 43 1 7 41
M  V30 44 1 8 42
M  V30 45 1 10 43
M  V30 46 1 14 44
M  V30 47 1 15 45
M  V30 48 1 15 46
M  V30 49 1 16 47
M  V30 50 1 16 48
M  V30 51 1 17 49
M  V30 52 1 17 50
M  V30 53 1 18 51
M  V30 54 1 23 52
M  V30 55 1 29 53
M  V30 56 1 29 54
M  V30 57 1 29 55
M  V30 58 1 30 56
M  V30 59 1 30 57
M  V30 60 1 30 58
M  V30 61 1 33 59
M  V30 END BOND
M  V30 END CTAB
M  END
>  <Dataset>  (223) 
ChEMBL_Kinases

>  <Ligand_Instance>  (223) 
nan

>  <PDB_ID>  (223) 
nan

>  <Standardized_SMILES>  (223) 
Cc1c(Cc2cccc(NS(=O)(=O)NCCN)c2)c(=O)oc2cc(OC(=O)N(C)C)c(Cl)cc12

>  <Name>  (223) 
nan

>  <Pocket>  (223) 
nan

>  <ATP_Site>  (223) 
nan

>  <Peripheral>  (223) 
nan

>  <Num_H_Atoms_ProtBoundConf>  (223) 
nan

>  <Num_Resolved_Atoms>  (223) 
nan

>  <Num_Not_Resolved_Atoms>  (223) 
nan

$$$$
CHEMBL3701754
     RDKit          3D

  0  0  0  0  0  0  0  0  0  0999 V3000
M  V30 BEGIN CTAB
M  V30 COUNTS 52 57 0 0 0
M  V30 BEGIN ATOM
M  V30 1 N -2.822412 -3.513791 4.215208 0
M  V30 2 C -1.830289 -4.063036 3.293599 0
M  V30 3 C -1.337255 -3.091649 2.285342 0
M  V30 4 C -1.024713 -3.313435 0.961178 0
M  V30 5 C -0.575230 -2.281000 0.164713 0
M  V30 6 C -0.432520 -1.008654 0.686317 0
M  V30 7 C 0.043754 0.073639 -0.168841 0
M  V30 8 N -0.780202 0.331092 -1.226250 0
M  V30 9 C -0.259042 1.339800 -1.951364 0
M  V30 10 N 0.891076 1.713336 -1.347489 0
M  V30 11 C 1.096797 0.953211 -0.255428 0
M  V30 12 C 2.109717 0.856088 0.783725 0
M  V30 13 C 2.896538 -0.241543 1.018786 0
M  V30 14 C 3.824985 -0.209721 2.037795 0
M  V30 15 C 3.985741 0.895805 2.829005 0
M  V30 16 C 3.182824 2.014168 2.588126 0
M  V30 17 C 2.246379 1.988748 1.564103 0
M  V30 18 C 1.764140 2.764069 -1.802236 0
M  V30 19 O 1.311466 3.402361 -2.970523 0
M  V30 20 C 0.143829 3.076167 -3.646649 0
M  V30 21 N -0.180408 3.772609 -4.769052 0
M  V30 22 C -1.326748 3.458264 -5.439984 0
M  V30 23 C -2.122546 2.436705 -4.951607 0
M  V30 24 C -1.815826 1.716125 -3.816346 0
M  V30 25 C -0.649297 2.057941 -3.159772 0
M  V30 26 C -0.740475 -0.763661 2.012930 0
M  V30 27 C -1.191759 -1.805141 2.808333 0
M  V30 28 C -0.742178 -4.758314 4.078509 0
M  V30 29 C -1.089164 -6.050503 3.395504 0
M  V30 30 C -2.288031 -5.387923 2.791423 0
M  V30 31 H -3.503821 -2.967591 3.638714 0
M  V30 32 H -2.389033 -2.882370 4.905276 0
M  V30 33 H -1.164629 -4.328645 0.640848 0
M  V30 34 H -0.347699 -2.526527 -0.868655 0
M  V30 35 H 2.753269 -1.092405 0.389029 0
M  V30 36 H 4.437105 -1.086572 2.207412 0
M  V30 37 H 4.704545 0.967812 3.644938 0
M  V30 38 H 3.307563 2.892746 3.213712 0
M  V30 39 H 1.655159 2.881273 1.425009 0
M  V30 40 H 1.904401 3.568199 -1.041566 0
M  V30 41 H 2.786750 2.365203 -2.046778 0
M  V30 42 H -1.634842 3.973753 -6.333184 0
M  V30 43 H -3.062075 2.111652 -5.421654 0
M  V30 44 H -2.430155 0.918114 -3.427303 0
M  V30 45 H -0.604691 0.256790 2.353337 0
M  V30 46 H -1.394266 -1.465132 3.826940 0
M  V30 47 H -0.952746 -4.857730 5.169362 0
M  V30 48 H 0.277143 -4.357786 3.923291 0
M  V30 49 H -1.313067 -6.913052 4.088142 0
M  V30 50 H -0.307206 -6.405506 2.696435 0
M  V30 51 H -3.212920 -5.792653 3.288416 0
M  V30 52 H -2.433595 -5.517870 1.702911 0
M  V30 END ATOM
M  V30 BEGIN BOND
M  V30 1 1 1 2
M  V30 2 1 2 3
M  V30 3 2 3 4
M  V30 4 1 4 5
M  V30 5 2 5 6
M  V30 6 1 6 7
M  V30 7 1 7 8
M  V30 8 2 8 9
M  V30 9 1 9 10
M  V30 10 1 10 11
M  V30 11 1 11 12
M  V30 12 2 12 13
M  V30 13 1 13 14
M  V30 14 2 14 15
M  V30 15 1 15 16
M  V30 16 2 16 17
M  V30 17 1 10 18
M  V30 18 1 18 19
M  V30 19 1 19 20
M  V30 20 2 20 21
M  V30 21 1 21 22
M  V30 22 2 22 23
M  V30 23 1 23 24
M  V30 24 2 24 25
M  V30 25 1 6 26
M  V30 26 2 26 27
M  V30 27 1 2 28
M  V30 28 1 28 29
M  V30 29 1 29 30
M  V30 30 1 30 2
M  V30 31 1 27 3
M  V30 32 2 11 7
M  V30 33 1 17 12
M  V30 34 1 25 20
M  V30 35 1 25 9
M  V30 36 1 1 31
M  V30 37 1 1 32
M  V30 38 1 4 33
M  V30 39 1 5 34
M  V30 40 1 13 35
M  V30 41 1 14 36
M  V30 42 1 15 37
M  V30 43 1 16 38
M  V30 44 1 17 39
M  V30 45 1 18 40
M  V30 46 1 18 41
M  V30 47 1 22 42
M  V30 48 1 23 43
M  V30 49 1 24 44
M  V30 50 1 26 45
M  V30 51 1 27 46
M  V30 52 1 28 47
M  V30 53 1 28 48
M  V30 54 1 29 49
M  V30 55 1 29 50
M  V30 56 1 30 51
M  V30 57 1 30 52
M  V30 END BOND
M  V30 END CTAB
M  END
>  <Dataset>  (224) 
ChEMBL_Kinases

>  <Ligand_Instance>  (224) 
nan

>  <PDB_ID>  (224) 
nan

>  <Standardized_SMILES>  (224) 
NC1(c2ccc(-c3nc4n(c3-c3ccccc3)COc3ncccc3-4)cc2)CCC1

>  <Name>  (224) 
nan

>  <Pocket>  (224) 
nan

>  <ATP_Site>  (224) 
nan

>  <Peripheral>  (224) 
nan

>  <Num_H_Atoms_ProtBoundConf>  (224) 
nan

>  <Num_Resolved_Atoms>  (224) 
nan

>  <Num_Not_Resolved_Atoms>  (224) 
nan

$$$$
CHEMBL3087777
     RDKit          3D

  0  0  0  0  0  0  0  0  0  0999 V3000
M  V30 BEGIN CTAB
M  V30 COUNTS 46 49 0 0 0
M  V30 BEGIN ATOM
M  V30 1 C 2.871278 -4.763364 2.241842 0
M  V30 2 C 1.822684 -4.581037 1.183500 0
M  V30 3 O 0.825074 -5.342443 1.070658 0
M  V30 4 N 2.000061 -3.488640 0.288339 0
M  V30 5 C 0.995186 -3.318038 -0.721929 0 CFG=2
M  V30 6 C 1.681435 -3.285446 -2.066184 0
M  V30 7 C 2.407139 -1.952466 -1.994307 0
M  V30 8 N 1.582435 -1.134528 -1.160413 0
M  V30 9 C 1.769272 0.238376 -0.843452 0
M  V30 10 C 2.821733 0.993594 -1.315127 0
M  V30 11 Cl 4.021168 0.264963 -2.360156 0
M  V30 12 C 3.043248 2.326006 -1.038470 0
M  V30 13 N 2.144000 2.955950 -0.226902 0
M  V30 14 C 1.088813 2.287013 0.274256 0
M  V30 15 N 0.075501 2.652530 1.077546 0
M  V30 16 C -0.750973 1.619047 1.306201 0
M  V30 17 C -1.970448 1.518959 2.099852 0
M  V30 18 C -2.765096 0.388750 2.276295 0
M  V30 19 N -3.802113 0.683291 3.072622 0
M  V30 20 C -4.811816 -0.304123 3.440338 0
M  V30 21 N -3.706947 1.938309 3.409684 0
M  V30 22 C -2.599570 2.496313 2.838455 0
M  V30 23 C -2.171150 3.908731 3.000165 0
M  V30 24 N -0.217089 0.595363 0.616791 0
M  V30 25 C 0.905779 0.953504 -0.028858 0
M  V30 26 C 0.470135 -1.904131 -0.641384 0
M  V30 27 H 3.883555 -4.816187 1.826800 0
M  V30 28 H 2.613229 -5.715909 2.756287 0
M  V30 29 H 2.788931 -3.949109 3.012679 0
M  V30 30 H 2.783100 -2.797740 0.287712 0
M  V30 31 H 0.191890 -4.076450 -0.673801 0
M  V30 32 H 2.384087 -4.124009 -2.229025 0
M  V30 33 H 0.926158 -3.326619 -2.869938 0
M  V30 34 H 3.439598 -2.100529 -1.648298 0
M  V30 35 H 2.469628 -1.609849 -3.060348 0
M  V30 36 H 3.879995 2.890137 -1.425117 0
M  V30 37 H -0.041922 3.599399 1.460378 0
M  V30 38 H -2.526525 -0.569634 1.808180 0
M  V30 39 H -4.457737 -0.893667 4.306223 0
M  V30 40 H -4.948006 -1.012047 2.603950 0
M  V30 41 H -5.777656 0.207655 3.615657 0
M  V30 42 H -2.920499 4.449642 3.651142 0
M  V30 43 H -2.194625 4.471459 2.026156 0
M  V30 44 H -1.191804 4.017555 3.514183 0
M  V30 45 H 0.251907 -1.712886 0.427515 0
M  V30 46 H -0.394747 -1.724161 -1.301796 0
M  V30 END ATOM
M  V30 BEGIN BOND
M  V30 1 1 1 2
M  V30 2 2 2 3
M  V30 3 1 2 4
M  V30 4 1 4 5
M  V30 5 1 5 6
M  V30 6 1 6 7
M  V30 7 1 7 8
M  V30 8 1 8 9
M  V30 9 2 9 10
M  V30 10 1 10 11
M  V30 11 1 10 12
M  V30 12 2 12 13
M  V30 13 1 13 14
M  V30 14 1 14 15
M  V30 15 1 15 16
M  V30 16 1 16 17
M  V30 17 2 17 18
M  V30 18 1 18 19
M  V30 19 1 19 20
M  V30 20 1 19 21
M  V30 21 2 21 22
M  V30 22 1 22 23
M  V30 23 2 16 24
M  V30 24 1 24 25
M  V30 25 1 8 26
M  V30 26 1 26 5
M  V30 27 1 25 9
M  V30 28 2 25 14
M  V30 29 1 22 17
M  V30 30 1 1 27
M  V30 31 1 1 28
M  V30 32 1 1 29
M  V30 33 1 4 30
M  V30 34 1 5 31 CFG=3
M  V30 35 1 6 32
M  V30 36 1 6 33
M  V30 37 1 7 34
M  V30 38 1 7 35
M  V30 39 1 12 36
M  V30 40 1 15 37
M  V30 41 1 18 38
M  V30 42 1 20 39
M  V30 43 1 20 40
M  V30 44 1 20 41
M  V30 45 1 23 42
M  V30 46 1 23 43
M  V30 47 1 23 44
M  V30 48 1 26 45
M  V30 49 1 26 46
M  V30 END BOND
M  V30 END CTAB
M  END
>  <Dataset>  (225) 
ChEMBL_Kinases

>  <Ligand_Instance>  (225) 
nan

>  <PDB_ID>  (225) 
nan

>  <Standardized_SMILES>  (225) 
CC(=O)N[C@@H]1CCN(c2c(Cl)cnc3[nH]c(-c4cn(C)nc4C)nc23)C1

>  <Name>  (225) 
nan

>  <Pocket>  (225) 
nan

>  <ATP_Site>  (225) 
nan

>  <Peripheral>  (225) 
nan

>  <Num_H_Atoms_ProtBoundConf>  (225) 
nan

>  <Num_Resolved_Atoms>  (225) 
nan

>  <Num_Not_Resolved_Atoms>  (225) 
nan

$$$$
CHEMBL3087778
     RDKit          3D

  0  0  0  0  0  0  0  0  0  0999 V3000
M  V30 BEGIN CTAB
M  V30 COUNTS 49 52 0 0 0
M  V30 BEGIN ATOM
M  V30 1 C 3.951434 -4.356394 2.889940 0
M  V30 2 C 3.354600 -3.817359 1.631837 0
M  V30 3 O 3.959479 -4.158649 0.596296 0
M  V30 4 N 2.204249 -2.994105 1.637904 0
M  V30 5 C 1.637732 -2.479828 0.421116 0
M  V30 6 C 2.628549 -1.607227 -0.342848 0 CFG=2
M  V30 7 C 3.046089 -0.436062 0.506956 0
M  V30 8 C 2.845221 0.776902 -0.385880 0
M  V30 9 N 1.719678 0.394285 -1.234475 0
M  V30 10 C 0.535188 1.030375 -1.755777 0
M  V30 11 C 0.575551 1.681886 -2.971785 0
M  V30 12 Cl 2.053850 1.762383 -3.923622 0
M  V30 13 C -0.609066 2.274771 -3.413871 0
M  V30 14 N -1.731951 2.204413 -2.674001 0
M  V30 15 C -1.781155 1.571161 -1.486650 0
M  V30 16 N -2.716541 1.337142 -0.548870 0
M  V30 17 C -2.232164 0.631408 0.481003 0
M  V30 18 C -2.880417 0.159568 1.698474 0
M  V30 19 C -2.257025 -0.578524 2.711457 0
M  V30 20 N -3.141336 -0.847622 3.685863 0
M  V30 21 C -2.908169 -1.592243 4.923231 0
M  V30 22 N -4.295305 -0.312319 3.333247 0
M  V30 23 C -4.182134 0.313419 2.125181 0
M  V30 24 C -5.251465 1.022101 1.408800 0
M  V30 25 N -0.941894 0.421003 0.164644 0
M  V30 26 C -0.631252 0.973749 -1.017377 0
M  V30 27 C 2.005119 -0.982602 -1.546693 0
M  V30 28 H 4.199269 -5.439560 2.726551 0
M  V30 29 H 3.212202 -4.303935 3.738111 0
M  V30 30 H 4.857605 -3.769385 3.144161 0
M  V30 31 H 1.780849 -2.774597 2.575834 0
M  V30 32 H 0.769541 -1.820933 0.620718 0
M  V30 33 H 1.259746 -3.297953 -0.204628 0
M  V30 34 H 3.521126 -2.197456 -0.582644 0
M  V30 35 H 2.425935 -0.340008 1.416050 0
M  V30 36 H 4.092753 -0.541135 0.841495 0
M  V30 37 H 2.643527 1.700304 0.180926 0
M  V30 38 H 3.762954 0.911450 -0.996559 0
M  V30 39 H -0.628847 2.804192 -4.373392 0
M  V30 40 H -3.676057 1.678124 -0.651830 0
M  V30 41 H -1.215280 -0.899600 2.732656 0
M  V30 42 H -3.729252 -2.319034 5.076546 0
M  V30 43 H -1.949481 -2.152240 4.840252 0
M  V30 44 H -2.825308 -0.892458 5.787789 0
M  V30 45 H -5.006713 2.101463 1.285323 0
M  V30 46 H -5.509156 0.584996 0.419604 0
M  V30 47 H -6.174136 1.002382 2.060694 0
M  V30 48 H 1.120781 -1.560497 -1.873056 0
M  V30 49 H 2.703973 -0.973200 -2.433104 0
M  V30 END ATOM
M  V30 BEGIN BOND
M  V30 1 1 1 2
M  V30 2 2 2 3
M  V30 3 1 2 4
M  V30 4 1 4 5
M  V30 5 1 5 6
M  V30 6 1 6 7
M  V30 7 1 7 8
M  V30 8 1 8 9
M  V30 9 1 9 10
M  V30 10 2 10 11
M  V30 11 1 11 12
M  V30 12 1 11 13
M  V30 13 2 13 14
M  V30 14 1 14 15
M  V30 15 1 15 16
M  V30 16 1 16 17
M  V30 17 1 17 18
M  V30 18 2 18 19
M  V30 19 1 19 20
M  V30 20 1 20 21
M  V30 21 1 20 22
M  V30 22 2 22 23
M  V30 23 1 23 24
M  V30 24 2 17 25
M  V30 25 1 25 26
M  V30 26 1 9 27
M  V30 27 1 27 6
M  V30 28 1 26 10
M  V30 29 2 26 15
M  V30 30 1 23 18
M  V30 31 1 1 28
M  V30 32 1 1 29
M  V30 33 1 1 30
M  V30 34 1 4 31
M  V30 35 1 5 32
M  V30 36 1 5 33
M  V30 37 1 6 34 CFG=3
M  V30 38 1 7 35
M  V30 39 1 7 36
M  V30 40 1 8 37
M  V30 41 1 8 38
M  V30 42 1 13 39
M  V30 43 1 16 40
M  V30 44 1 19 41
M  V30 45 1 21 42
M  V30 46 1 21 43
M  V30 47 1 21 44
M  V30 48 1 24 45
M  V30 49 1 24 46
M  V30 50 1 24 47
M  V30 51 1 27 48
M  V30 52 1 27 49
M  V30 END BOND
M  V30 END CTAB
M  END
>  <Dataset>  (226) 
ChEMBL_Kinases

>  <Ligand_Instance>  (226) 
nan

>  <PDB_ID>  (226) 
nan

>  <Standardized_SMILES>  (226) 
CC(=O)NC[C@@H]1CCN(c2c(Cl)cnc3[nH]c(-c4cn(C)nc4C)nc23)C1

>  <Name>  (226) 
nan

>  <Pocket>  (226) 
nan

>  <ATP_Site>  (226) 
nan

>  <Peripheral>  (226) 
nan

>  <Num_H_Atoms_ProtBoundConf>  (226) 
nan

>  <Num_Resolved_Atoms>  (226) 
nan

>  <Num_Not_Resolved_Atoms>  (226) 
nan

$$$$
CHEMBL3087779
     RDKit          3D

  0  0  0  0  0  0  0  0  0  0999 V3000
M  V30 BEGIN CTAB
M  V30 COUNTS 53 56 0 0 0
M  V30 BEGIN ATOM
M  V30 1 C 3.512337 -0.541347 2.410234 0
M  V30 2 C 4.437417 -1.632009 1.983080 0
M  V30 3 N 5.649321 -2.047552 2.407059 0
M  V30 4 N 6.036903 -3.078499 1.670869 0
M  V30 5 C 7.298109 -3.799211 1.832276 0
M  V30 6 C 5.104806 -3.374483 0.747198 0
M  V30 7 C 4.076109 -2.465139 0.927652 0
M  V30 8 C 2.874799 -2.512304 0.061795 0
M  V30 9 N 1.860065 -1.648349 0.207984 0
M  V30 10 C 0.872480 -1.862917 -0.674536 0
M  V30 11 C -0.346347 -1.263938 -0.920707 0
M  V30 12 N -0.827230 -0.149287 -0.186939 0
M  V30 13 C 0.130867 0.298502 0.802125 0
M  V30 14 C -0.307859 1.469538 1.610833 0
M  V30 15 C -1.785326 1.333876 1.896551 0
M  V30 16 C -2.467071 1.521226 0.557198 0 CFG=2
M  V30 17 C -3.937805 1.708467 0.784638 0
M  V30 18 N -4.579956 0.616723 1.441273 0
M  V30 19 S -6.261284 1.026093 1.609508 0
M  V30 20 C -6.934080 1.233941 -0.018948 0
M  V30 21 O -6.322570 2.355405 2.310945 0
M  V30 22 O -6.963085 -0.045447 2.393775 0
M  V30 23 C -2.111304 0.429137 -0.410439 0
M  V30 24 C -1.021852 -1.860232 -1.956734 0
M  V30 25 Cl -2.576272 -1.306756 -2.494852 0
M  V30 26 C -0.571694 -2.934618 -2.692160 0
M  V30 27 N 0.641786 -3.474557 -2.392333 0
M  V30 28 C 1.354088 -2.950184 -1.401305 0
M  V30 29 N 2.559510 -3.334915 -0.952119 0
M  V30 30 H 3.932732 0.009638 3.268263 0
M  V30 31 H 3.321521 0.193935 1.595375 0
M  V30 32 H 2.515383 -0.994433 2.677127 0
M  V30 33 H 7.252430 -4.589270 2.585763 0
M  V30 34 H 7.606921 -4.161013 0.824793 0
M  V30 35 H 8.051842 -3.004191 2.084059 0
M  V30 36 H 5.193916 -4.167075 0.038636 0
M  V30 37 H 0.260498 -0.542147 1.525268 0
M  V30 38 H 1.118069 0.528127 0.326104 0
M  V30 39 H -0.112839 2.445742 1.120520 0
M  V30 40 H 0.206804 1.414889 2.611600 0
M  V30 41 H -1.996363 0.292179 2.245324 0
M  V30 42 H -2.107781 2.110750 2.607714 0
M  V30 43 H -2.089841 2.504166 0.176988 0
M  V30 44 H -4.469032 2.046314 -0.131058 0
M  V30 45 H -4.021265 2.590128 1.483624 0
M  V30 46 H -4.448966 -0.303619 1.016866 0
M  V30 47 H -6.711502 2.274454 -0.338526 0
M  V30 48 H -6.356755 0.577897 -0.705608 0
M  V30 49 H -8.025917 1.028114 -0.044975 0
M  V30 50 H -2.129387 0.898415 -1.411943 0
M  V30 51 H -2.883910 -0.360224 -0.255300 0
M  V30 52 H -1.093376 -3.411197 -3.507564 0
M  V30 53 H 3.178024 -4.106727 -1.279369 0
M  V30 END ATOM
M  V30 BEGIN BOND
M  V30 1 1 1 2
M  V30 2 2 2 3
M  V30 3 1 3 4
M  V30 4 1 4 5
M  V30 5 1 4 6
M  V30 6 2 6 7
M  V30 7 1 7 8
M  V30 8 2 8 9
M  V30 9 1 9 10
M  V30 10 2 10 11
M  V30 11 1 11 12
M  V30 12 1 12 13
M  V30 13 1 13 14
M  V30 14 1 14 15
M  V30 15 1 15 16
M  V30 16 1 16 17
M  V30 17 1 17 18
M  V30 18 1 18 19
M  V30 19 1 19 20
M  V30 20 2 19 21
M  V30 21 2 19 22
M  V30 22 1 16 23
M  V30 23 1 11 24
M  V30 24 1 24 25
M  V30 25 2 24 26
M  V30 26 1 26 27
M  V30 27 2 27 28
M  V30 28 1 28 29
M  V30 29 1 7 2
M  V30 30 1 29 8
M  V30 31 1 28 10
M  V30 32 1 23 12
M  V30 33 1 1 30
M  V30 34 1 1 31
M  V30 35 1 1 32
M  V30 36 1 5 33
M  V30 37 1 5 34
M  V30 38 1 5 35
M  V30 39 1 6 36
M  V30 40 1 13 37
M  V30 41 1 13 38
M  V30 42 1 14 39
M  V30 43 1 14 40
M  V30 44 1 15 41
M  V30 45 1 15 42
M  V30 46 1 16 43 CFG=3
M  V30 47 1 17 44
M  V30 48 1 17 45
M  V30 49 1 18 46
M  V30 50 1 20 47
M  V30 51 1 20 48
M  V30 52 1 20 49
M  V30 53 1 23 50
M  V30 54 1 23 51
M  V30 55 1 26 52
M  V30 56 1 29 53
M  V30 END BOND
M  V30 END CTAB
M  END
>  <Dataset>  (227) 
ChEMBL_Kinases

>  <Ligand_Instance>  (227) 
nan

>  <PDB_ID>  (227) 
nan

>  <Standardized_SMILES>  (227) 
Cc1nn(C)cc1-c1nc2c(N3CCC[C@H](CNS(C)(=O)=O)C3)c(Cl)cnc2[nH]1

>  <Name>  (227) 
nan

>  <Pocket>  (227) 
nan

>  <ATP_Site>  (227) 
nan

>  <Peripheral>  (227) 
nan

>  <Num_H_Atoms_ProtBoundConf>  (227) 
nan

>  <Num_Resolved_Atoms>  (227) 
nan

>  <Num_Not_Resolved_Atoms>  (227) 
nan

$$$$
CHEMBL3087780
     RDKit          3D

  0  0  0  0  0  0  0  0  0  0999 V3000
M  V30 BEGIN CTAB
M  V30 COUNTS 53 56 0 0 0
M  V30 BEGIN ATOM
M  V30 1 C -6.271461 1.526246 -1.488288 0
M  V30 2 C -5.661529 0.173665 -1.425525 0
M  V30 3 N -6.262048 -0.999377 -1.759866 0
M  V30 4 N -5.441232 -2.019674 -1.588351 0
M  V30 5 C -5.683200 -3.431868 -1.825286 0
M  V30 6 C -4.287834 -1.498818 -1.134668 0
M  V30 7 C -4.382130 -0.128191 -1.017987 0
M  V30 8 C -3.318254 0.751606 -0.555964 0
M  V30 9 N -2.088336 0.365445 -0.174767 0
M  V30 10 C -1.331136 1.396976 0.198270 0
M  V30 11 C -0.019659 1.477001 0.658370 0
M  V30 12 N 0.774115 0.298609 0.803104 0
M  V30 13 C 1.008868 -0.657773 1.887802 0
M  V30 14 C 1.045010 -2.072097 1.322407 0
M  V30 15 C 2.254371 -2.251202 0.418589 0
M  V30 16 C 2.663894 -0.889360 -0.042253 0 CFG=1
M  V30 17 C 3.705796 -0.923364 -1.139824 0
M  V30 18 N 3.255810 -1.612680 -2.312058 0
M  V30 19 S 4.537001 -1.585139 -3.499497 0
M  V30 20 C 4.851858 0.136570 -3.889236 0
M  V30 21 O 5.790539 -2.132849 -2.901383 0
M  V30 22 O 4.139030 -2.343767 -4.722137 0
M  V30 23 C 1.503913 0.006900 -0.420693 0
M  V30 24 C 0.509628 2.722731 0.976329 0
M  V30 25 Cl 2.164216 2.756013 1.549415 0
M  V30 26 C -0.291975 3.830025 0.821136 0
M  V30 27 N -1.565987 3.714197 0.370028 0
M  V30 28 C -2.105394 2.529207 0.055211 0
M  V30 29 N -3.289516 2.083119 -0.400942 0
M  V30 30 H -5.701229 2.117151 -2.220788 0
M  V30 31 H -7.294820 1.421776 -1.940627 0
M  V30 32 H -6.340629 2.022135 -0.490324 0
M  V30 33 H -5.690291 -3.908036 -0.821324 0
M  V30 34 H -6.582845 -3.615248 -2.409586 0
M  V30 35 H -4.806781 -3.899647 -2.362510 0
M  V30 36 H -3.397337 -2.079248 -0.891319 0
M  V30 37 H 0.086337 -0.628708 2.516650 0
M  V30 38 H 1.901862 -0.422939 2.478293 0
M  V30 39 H 1.040187 -2.764318 2.170559 0
M  V30 40 H 0.104020 -2.219420 0.759830 0
M  V30 41 H 3.050141 -2.675398 1.065615 0
M  V30 42 H 1.959192 -2.926399 -0.407058 0
M  V30 43 H 3.164917 -0.400743 0.841250 0
M  V30 44 H 3.961508 0.113841 -1.403521 0
M  V30 45 H 4.631388 -1.398914 -0.779037 0
M  V30 46 H 2.393103 -1.196554 -2.727525 0
M  V30 47 H 3.909815 0.568164 -4.233612 0
M  V30 48 H 5.198719 0.630702 -2.961931 0
M  V30 49 H 5.661847 0.213942 -4.643199 0
M  V30 50 H 1.907223 0.882827 -0.928208 0
M  V30 51 H 0.885375 -0.582698 -1.127885 0
M  V30 52 H 0.165615 4.776586 1.081810 0
M  V30 53 H -4.068904 2.744449 -0.597078 0
M  V30 END ATOM
M  V30 BEGIN BOND
M  V30 1 1 1 2
M  V30 2 2 2 3
M  V30 3 1 3 4
M  V30 4 1 4 5
M  V30 5 1 4 6
M  V30 6 2 6 7
M  V30 7 1 7 8
M  V30 8 2 8 9
M  V30 9 1 9 10
M  V30 10 2 10 11
M  V30 11 1 11 12
M  V30 12 1 12 13
M  V30 13 1 13 14
M  V30 14 1 14 15
M  V30 15 1 15 16
M  V30 16 1 16 17
M  V30 17 1 17 18
M  V30 18 1 18 19
M  V30 19 1 19 20
M  V30 20 2 19 21
M  V30 21 2 19 22
M  V30 22 1 16 23
M  V30 23 1 11 24
M  V30 24 1 24 25
M  V30 25 2 24 26
M  V30 26 1 26 27
M  V30 27 2 27 28
M  V30 28 1 28 29
M  V30 29 1 7 2
M  V30 30 1 29 8
M  V30 31 1 28 10
M  V30 32 1 23 12
M  V30 33 1 1 30
M  V30 34 1 1 31
M  V30 35 1 1 32
M  V30 36 1 5 33
M  V30 37 1 5 34
M  V30 38 1 5 35
M  V30 39 1 6 36
M  V30 40 1 13 37
M  V30 41 1 13 38
M  V30 42 1 14 39
M  V30 43 1 14 40
M  V30 44 1 15 41
M  V30 45 1 15 42
M  V30 46 1 16 43 CFG=1
M  V30 47 1 17 44
M  V30 48 1 17 45
M  V30 49 1 18 46
M  V30 50 1 20 47
M  V30 51 1 20 48
M  V30 52 1 20 49
M  V30 53 1 23 50
M  V30 54 1 23 51
M  V30 55 1 26 52
M  V30 56 1 29 53
M  V30 END BOND
M  V30 END CTAB
M  END
>  <Dataset>  (228) 
ChEMBL_Kinases

>  <Ligand_Instance>  (228) 
nan

>  <PDB_ID>  (228) 
nan

>  <Standardized_SMILES>  (228) 
Cc1nn(C)cc1-c1nc2c(N3CCC[C@@H](CNS(C)(=O)=O)C3)c(Cl)cnc2[nH]1

>  <Name>  (228) 
nan

>  <Pocket>  (228) 
nan

>  <ATP_Site>  (228) 
nan

>  <Peripheral>  (228) 
nan

>  <Num_H_Atoms_ProtBoundConf>  (228) 
nan

>  <Num_Resolved_Atoms>  (228) 
nan

>  <Num_Not_Resolved_Atoms>  (228) 
nan

$$$$
CHEMBL3685223
     RDKit          3D

  0  0  0  0  0  0  0  0  0  0999 V3000
M  V30 BEGIN CTAB
M  V30 COUNTS 52 56 0 0 0
M  V30 BEGIN ATOM
M  V30 1 N 4.531557 -6.574626 2.098393 0
M  V30 2 C 4.536591 -6.219102 3.519490 0
M  V30 3 O 5.023925 -7.339636 3.564584 0
M  V30 4 C 3.977971 -4.893746 3.624671 0
M  V30 5 C 3.965955 -4.492881 4.968963 0
M  V30 6 C 3.469466 -3.236781 5.245745 0
M  V30 7 C 3.025091 -2.469417 4.207534 0
M  V30 8 C 3.024410 -2.831251 2.898206 0
M  V30 9 C 2.591471 -2.096418 1.783993 0
M  V30 10 N 2.076163 -0.826390 2.187666 0
M  V30 11 C 1.577069 0.402340 2.572111 0
M  V30 12 C 0.242620 0.861850 2.174891 0
M  V30 13 C -0.977728 0.695389 2.792026 0
M  V30 14 C -2.168723 1.164328 2.280354 0
M  V30 15 C -2.168082 1.855939 1.061130 0
M  V30 16 C -0.971842 2.050271 0.403708 0
M  V30 17 N -0.913571 2.733997 -0.868024 0
M  V30 18 C -2.191200 2.761763 -1.539061 0
M  V30 19 C -3.250845 3.639602 -1.505725 0
M  V30 20 C -4.332190 3.356966 -2.292809 0
M  V30 21 C -4.407666 2.251266 -3.105283 0
M  V30 22 C -5.513548 2.004699 -3.882766 0
M  V30 23 C -5.557789 0.872381 -4.698368 0
M  V30 24 C -4.481497 -0.007383 -4.723705 0
M  V30 25 C -3.396816 0.268251 -3.937536 0
M  V30 26 C -3.307459 1.390357 -3.105082 0
M  V30 27 N -2.238129 1.659354 -2.333636 0
M  V30 28 C 0.194353 1.549804 0.978719 0
M  V30 29 N 2.673117 -2.618415 0.544953 0
M  V30 30 C 3.162192 -3.837946 0.335057 0
M  V30 31 N 3.578525 -4.550420 1.385798 0
M  V30 32 C 3.520512 -4.081262 2.635083 0
M  V30 33 H 4.910435 -6.590359 1.128979 0
M  V30 34 H 3.828892 -7.137515 1.496454 0
M  V30 35 H 4.307580 -5.068461 5.807100 0
M  V30 36 H 3.416278 -2.827087 6.264633 0
M  V30 37 H 2.648182 -1.503974 4.434045 0
M  V30 38 H 1.839865 -0.463799 1.198358 0
M  V30 39 H 1.536177 0.436898 3.722214 0
M  V30 40 H 2.277404 1.241596 2.373026 0
M  V30 41 H -0.910898 0.142090 3.744526 0
M  V30 42 H -3.069564 0.981222 2.837765 0
M  V30 43 H -3.079625 2.223068 0.654846 0
M  V30 44 H 0.019405 3.119228 -1.147533 0
M  V30 45 H -3.050124 4.451723 -0.832777 0
M  V30 46 H -5.141059 4.087222 -2.225822 0
M  V30 47 H -6.354722 2.681386 -3.869377 0
M  V30 48 H -6.393603 0.623384 -5.330194 0
M  V30 49 H -4.485036 -0.908710 -5.359789 0
M  V30 50 H -2.522263 -0.370163 -3.901107 0
M  V30 51 H 1.088901 1.745859 0.407580 0
M  V30 52 H 3.204211 -4.203032 -0.690319 0
M  V30 END ATOM
M  V30 BEGIN BOND
M  V30 1 1 1 2
M  V30 2 2 2 3
M  V30 3 1 2 4
M  V30 4 2 4 5
M  V30 5 1 5 6
M  V30 6 2 6 7
M  V30 7 1 7 8
M  V30 8 2 8 9
M  V30 9 1 9 10
M  V30 10 1 10 11
M  V30 11 1 11 12
M  V30 12 2 12 13
M  V30 13 1 13 14
M  V30 14 2 14 15
M  V30 15 1 15 16
M  V30 16 1 16 17
M  V30 17 1 17 18
M  V30 18 2 18 19
M  V30 19 1 19 20
M  V30 20 2 20 21
M  V30 21 1 21 22
M  V30 22 2 22 23
M  V30 23 1 23 24
M  V30 24 2 24 25
M  V30 25 1 25 26
M  V30 26 2 26 27
M  V30 27 2 16 28
M  V30 28 1 9 29
M  V30 29 2 29 30
M  V30 30 1 30 31
M  V30 31 2 31 32
M  V30 32 1 32 4
M  V30 33 1 32 8
M  V30 34 1 28 12
M  V30 35 1 27 18
M  V30 36 1 26 21
M  V30 37 1 1 33
M  V30 38 1 1 34
M  V30 39 1 5 35
M  V30 40 1 6 36
M  V30 41 1 7 37
M  V30 42 1 10 38
M  V30 43 1 11 39
M  V30 44 1 11 40
M  V30 45 1 13 41
M  V30 46 1 14 42
M  V30 47 1 15 43
M  V30 48 1 17 44
M  V30 49 1 19 45
M  V30 50 1 20 46
M  V30 51 1 22 47
M  V30 52 1 23 48
M  V30 53 1 24 49
M  V30 54 1 25 50
M  V30 55 1 28 51
M  V30 56 1 30 52
M  V30 END BOND
M  V30 END CTAB
M  END
>  <Dataset>  (229) 
ChEMBL_Kinases

>  <Ligand_Instance>  (229) 
nan

>  <PDB_ID>  (229) 
nan

>  <Standardized_SMILES>  (229) 
NC(=O)c1cccc2c(NCc3cccc(Nc4ccc5ccccc5n4)c3)ncnc12

>  <Name>  (229) 
nan

>  <Pocket>  (229) 
nan

>  <ATP_Site>  (229) 
nan

>  <Peripheral>  (229) 
nan

>  <Num_H_Atoms_ProtBoundConf>  (229) 
nan

>  <Num_Resolved_Atoms>  (229) 
nan

>  <Num_Not_Resolved_Atoms>  (229) 
nan

$$$$
CHEMBL3087781
     RDKit          3D

  0  0  0  0  0  0  0  0  0  0999 V3000
M  V30 BEGIN CTAB
M  V30 COUNTS 56 59 0 0 0
M  V30 BEGIN ATOM
M  V30 1 C 2.021121 -5.167662 3.282590 0
M  V30 2 C 2.078448 -3.699070 3.478348 0
M  V30 3 N 2.444740 -3.047130 4.621208 0
M  V30 4 N 2.374994 -1.744299 4.420935 0
M  V30 5 C 2.698394 -0.752723 5.435039 0
M  V30 6 C 1.965960 -1.556475 3.155876 0
M  V30 7 C 1.765079 -2.763474 2.518808 0
M  V30 8 C 1.320366 -2.919022 1.139934 0
M  V30 9 N 1.043286 -1.914087 0.291257 0
M  V30 10 C 0.658206 -2.378619 -0.906125 0
M  V30 11 C 0.284324 -1.715905 -2.057925 0
M  V30 12 N 0.254231 -0.278643 -2.137447 0
M  V30 13 C 1.261434 0.688033 -2.522546 0
M  V30 14 C 1.528843 1.707019 -1.469448 0
M  V30 15 C 0.580173 1.679216 -0.322797 0
M  V30 16 C -0.848384 1.411770 -0.713274 0 CFG=2
M  V30 17 C -1.547999 0.926490 0.535007 0
M  V30 18 N -2.916420 0.644155 0.260097 0
M  V30 19 C -3.367038 -0.628462 0.756516 0
M  V30 20 S -4.008200 1.915688 0.539917 0
M  V30 21 C -3.666138 3.306565 -0.470946 0
M  V30 22 O -4.076590 2.321948 1.984408 0
M  V30 23 O -5.388226 1.421452 0.167293 0
M  V30 24 C -0.996890 0.355308 -1.772942 0
M  V30 25 C -0.080000 -2.428418 -3.193340 0
M  V30 26 Cl -0.567183 -1.679177 -4.695232 0
M  V30 27 C -0.030496 -3.798797 -3.053170 0
M  V30 28 N 0.337597 -4.442518 -1.919128 0
M  V30 29 C 0.690502 -3.754870 -0.819324 0
M  V30 30 N 1.093105 -4.032402 0.425208 0
M  V30 31 H 2.708762 -5.534751 2.504609 0
M  V30 32 H 0.984748 -5.532654 3.055083 0
M  V30 33 H 2.382548 -5.638196 4.236126 0
M  V30 34 H 2.874661 0.197997 4.890276 0
M  V30 35 H 1.825313 -0.656042 6.102326 0
M  V30 36 H 3.628956 -0.983376 5.963831 0
M  V30 37 H 1.839803 -0.552484 2.777187 0
M  V30 38 H 0.928064 1.174997 -3.477684 0
M  V30 39 H 2.175818 0.134818 -2.788455 0
M  V30 40 H 2.565236 1.573302 -1.096912 0
M  V30 41 H 1.547919 2.722956 -1.960136 0
M  V30 42 H 0.602538 2.668304 0.180900 0
M  V30 43 H 0.920255 0.953418 0.445639 0
M  V30 44 H -1.281732 2.369494 -1.017749 0
M  V30 45 H -1.396873 1.627471 1.383919 0
M  V30 46 H -1.012290 -0.015272 0.853271 0
M  V30 47 H -4.140398 -0.561540 1.533341 0
M  V30 48 H -3.801796 -1.197425 -0.110870 0
M  V30 49 H -2.484966 -1.209684 1.099457 0
M  V30 50 H -3.525248 3.010006 -1.516404 0
M  V30 51 H -2.821322 3.924750 -0.066948 0
M  V30 52 H -4.556211 3.992714 -0.468899 0
M  V30 53 H -1.797655 -0.368738 -1.516502 0
M  V30 54 H -1.350381 0.861052 -2.695969 0
M  V30 55 H -0.296339 -4.441461 -3.882834 0
M  V30 56 H 1.196856 -5.001412 0.737444 0
M  V30 END ATOM
M  V30 BEGIN BOND
M  V30 1 1 1 2
M  V30 2 2 2 3
M  V30 3 1 3 4
M  V30 4 1 4 5
M  V30 5 1 4 6
M  V30 6 2 6 7
M  V30 7 1 7 8
M  V30 8 2 8 9
M  V30 9 1 9 10
M  V30 10 2 10 11
M  V30 11 1 11 12
M  V30 12 1 12 13
M  V30 13 1 13 14
M  V30 14 1 14 15
M  V30 15 1 15 16
M  V30 16 1 16 17
M  V30 17 1 17 18
M  V30 18 1 18 19
M  V30 19 1 18 20
M  V30 20 1 20 21
M  V30 21 2 20 22
M  V30 22 2 20 23
M  V30 23 1 16 24
M  V30 24 1 11 25
M  V30 25 1 25 26
M  V30 26 2 25 27
M  V30 27 1 27 28
M  V30 28 2 28 29
M  V30 29 1 29 30
M  V30 30 1 7 2
M  V30 31 1 30 8
M  V30 32 1 29 10
M  V30 33 1 24 12
M  V30 34 1 1 31
M  V30 35 1 1 32
M  V30 36 1 1 33
M  V30 37 1 5 34
M  V30 38 1 5 35
M  V30 39 1 5 36
M  V30 40 1 6 37
M  V30 41 1 13 38
M  V30 42 1 13 39
M  V30 43 1 14 40
M  V30 44 1 14 41
M  V30 45 1 15 42
M  V30 46 1 15 43
M  V30 47 1 16 44 CFG=3
M  V30 48 1 17 45
M  V30 49 1 17 46
M  V30 50 1 19 47
M  V30 51 1 19 48
M  V30 52 1 19 49
M  V30 53 1 21 50
M  V30 54 1 21 51
M  V30 55 1 21 52
M  V30 56 1 24 53
M  V30 57 1 24 54
M  V30 58 1 27 55
M  V30 59 1 30 56
M  V30 END BOND
M  V30 END CTAB
M  END
>  <Dataset>  (230) 
ChEMBL_Kinases

>  <Ligand_Instance>  (230) 
nan

>  <PDB_ID>  (230) 
nan

>  <Standardized_SMILES>  (230) 
Cc1nn(C)cc1-c1nc2c(N3CCC[C@H](CN(C)S(C)(=O)=O)C3)c(Cl)cnc2[nH]1

>  <Name>  (230) 
nan

>  <Pocket>  (230) 
nan

>  <ATP_Site>  (230) 
nan

>  <Peripheral>  (230) 
nan

>  <Num_H_Atoms_ProtBoundConf>  (230) 
nan

>  <Num_Resolved_Atoms>  (230) 
nan

>  <Num_Not_Resolved_Atoms>  (230) 
nan

$$$$
CHEMBL3087782
     RDKit          3D

  0  0  0  0  0  0  0  0  0  0999 V3000
M  V30 BEGIN CTAB
M  V30 COUNTS 45 48 0 0 0
M  V30 BEGIN ATOM
M  V30 1 C -1.143757 -4.882092 1.061957 0
M  V30 2 C 0.134283 -4.204344 1.441948 0
M  V30 3 N 1.164388 -4.721705 2.173194 0
M  V30 4 N 2.131901 -3.832932 2.310736 0
M  V30 5 C 3.391335 -3.992673 3.015858 0
M  V30 6 C 1.704972 -2.739829 1.656585 0
M  V30 7 C 0.454039 -2.917274 1.090508 0
M  V30 8 C -0.285969 -1.934489 0.321049 0
M  V30 9 N 0.134729 -0.688889 0.037544 0
M  V30 10 C -0.759458 -0.021339 -0.684453 0
M  V30 11 C -0.705136 1.266169 -1.171238 0
M  V30 12 N 0.350231 2.172083 -0.995889 0
M  V30 13 C 1.381709 2.141716 -2.011774 0
M  V30 14 C 0.399979 3.079942 0.134010 0
M  V30 15 C 0.416581 2.247554 1.365486 0
M  V30 16 C 1.638394 1.858376 1.870853 0
M  V30 17 C 1.836231 1.082977 3.007470 0
M  V30 18 C 0.678788 0.689256 3.657568 0
M  V30 19 C -0.570352 1.049753 3.196250 0
M  V30 20 C -0.709249 1.829358 2.049987 0
M  V30 21 C -1.815704 1.684926 -1.903988 0
M  V30 22 Cl -1.966453 3.267127 -2.612931 0
M  V30 23 C -2.865699 0.798828 -2.084527 0
M  V30 24 N -2.859837 -0.450321 -1.582429 0
M  V30 25 C -1.809231 -0.890368 -0.871700 0
M  V30 26 N -1.477862 -2.034660 -0.245765 0
M  V30 27 H -1.224202 -5.045626 -0.031492 0
M  V30 28 H -1.083096 -5.915161 1.491168 0
M  V30 29 H -2.027367 -4.430381 1.531561 0
M  V30 30 H 3.743110 -5.031186 2.992844 0
M  V30 31 H 4.119381 -3.244046 2.660217 0
M  V30 32 H 3.163159 -3.748692 4.093062 0
M  V30 33 H 2.295053 -1.825479 1.591717 0
M  V30 34 H 0.978267 2.404423 -3.019385 0
M  V30 35 H 2.189546 2.884318 -1.806753 0
M  V30 36 H 1.831674 1.143627 -1.995650 0
M  V30 37 H 1.303410 3.705401 0.095349 0
M  V30 38 H -0.488770 3.754435 0.157181 0
M  V30 39 H 2.547664 2.169500 1.357449 0
M  V30 40 H 2.838505 0.827925 3.326976 0
M  V30 41 H 0.820688 0.081793 4.548782 0
M  V30 42 H -1.468202 0.725427 3.728550 0
M  V30 43 H -1.670374 2.133205 1.655845 0
M  V30 44 H -3.771253 1.013418 -2.631319 0
M  V30 45 H -2.117212 -2.833054 -0.252268 0
M  V30 END ATOM
M  V30 BEGIN BOND
M  V30 1 1 1 2
M  V30 2 2 2 3
M  V30 3 1 3 4
M  V30 4 1 4 5
M  V30 5 1 4 6
M  V30 6 2 6 7
M  V30 7 1 7 8
M  V30 8 2 8 9
M  V30 9 1 9 10
M  V30 10 2 10 11
M  V30 11 1 11 12
M  V30 12 1 12 13
M  V30 13 1 12 14
M  V30 14 1 14 15
M  V30 15 2 15 16
M  V30 16 1 16 17
M  V30 17 2 17 18
M  V30 18 1 18 19
M  V30 19 2 19 20
M  V30 20 1 11 21
M  V30 21 1 21 22
M  V30 22 2 21 23
M  V30 23 1 23 24
M  V30 24 2 24 25
M  V30 25 1 25 26
M  V30 26 1 7 2
M  V30 27 1 26 8
M  V30 28 1 25 10
M  V30 29 1 20 15
M  V30 30 1 1 27
M  V30 31 1 1 28
M  V30 32 1 1 29
M  V30 33 1 5 30
M  V30 34 1 5 31
M  V30 35 1 5 32
M  V30 36 1 6 33
M  V30 37 1 13 34
M  V30 38 1 13 35
M  V30 39 1 13 36
M  V30 40 1 14 37
M  V30 41 1 14 38
M  V30 42 1 16 39
M  V30 43 1 17 40
M  V30 44 1 18 41
M  V30 45 1 19 42
M  V30 46 1 20 43
M  V30 47 1 23 44
M  V30 48 1 26 45
M  V30 END BOND
M  V30 END CTAB
M  END
>  <Dataset>  (231) 
ChEMBL_Kinases

>  <Ligand_Instance>  (231) 
nan

>  <PDB_ID>  (231) 
nan

>  <Standardized_SMILES>  (231) 
Cc1nn(C)cc1-c1nc2c(N(C)Cc3ccccc3)c(Cl)cnc2[nH]1

>  <Name>  (231) 
nan

>  <Pocket>  (231) 
nan

>  <ATP_Site>  (231) 
nan

>  <Peripheral>  (231) 
nan

>  <Num_H_Atoms_ProtBoundConf>  (231) 
nan

>  <Num_Resolved_Atoms>  (231) 
nan

>  <Num_Not_Resolved_Atoms>  (231) 
nan

$$$$
CHEMBL4288939
     RDKit          3D

  0  0  0  0  0  0  0  0  0  0999 V3000
M  V30 BEGIN CTAB
M  V30 COUNTS 36 38 0 0 0
M  V30 BEGIN ATOM
M  V30 1 C -0.677256 -2.974272 2.946186 0
M  V30 2 C -0.189656 -3.349083 1.564181 0
M  V30 3 C 0.265049 -4.821174 1.722440 0
M  V30 4 C 1.053713 -2.656271 1.189826 0
M  V30 5 C 2.334888 -3.183862 1.310412 0
M  V30 6 C 3.512858 -2.584850 0.967092 0
M  V30 7 C 3.438313 -1.312733 0.440152 0
M  V30 8 C 2.218150 -0.689694 0.275268 0
M  V30 9 O 2.163496 0.521258 -0.226477 0
M  V30 10 C 1.054287 1.197252 -0.420650 0
M  V30 11 N 1.107278 2.436947 -0.943110 0
M  V30 12 C 0.001747 3.175368 -1.163614 0
M  V30 13 N 0.002172 4.488288 -1.712482 0
M  V30 14 C -1.193269 2.577123 -0.818207 0
M  V30 15 C -2.483037 3.245256 -0.994646 0
M  V30 16 O -3.661085 2.870370 -0.743961 0
M  V30 17 O -2.709449 4.516288 -1.507941 0
M  V30 18 C -1.296803 1.308842 -0.279775 0
M  V30 19 C -0.134875 0.589008 -0.071553 0
M  V30 20 C -0.092613 -0.685036 0.457335 0
M  V30 21 O -1.199137 -1.192983 0.759098 0
M  V30 22 C 1.084162 -1.378201 0.652617 0
M  V30 23 H -1.791431 -3.024347 3.032531 0
M  V30 24 H -0.289875 -3.632791 3.751440 0
M  V30 25 H -0.281974 -1.955870 3.235760 0
M  V30 26 H -0.955190 -3.442215 0.799582 0
M  V30 27 H -0.635886 -5.497197 1.688096 0
M  V30 28 H 0.858720 -5.117909 0.835572 0
M  V30 29 H 0.805513 -4.977541 2.652782 0
M  V30 30 H 2.434508 -4.190788 1.725147 0
M  V30 31 H 4.458119 -3.064858 1.093952 0
M  V30 32 H 4.348986 -0.805357 0.155947 0
M  V30 33 H -0.101904 4.242253 -2.736119 0
M  V30 34 H 0.103776 5.115501 -0.876311 0
M  V30 35 H -3.121557 5.283802 -0.954122 0
M  V30 36 H -2.217074 0.842600 -0.011466 0
M  V30 END ATOM
M  V30 BEGIN BOND
M  V30 1 1 1 2
M  V30 2 1 2 3
M  V30 3 1 2 4
M  V30 4 2 4 5
M  V30 5 1 5 6
M  V30 6 2 6 7
M  V30 7 1 7 8
M  V30 8 1 8 9
M  V30 9 1 9 10
M  V30 10 2 10 11
M  V30 11 1 11 12
M  V30 12 1 12 13
M  V30 13 2 12 14
M  V30 14 1 14 15
M  V30 15 2 15 16
M  V30 16 1 15 17
M  V30 17 1 14 18
M  V30 18 2 18 19
M  V30 19 1 19 20
M  V30 20 2 20 21
M  V30 21 1 20 22
M  V30 22 1 22 4
M  V30 23 2 22 8
M  V30 24 1 19 10
M  V30 25 1 1 23
M  V30 26 1 1 24
M  V30 27 1 1 25
M  V30 28 1 2 26
M  V30 29 1 3 27
M  V30 30 1 3 28
M  V30 31 1 3 29
M  V30 32 1 5 30
M  V30 33 1 6 31
M  V30 34 1 7 32
M  V30 35 1 13 33
M  V30 36 1 13 34
M  V30 37 1 17 35
M  V30 38 1 18 36
M  V30 END BOND
M  V30 END CTAB
M  END
>  <Dataset>  (232) 
ChEMBL_Kinases

>  <Ligand_Instance>  (232) 
nan

>  <PDB_ID>  (232) 
nan

>  <Standardized_SMILES>  (232) 
CC(C)c1cccc2oc3nc(N)c(C(=O)O)cc3c(=O)c12

>  <Name>  (232) 
nan

>  <Pocket>  (232) 
nan

>  <ATP_Site>  (232) 
nan

>  <Peripheral>  (232) 
nan

>  <Num_H_Atoms_ProtBoundConf>  (232) 
nan

>  <Num_Resolved_Atoms>  (232) 
nan

>  <Num_Not_Resolved_Atoms>  (232) 
nan

$$$$
CHEMBL3701753
     RDKit          3D

  0  0  0  0  0  0  0  0  0  0999 V3000
M  V30 BEGIN CTAB
M  V30 COUNTS 56 61 0 0 0
M  V30 BEGIN ATOM
M  V30 1 C 3.294761 -2.025558 4.474087 0
M  V30 2 C 4.427365 -1.297665 3.822062 0
M  V30 3 O 5.615178 -1.487778 4.521640 0
M  V30 4 C 4.140833 0.141735 3.446872 0
M  V30 5 C 3.945155 -0.223128 2.024914 0
M  V30 6 N 4.778175 0.549763 1.109263 0
M  V30 7 C 2.564491 -0.372444 1.528790 0
M  V30 8 C 1.426495 -0.200270 2.282651 0
M  V30 9 C 0.165555 -0.351686 1.771877 0
M  V30 10 C -0.020329 -0.691300 0.448437 0
M  V30 11 C -1.245019 -0.902759 -0.312366 0
M  V30 12 N -1.526357 -2.145705 -0.812928 0
M  V30 13 C -2.679853 -2.156540 -1.477760 0
M  V30 14 N -3.138686 -0.893133 -1.396251 0
M  V30 15 C -2.282739 -0.116106 -0.693094 0
M  V30 16 C -2.371182 1.277879 -0.362577 0
M  V30 17 C -2.499858 1.908644 0.856173 0
M  V30 18 C -2.568617 3.263634 1.007663 0
M  V30 19 C -2.509693 4.086100 -0.099155 0
M  V30 20 C -2.380794 3.484662 -1.336695 0
M  V30 21 C -2.311107 2.109584 -1.487650 0
M  V30 22 C -4.371245 -0.473189 -1.989001 0
M  V30 23 O -5.059303 -1.473594 -2.656118 0
M  V30 24 C -4.638618 -2.772524 -2.769012 0
M  V30 25 N -5.356323 -3.692325 -3.431310 0
M  V30 26 C -4.915684 -4.978240 -3.529078 0
M  V30 27 C -3.720289 -5.407413 -2.960456 0
M  V30 28 C -2.975558 -4.467407 -2.277227 0
M  V30 29 C -3.447634 -3.171156 -2.194781 0
M  V30 30 C 1.120810 -0.873918 -0.346418 0
M  V30 31 C 2.396154 -0.711559 0.206346 0
M  V30 32 C 4.615346 -1.566776 2.332376 0
M  V30 33 H 3.625263 -2.784696 5.224014 0
M  V30 34 H 2.590807 -2.490631 3.753135 0
M  V30 35 H 2.722815 -1.272189 5.079547 0
M  V30 36 H 5.579156 -2.394151 4.918311 0
M  V30 37 H 5.088517 0.737532 3.575894 0
M  V30 38 H 3.354498 0.654015 3.997754 0
M  V30 39 H 5.183005 -0.051667 0.351346 0
M  V30 40 H 5.593539 0.927074 1.650684 0
M  V30 41 H 1.531680 0.061658 3.305397 0
M  V30 42 H -0.746567 -0.235127 2.298112 0
M  V30 43 H -2.542546 1.214258 1.683303 0
M  V30 44 H -2.669251 3.674177 2.003530 0
M  V30 45 H -2.568392 5.151107 0.075524 0
M  V30 46 H -2.340944 4.194832 -2.160168 0
M  V30 47 H -2.211479 1.826396 -2.533107 0
M  V30 48 H -5.014852 0.087570 -1.250586 0
M  V30 49 H -4.099797 0.311048 -2.748526 0
M  V30 50 H -5.561746 -5.639741 -4.080118 0
M  V30 51 H -3.402047 -6.436351 -3.058315 0
M  V30 52 H -2.029257 -4.732270 -1.806595 0
M  V30 53 H 1.107244 -1.145189 -1.413562 0
M  V30 54 H 3.276390 -0.858787 -0.430661 0
M  V30 55 H 4.004381 -2.394467 1.939833 0
M  V30 56 H 5.681659 -1.580092 2.046827 0
M  V30 END ATOM
M  V30 BEGIN BOND
M  V30 1 1 1 2
M  V30 2 1 2 3
M  V30 3 1 2 4
M  V30 4 1 4 5
M  V30 5 1 5 6
M  V30 6 1 5 7
M  V30 7 2 7 8
M  V30 8 1 8 9
M  V30 9 2 9 10
M  V30 10 1 10 11
M  V30 11 1 11 12
M  V30 12 2 12 13
M  V30 13 1 13 14
M  V30 14 1 14 15
M  V30 15 1 15 16
M  V30 16 2 16 17
M  V30 17 1 17 18
M  V30 18 2 18 19
M  V30 19 1 19 20
M  V30 20 2 20 21
M  V30 21 1 14 22
M  V30 22 1 22 23
M  V30 23 1 23 24
M  V30 24 2 24 25
M  V30 25 1 25 26
M  V30 26 2 26 27
M  V30 27 1 27 28
M  V30 28 2 28 29
M  V30 29 1 10 30
M  V30 30 2 30 31
M  V30 31 1 5 32
M  V30 32 1 32 2
M  V30 33 1 31 7
M  V30 34 2 15 11
M  V30 35 1 21 16
M  V30 36 1 29 24
M  V30 37 1 29 13
M  V30 38 1 1 33
M  V30 39 1 1 34
M  V30 40 1 1 35
M  V30 41 1 3 36
M  V30 42 1 4 37
M  V30 43 1 4 38
M  V30 44 1 6 39
M  V30 45 1 6 40
M  V30 46 1 8 41
M  V30 47 1 9 42
M  V30 48 1 17 43
M  V30 49 1 18 44
M  V30 50 1 19 45
M  V30 51 1 20 46
M  V30 52 1 21 47
M  V30 53 1 22 48
M  V30 54 1 22 49
M  V30 55 1 26 50
M  V30 56 1 27 51
M  V30 57 1 28 52
M  V30 58 1 30 53
M  V30 59 1 31 54
M  V30 60 1 32 55
M  V30 61 1 32 56
M  V30 END BOND
M  V30 END CTAB
M  END
>  <Dataset>  (233) 
ChEMBL_Kinases

>  <Ligand_Instance>  (233) 
nan

>  <PDB_ID>  (233) 
nan

>  <Standardized_SMILES>  (233) 
CC1(O)CC(N)(c2ccc(-c3nc4n(c3-c3ccccc3)COc3ncccc3-4)cc2)C1

>  <Name>  (233) 
nan

>  <Pocket>  (233) 
nan

>  <ATP_Site>  (233) 
nan

>  <Peripheral>  (233) 
nan

>  <Num_H_Atoms_ProtBoundConf>  (233) 
nan

>  <Num_Resolved_Atoms>  (233) 
nan

>  <Num_Not_Resolved_Atoms>  (233) 
nan

$$$$
CHEMBL4583118
     RDKit          3D

  0  0  0  0  0  0  0  0  0  0999 V3000
M  V30 BEGIN CTAB
M  V30 COUNTS 49 52 0 0 0
M  V30 BEGIN ATOM
M  V30 1 N 1.877056 -6.700496 0.232721 0
M  V30 2 C 3.090548 -5.961481 0.154309 0
M  V30 3 O 4.257335 -6.474243 0.084592 0
M  V30 4 C 2.952195 -4.509179 0.156121 0
M  V30 5 C 4.079012 -3.686587 0.082654 0
M  V30 6 C 4.023288 -2.308071 0.079689 0
M  V30 7 Cl 5.508475 -1.382409 -0.016411 0
M  V30 8 C 2.785684 -1.702952 0.153364 0
M  V30 9 C 2.403437 -0.357565 0.170728 0
M  V30 10 Cl 3.535337 0.966371 0.094611 0
M  V30 11 C 1.015980 -0.415431 0.256748 0
M  V30 12 C 0.235326 0.794887 0.299367 0
M  V30 13 C -0.433803 1.803498 0.341512 0
M  V30 14 C -1.252356 3.017963 0.401342 0
M  V30 15 C -0.337624 4.218840 0.321825 0
M  V30 16 N 0.451437 4.272872 1.513762 0
M  V30 17 C -0.161279 3.716273 2.680372 0
M  V30 18 C -1.646574 3.598551 2.611998 0
M  V30 19 O -2.127312 3.033144 1.455219 0
M  V30 20 N 0.606338 -1.696442 0.288028 0
M  V30 21 C -0.785338 -2.054425 0.375699 0 CFG=1
M  V30 22 C -1.440933 -1.489456 1.609035 0
M  V30 23 C -2.850831 -1.022408 1.371476 0
M  V30 24 C -3.518082 -2.027325 0.467321 0
M  V30 25 N -2.876510 -2.153918 -0.804217 0
M  V30 26 C -1.532500 -1.606400 -0.850117 0
M  V30 27 C 1.673361 -2.516601 0.225894 0
M  V30 28 N 1.770802 -3.860076 0.226118 0
M  V30 29 H 1.503742 -6.604999 1.215622 0
M  V30 30 H 1.215989 -7.300100 -0.309678 0
M  V30 31 H 5.022884 -4.213258 0.026775 0
M  V30 32 H -1.854930 3.001240 -0.550386 0
M  V30 33 H -0.850590 5.135408 0.036191 0
M  V30 34 H 0.372829 3.981870 -0.522307 0
M  V30 35 H 1.416925 3.884999 1.423426 0
M  V30 36 H 0.075586 4.420618 3.523983 0
M  V30 37 H 0.247090 2.744866 3.007536 0
M  V30 38 H -2.112554 4.599427 2.841328 0
M  V30 39 H -1.962365 2.928490 3.452391 0
M  V30 40 H -0.913343 -3.174084 0.419250 0
M  V30 41 H -0.839536 -0.627874 2.002045 0
M  V30 42 H -1.440201 -2.241848 2.423310 0
M  V30 43 H -3.404130 -1.053865 2.346229 0
M  V30 44 H -2.892916 -0.001610 0.935296 0
M  V30 45 H -4.584536 -1.765171 0.259778 0
M  V30 46 H -3.548818 -2.996865 1.039787 0
M  V30 47 H -3.438277 -1.845826 -1.618220 0
M  V30 48 H -1.652623 -0.506755 -0.921081 0
M  V30 49 H -1.069793 -1.969046 -1.769435 0
M  V30 END ATOM
M  V30 BEGIN BOND
M  V30 1 1 1 2
M  V30 2 2 2 3
M  V30 3 1 2 4
M  V30 4 2 4 5
M  V30 5 1 5 6
M  V30 6 1 6 7
M  V30 7 2 6 8
M  V30 8 1 8 9
M  V30 9 1 9 10
M  V30 10 2 9 11
M  V30 11 1 11 12
M  V30 12 3 12 13
M  V30 13 1 13 14
M  V30 14 1 14 15
M  V30 15 1 15 16
M  V30 16 1 16 17
M  V30 17 1 17 18
M  V30 18 1 18 19
M  V30 19 1 11 20
M  V30 20 1 20 21
M  V30 21 1 21 22
M  V30 22 1 22 23
M  V30 23 1 23 24
M  V30 24 1 24 25
M  V30 25 1 25 26
M  V30 26 1 20 27
M  V30 27 2 27 28
M  V30 28 1 28 4
M  V30 29 1 27 8
M  V30 30 1 19 14
M  V30 31 1 26 21
M  V30 32 1 1 29
M  V30 33 1 1 30
M  V30 34 1 5 31
M  V30 35 1 14 32
M  V30 36 1 15 33
M  V30 37 1 15 34
M  V30 38 1 16 35
M  V30 39 1 17 36
M  V30 40 1 17 37
M  V30 41 1 18 38
M  V30 42 1 18 39
M  V30 43 1 21 40 CFG=1
M  V30 44 1 22 41
M  V30 45 1 22 42
M  V30 46 1 23 43
M  V30 47 1 23 44
M  V30 48 1 24 45
M  V30 49 1 24 46
M  V30 50 1 25 47
M  V30 51 1 26 48
M  V30 52 1 26 49
M  V30 END BOND
M  V30 END CTAB
M  END
>  <Dataset>  (234) 
ChEMBL_Kinases

>  <Ligand_Instance>  (234) 
nan

>  <PDB_ID>  (234) 
nan

>  <Standardized_SMILES>  (234) 
NC(=O)c1cc(Cl)c2c(Cl)c(C#CC3CNCCO3)n([C@H]3CCCNC3)c2n1

>  <Name>  (234) 
nan

>  <Pocket>  (234) 
nan

>  <ATP_Site>  (234) 
nan

>  <Peripheral>  (234) 
nan

>  <Num_H_Atoms_ProtBoundConf>  (234) 
nan

>  <Num_Resolved_Atoms>  (234) 
nan

>  <Num_Not_Resolved_Atoms>  (234) 
nan

$$$$
CHEMBL4583341
     RDKit          3D

  0  0  0  0  0  0  0  0  0  0999 V3000
M  V30 BEGIN CTAB
M  V30 COUNTS 60 63 0 0 0
M  V30 BEGIN ATOM
M  V30 1 C -0.033658 -1.978593 5.409987 0
M  V30 2 O 1.256821 -1.437851 5.536503 0
M  V30 3 C 1.858233 -0.671558 4.569877 0
M  V30 4 C 3.130460 -0.225402 4.866762 0
M  V30 5 C 3.891118 0.560374 4.010378 0
M  V30 6 C 3.289358 0.877427 2.817286 0
M  V30 7 C 2.036565 0.475314 2.450499 0
M  V30 8 C 1.348027 0.792844 1.173345 0 CFG=1
M  V30 9 C 2.353414 1.398572 0.237866 0
M  V30 10 C 1.763508 1.761973 -1.101212 0
M  V30 11 N 0.700507 2.715054 -0.996202 0
M  V30 12 C 1.123005 4.037489 -0.571758 0
M  V30 13 C -0.257414 4.708804 -0.559157 0
M  V30 14 C -0.815584 4.178593 -1.881792 0
M  V30 15 C 0.135947 3.048021 -2.289774 0
M  V30 16 N 0.741875 -0.405556 0.671234 0
M  V30 17 C -0.644752 -0.665436 0.499831 0
M  V30 18 O -1.456296 0.241023 0.816507 0
M  V30 19 C -1.170140 -1.921290 -0.021873 0
M  V30 20 C -2.547594 -2.021916 -0.136036 0
M  V30 21 C -3.053627 -3.217858 -0.634016 0
M  V30 22 C -2.248192 -4.276976 -1.007056 0
M  V30 23 C -2.754337 -5.538536 -1.529642 0
M  V30 24 C -3.909102 -5.677695 -2.296984 0
M  V30 25 C -4.356058 -6.885912 -2.773414 0
M  V30 26 N -3.649412 -7.996724 -2.489639 0
M  V30 27 C -2.536800 -7.896802 -1.755869 0
M  V30 28 C -2.052103 -6.718177 -1.259694 0
M  V30 29 C -0.869675 -4.150885 -0.882640 0
M  V30 30 C -0.351893 -2.969353 -0.389628 0
M  V30 31 C 1.331692 -0.303461 3.345364 0
M  V30 32 H -0.114424 -2.752702 4.606368 0
M  V30 33 H -0.325902 -2.392770 6.407076 0
M  V30 34 H -0.737835 -1.144747 5.180895 0
M  V30 35 H 3.618413 -0.475733 5.817572 0
M  V30 36 H 4.882536 0.910553 4.237121 0
M  V30 37 H 3.838559 1.483138 2.120431 0
M  V30 38 H 0.514971 1.483790 1.419147 0
M  V30 39 H 2.692193 2.352533 0.690096 0
M  V30 40 H 3.190362 0.700481 0.112677 0
M  V30 41 H 2.540247 2.121063 -1.795354 0
M  V30 42 H 1.337439 0.851948 -1.570538 0
M  V30 43 H 1.610263 4.057648 0.416278 0
M  V30 44 H 1.729360 4.560942 -1.344790 0
M  V30 45 H -0.210713 5.792165 -0.505086 0
M  V30 46 H -0.867078 4.229581 0.237936 0
M  V30 47 H -1.818343 3.725796 -1.747526 0
M  V30 48 H -0.788100 5.015015 -2.589448 0
M  V30 49 H -0.392871 2.223508 -2.771585 0
M  V30 50 H 0.935531 3.523633 -2.892471 0
M  V30 51 H 1.439389 -1.133460 0.420572 0
M  V30 52 H -3.269147 -1.265261 0.123514 0
M  V30 53 H -4.116580 -3.398586 -0.763165 0
M  V30 54 H -4.445874 -4.760284 -2.500985 0
M  V30 55 H -5.273098 -6.881744 -3.365140 0
M  V30 56 H -1.969103 -8.780513 -1.528511 0
M  V30 57 H -1.143251 -6.701039 -0.669737 0
M  V30 58 H -0.207065 -4.956544 -1.164261 0
M  V30 59 H 0.720217 -2.893450 -0.301574 0
M  V30 60 H 0.332686 -0.675429 3.156304 0
M  V30 END ATOM
M  V30 BEGIN BOND
M  V30 1 1 1 2
M  V30 2 1 2 3
M  V30 3 2 3 4
M  V30 4 1 4 5
M  V30 5 2 5 6
M  V30 6 1 6 7
M  V30 7 1 7 8
M  V30 8 1 8 9
M  V30 9 1 9 10
M  V30 10 1 10 11
M  V30 11 1 11 12
M  V30 12 1 12 13
M  V30 13 1 13 14
M  V30 14 1 14 15
M  V30 15 1 8 16
M  V30 16 1 16 17
M  V30 17 2 17 18
M  V30 18 1 17 19
M  V30 19 2 19 20
M  V30 20 1 20 21
M  V30 21 2 21 22
M  V30 22 1 22 23
M  V30 23 2 23 24
M  V30 24 1 24 25
M  V30 25 2 25 26
M  V30 26 1 26 27
M  V30 27 2 27 28
M  V30 28 1 22 29
M  V30 29 2 29 30
M  V30 30 2 7 31
M  V30 31 1 31 3
M  V30 32 1 15 11
M  V30 33 1 30 19
M  V30 34 1 28 23
M  V30 35 1 1 32
M  V30 36 1 1 33
M  V30 37 1 1 34
M  V30 38 1 4 35
M  V30 39 1 5 36
M  V30 40 1 6 37
M  V30 41 1 8 38 CFG=1
M  V30 42 1 9 39
M  V30 43 1 9 40
M  V30 44 1 10 41
M  V30 45 1 10 42
M  V30 46 1 12 43
M  V30 47 1 12 44
M  V30 48 1 13 45
M  V30 49 1 13 46
M  V30 50 1 14 47
M  V30 51 1 14 48
M  V30 52 1 15 49
M  V30 53 1 15 50
M  V30 54 1 16 51
M  V30 55 1 20 52
M  V30 56 1 21 53
M  V30 57 1 24 54
M  V30 58 1 25 55
M  V30 59 1 27 56
M  V30 60 1 28 57
M  V30 61 1 29 58
M  V30 62 1 30 59
M  V30 63 1 31 60
M  V30 END BOND
M  V30 END CTAB
M  END
>  <Dataset>  (235) 
ChEMBL_Kinases

>  <Ligand_Instance>  (235) 
nan

>  <PDB_ID>  (235) 
nan

>  <Standardized_SMILES>  (235) 
COc1cccc([C@@H](CCN2CCCC2)NC(=O)c2ccc(-c3ccncc3)cc2)c1

>  <Name>  (235) 
nan

>  <Pocket>  (235) 
nan

>  <ATP_Site>  (235) 
nan

>  <Peripheral>  (235) 
nan

>  <Num_H_Atoms_ProtBoundConf>  (235) 
nan

>  <Num_Resolved_Atoms>  (235) 
nan

>  <Num_Not_Resolved_Atoms>  (235) 
nan

$$$$
CHEMBL3087819
     RDKit          3D

  0  0  0  0  0  0  0  0  0  0999 V3000
M  V30 BEGIN CTAB
M  V30 COUNTS 51 55 0 0 0
M  V30 BEGIN ATOM
M  V30 1 C 5.826019 -3.811584 1.713538 0
M  V30 2 C 5.068107 -2.809740 2.467633 0
M  V30 3 N 5.086922 -2.699111 3.817951 0
M  V30 4 N 4.304397 -1.704205 4.195644 0
M  V30 5 C 4.103768 -1.321598 5.580909 0
M  V30 6 C 3.783473 -1.177831 3.073763 0
M  V30 7 C 4.238967 -1.846140 1.952818 0
M  V30 8 C 3.878342 -1.541301 0.576631 0
M  V30 9 N 3.044946 -0.557862 0.202780 0
M  V30 10 C 2.902426 -0.513744 -1.109680 0
M  V30 11 C 2.161217 0.312229 -1.945595 0
M  V30 12 O 1.377966 1.324335 -1.416410 0
M  V30 13 C 0.066388 1.117260 -1.025286 0
M  V30 14 C -0.156194 0.703565 0.293942 0
M  V30 15 C -1.435830 0.461874 0.807129 0
M  V30 16 C -2.537068 0.632371 -0.003570 0
M  V30 17 C -3.860452 0.377601 0.542903 0
M  V30 18 O -3.979502 0.008584 1.736774 0
M  V30 19 N -5.063126 0.519636 -0.196014 0
M  V30 20 C -6.200830 0.193409 0.628382 0
M  V30 21 C -6.706494 1.301587 1.306241 0
M  V30 22 C -7.809230 1.060339 2.123919 0
M  V30 23 N -8.373510 -0.151034 2.271950 0
M  V30 24 C -7.853371 -1.192740 1.599090 0
M  V30 25 C -6.768466 -1.039210 0.773803 0
M  V30 26 C -2.351446 1.038925 -1.306955 0
M  V30 27 C -1.077870 1.266846 -1.775829 0
M  V30 28 C 2.280978 0.033926 -3.289537 0
M  V30 29 Cl 1.421499 0.990621 -4.454291 0
M  V30 30 C 3.056148 -0.968979 -3.827925 0
M  V30 31 N 3.768765 -1.758705 -2.976330 0
M  V30 32 C 3.676775 -1.514582 -1.639313 0
M  V30 33 N 4.247129 -2.107356 -0.575258 0
M  V30 34 H 6.511948 -3.295787 1.017012 0
M  V30 35 H 6.459505 -4.443893 2.376375 0
M  V30 36 H 5.147737 -4.457446 1.106194 0
M  V30 37 H 3.197111 -0.694582 5.695137 0
M  V30 38 H 4.004464 -2.202451 6.223187 0
M  V30 39 H 4.947175 -0.671448 5.946046 0
M  V30 40 H 3.098858 -0.335407 3.121319 0
M  V30 41 H 0.619956 0.536465 1.026302 0
M  V30 42 H -1.600836 0.144355 1.820778 0
M  V30 43 H -5.023231 0.823509 -1.192172 0
M  V30 44 H -6.296037 2.315346 1.231528 0
M  V30 45 H -8.284180 1.862407 2.701258 0
M  V30 46 H -8.251319 -2.201855 1.665007 0
M  V30 47 H -6.295706 -1.822264 0.202932 0
M  V30 48 H -3.182917 1.186093 -1.979978 0
M  V30 49 H -0.955512 1.584139 -2.787000 0
M  V30 50 H 3.134027 -1.168278 -4.885297 0
M  V30 51 H 4.895815 -2.912998 -0.687778 0
M  V30 END ATOM
M  V30 BEGIN BOND
M  V30 1 1 1 2
M  V30 2 2 2 3
M  V30 3 1 3 4
M  V30 4 1 4 5
M  V30 5 1 4 6
M  V30 6 2 6 7
M  V30 7 1 7 8
M  V30 8 2 8 9
M  V30 9 1 9 10
M  V30 10 2 10 11
M  V30 11 1 11 12
M  V30 12 1 12 13
M  V30 13 2 13 14
M  V30 14 1 14 15
M  V30 15 2 15 16
M  V30 16 1 16 17
M  V30 17 2 17 18
M  V30 18 1 17 19
M  V30 19 1 19 20
M  V30 20 2 20 21
M  V30 21 1 21 22
M  V30 22 2 22 23
M  V30 23 1 23 24
M  V30 24 2 24 25
M  V30 25 1 16 26
M  V30 26 2 26 27
M  V30 27 1 11 28
M  V30 28 1 28 29
M  V30 29 2 28 30
M  V30 30 1 30 31
M  V30 31 2 31 32
M  V30 32 1 32 33
M  V30 33 1 7 2
M  V30 34 1 33 8
M  V30 35 1 32 10
M  V30 36 1 27 13
M  V30 37 1 25 20
M  V30 38 1 1 34
M  V30 39 1 1 35
M  V30 40 1 1 36
M  V30 41 1 5 37
M  V30 42 1 5 38
M  V30 43 1 5 39
M  V30 44 1 6 40
M  V30 45 1 14 41
M  V30 46 1 15 42
M  V30 47 1 19 43
M  V30 48 1 21 44
M  V30 49 1 22 45
M  V30 50 1 24 46
M  V30 51 1 25 47
M  V30 52 1 26 48
M  V30 53 1 27 49
M  V30 54 1 30 50
M  V30 55 1 33 51
M  V30 END BOND
M  V30 END CTAB
M  END
>  <Dataset>  (236) 
ChEMBL_Kinases

>  <Ligand_Instance>  (236) 
nan

>  <PDB_ID>  (236) 
nan

>  <Standardized_SMILES>  (236) 
Cc1nn(C)cc1-c1nc2c(Oc3ccc(C(=O)Nc4ccncc4)cc3)c(Cl)cnc2[nH]1

>  <Name>  (236) 
nan

>  <Pocket>  (236) 
nan

>  <ATP_Site>  (236) 
nan

>  <Peripheral>  (236) 
nan

>  <Num_H_Atoms_ProtBoundConf>  (236) 
nan

>  <Num_Resolved_Atoms>  (236) 
nan

>  <Num_Not_Resolved_Atoms>  (236) 
nan

$$$$
CHEMBL3087820
     RDKit          3D

  0  0  0  0  0  0  0  0  0  0999 V3000
M  V30 BEGIN CTAB
M  V30 COUNTS 51 55 0 0 0
M  V30 BEGIN ATOM
M  V30 1 C 5.712584 -4.437297 0.872671 0
M  V30 2 C 4.974274 -3.668361 1.905767 0
M  V30 3 N 4.957896 -3.969120 3.225874 0
M  V30 4 N 4.207502 -3.087102 3.865129 0
M  V30 5 C 3.924930 -3.045351 5.291152 0
M  V30 6 C 3.752620 -2.229903 2.936218 0
M  V30 7 C 4.207553 -2.550335 1.673987 0
M  V30 8 C 3.909142 -1.836284 0.445933 0
M  V30 9 N 3.132088 -0.742142 0.368364 0
M  V30 10 C 3.060879 -0.333842 -0.894875 0
M  V30 11 C 2.390223 0.726608 -1.435323 0
M  V30 12 O 1.625010 1.590134 -0.639268 0
M  V30 13 C 0.262683 1.325844 -0.406950 0
M  V30 14 C -0.457649 2.218152 0.394563 0
M  V30 15 C -1.789510 1.989716 0.641377 0
M  V30 16 C -2.387551 0.895205 0.099908 0
M  V30 17 C -3.781885 0.485874 0.246367 0
M  V30 18 O -4.373961 -0.517568 -0.236910 0
M  V30 19 N -4.677140 1.274251 1.031547 0
M  V30 20 C -6.053733 0.930234 1.215660 0
M  V30 21 C -7.111212 1.341627 0.397289 0
M  V30 22 C -8.391532 0.941074 0.683003 0
M  V30 23 C -8.695688 0.137336 1.757440 0
M  V30 24 N -7.686505 -0.273014 2.563646 0
M  V30 25 C -6.410421 0.117457 2.291316 0
M  V30 26 C -1.682597 0.014544 -0.689364 0
M  V30 27 C -0.331259 0.212083 -0.962300 0
M  V30 28 C 2.499104 0.912001 -2.805611 0
M  V30 29 Cl 1.651700 2.269657 -3.560770 0
M  V30 30 C 3.259025 0.051337 -3.583467 0
M  V30 31 N 3.917298 -0.998472 -3.016547 0
M  V30 32 C 3.811672 -1.178573 -1.686204 0
M  V30 33 N 4.305647 -2.076155 -0.813014 0
M  V30 34 H 6.487464 -3.831039 0.364032 0
M  V30 35 H 6.236434 -5.319000 1.333280 0
M  V30 36 H 5.019576 -4.862227 0.129933 0
M  V30 37 H 4.676916 -3.586966 5.881229 0
M  V30 38 H 2.899555 -3.435800 5.444154 0
M  V30 39 H 3.944197 -1.998419 5.669070 0
M  V30 40 H 3.095222 -1.372338 3.149903 0
M  V30 41 H -0.014950 3.098410 0.841446 0
M  V30 42 H -2.415980 2.621182 1.243381 0
M  V30 43 H -4.383096 2.150631 1.520092 0
M  V30 44 H -6.818827 1.970784 -0.431750 0
M  V30 45 H -9.194996 1.287245 0.013492 0
M  V30 46 H -9.733258 -0.148354 1.933697 0
M  V30 47 H -5.686333 -0.269632 3.001401 0
M  V30 48 H -2.071103 -0.894366 -1.171245 0
M  V30 49 H 0.269349 -0.456367 -1.580915 0
M  V30 50 H 3.283711 0.279187 -4.651835 0
M  V30 51 H 4.922634 -2.849255 -1.141311 0
M  V30 END ATOM
M  V30 BEGIN BOND
M  V30 1 1 1 2
M  V30 2 2 2 3
M  V30 3 1 3 4
M  V30 4 1 4 5
M  V30 5 1 4 6
M  V30 6 2 6 7
M  V30 7 1 7 8
M  V30 8 2 8 9
M  V30 9 1 9 10
M  V30 10 2 10 11
M  V30 11 1 11 12
M  V30 12 1 12 13
M  V30 13 2 13 14
M  V30 14 1 14 15
M  V30 15 2 15 16
M  V30 16 1 16 17
M  V30 17 2 17 18
M  V30 18 1 17 19
M  V30 19 1 19 20
M  V30 20 2 20 21
M  V30 21 1 21 22
M  V30 22 2 22 23
M  V30 23 1 23 24
M  V30 24 2 24 25
M  V30 25 1 16 26
M  V30 26 2 26 27
M  V30 27 1 11 28
M  V30 28 1 28 29
M  V30 29 2 28 30
M  V30 30 1 30 31
M  V30 31 2 31 32
M  V30 32 1 32 33
M  V30 33 1 7 2
M  V30 34 1 33 8
M  V30 35 1 32 10
M  V30 36 1 27 13
M  V30 37 1 25 20
M  V30 38 1 1 34
M  V30 39 1 1 35
M  V30 40 1 1 36
M  V30 41 1 5 37
M  V30 42 1 5 38
M  V30 43 1 5 39
M  V30 44 1 6 40
M  V30 45 1 14 41
M  V30 46 1 15 42
M  V30 47 1 19 43
M  V30 48 1 21 44
M  V30 49 1 22 45
M  V30 50 1 23 46
M  V30 51 1 25 47
M  V30 52 1 26 48
M  V30 53 1 27 49
M  V30 54 1 30 50
M  V30 55 1 33 51
M  V30 END BOND
M  V30 END CTAB
M  END
>  <Dataset>  (237) 
ChEMBL_Kinases

>  <Ligand_Instance>  (237) 
nan

>  <PDB_ID>  (237) 
nan

>  <Standardized_SMILES>  (237) 
Cc1nn(C)cc1-c1nc2c(Oc3ccc(C(=O)Nc4cccnc4)cc3)c(Cl)cnc2[nH]1

>  <Name>  (237) 
nan

>  <Pocket>  (237) 
nan

>  <ATP_Site>  (237) 
nan

>  <Peripheral>  (237) 
nan

>  <Num_H_Atoms_ProtBoundConf>  (237) 
nan

>  <Num_Resolved_Atoms>  (237) 
nan

>  <Num_Not_Resolved_Atoms>  (237) 
nan

$$$$
CHEMBL3087821
     RDKit          3D

  0  0  0  0  0  0  0  0  0  0999 V3000
M  V30 BEGIN CTAB
M  V30 COUNTS 55 59 0 0 0
M  V30 BEGIN ATOM
M  V30 1 C 6.027611 -2.331309 -1.210763 0
M  V30 2 C 5.361917 -2.169948 0.089658 0
M  V30 3 N 5.543133 -2.949819 1.188434 0
M  V30 4 N 4.806109 -2.550739 2.191285 0
M  V30 5 C 4.682004 -3.078583 3.536406 0
M  V30 6 C 4.121856 -1.482495 1.745333 0
M  V30 7 C 4.445906 -1.214961 0.430252 0
M  V30 8 C 3.890952 -0.128384 -0.366337 0
M  V30 9 N 2.983508 0.773948 0.049622 0
M  V30 10 C 2.672440 1.651863 -0.928959 0
M  V30 11 C 1.776695 2.729391 -0.888687 0
M  V30 12 O 1.084120 2.968132 0.316335 0
M  V30 13 C -0.148875 2.342758 0.523247 0
M  V30 14 C -0.907050 2.505742 1.679110 0
M  V30 15 C -2.129198 1.829714 1.779198 0
M  V30 16 C -2.622279 1.007394 0.787147 0
M  V30 17 C -3.907938 0.355484 1.010652 0
M  V30 18 O -4.468267 0.586245 2.111237 0
M  V30 19 N -4.521753 -0.498544 0.060021 0
M  V30 20 C -5.791856 -1.172144 0.229036 0
M  V30 21 C -5.686487 -2.348532 1.124933 0
M  V30 22 C -5.873961 -2.362177 2.492790 0
M  V30 23 C -5.749126 -3.515009 3.238301 0
M  V30 24 C -5.426316 -4.717729 2.631416 0
M  V30 25 C -5.231892 -4.731394 1.252241 0
M  V30 26 C -5.365635 -3.565430 0.551465 0
M  V30 27 C -1.873715 0.843883 -0.359264 0
M  V30 28 C -0.671895 1.515096 -0.445554 0
M  V30 29 C 1.667710 3.456682 -2.061553 0
M  V30 30 Cl 0.559261 4.800302 -2.032073 0
M  V30 31 C 2.428337 3.075571 -3.150417 0
M  V30 32 N 3.275141 2.030055 -3.135310 0
M  V30 33 C 3.423146 1.286824 -2.025504 0
M  V30 34 N 4.139557 0.213598 -1.641915 0
M  V30 35 H 6.722991 -3.221534 -1.156170 0
M  V30 36 H 6.686399 -1.490090 -1.499589 0
M  V30 37 H 5.355105 -2.570639 -2.054908 0
M  V30 38 H 3.649571 -3.443387 3.712034 0
M  V30 39 H 5.465975 -3.827109 3.764122 0
M  V30 40 H 4.858266 -2.245518 4.252495 0
M  V30 41 H 3.406831 -0.900443 2.333184 0
M  V30 42 H -0.515284 3.146068 2.442417 0
M  V30 43 H -2.651584 2.013798 2.711535 0
M  V30 44 H -4.030839 -0.672959 -0.854067 0
M  V30 45 H -6.567391 -0.452920 0.607743 0
M  V30 46 H -6.201910 -1.531299 -0.736056 0
M  V30 47 H -6.125373 -1.424924 2.950821 0
M  V30 48 H -5.900765 -3.494118 4.299232 0
M  V30 49 H -5.312882 -5.660211 3.157233 0
M  V30 50 H -4.977780 -5.677964 0.773730 0
M  V30 51 H -5.200210 -3.648481 -0.520845 0
M  V30 52 H -2.225892 0.216099 -1.143135 0
M  V30 53 H -0.099142 1.365591 -1.369046 0
M  V30 54 H 2.299485 3.682944 -4.037310 0
M  V30 55 H 4.796349 -0.259325 -2.297960 0
M  V30 END ATOM
M  V30 BEGIN BOND
M  V30 1 1 1 2
M  V30 2 2 2 3
M  V30 3 1 3 4
M  V30 4 1 4 5
M  V30 5 1 4 6
M  V30 6 2 6 7
M  V30 7 1 7 8
M  V30 8 2 8 9
M  V30 9 1 9 10
M  V30 10 2 10 11
M  V30 11 1 11 12
M  V30 12 1 12 13
M  V30 13 2 13 14
M  V30 14 1 14 15
M  V30 15 2 15 16
M  V30 16 1 16 17
M  V30 17 2 17 18
M  V30 18 1 17 19
M  V30 19 1 19 20
M  V30 20 1 20 21
M  V30 21 2 21 22
M  V30 22 1 22 23
M  V30 23 2 23 24
M  V30 24 1 24 25
M  V30 25 2 25 26
M  V30 26 1 16 27
M  V30 27 2 27 28
M  V30 28 1 11 29
M  V30 29 1 29 30
M  V30 30 2 29 31
M  V30 31 1 31 32
M  V30 32 2 32 33
M  V30 33 1 33 34
M  V30 34 1 7 2
M  V30 35 1 34 8
M  V30 36 1 33 10
M  V30 37 1 28 13
M  V30 38 1 26 21
M  V30 39 1 1 35
M  V30 40 1 1 36
M  V30 41 1 1 37
M  V30 42 1 5 38
M  V30 43 1 5 39
M  V30 44 1 5 40
M  V30 45 1 6 41
M  V30 46 1 14 42
M  V30 47 1 15 43
M  V30 48 1 19 44
M  V30 49 1 20 45
M  V30 50 1 20 46
M  V30 51 1 22 47
M  V30 52 1 23 48
M  V30 53 1 24 49
M  V30 54 1 25 50
M  V30 55 1 26 51
M  V30 56 1 27 52
M  V30 57 1 28 53
M  V30 58 1 31 54
M  V30 59 1 34 55
M  V30 END BOND
M  V30 END CTAB
M  END
>  <Dataset>  (238) 
ChEMBL_Kinases

>  <Ligand_Instance>  (238) 
nan

>  <PDB_ID>  (238) 
nan

>  <Standardized_SMILES>  (238) 
Cc1nn(C)cc1-c1nc2c(Oc3ccc(C(=O)NCc4ccccc4)cc3)c(Cl)cnc2[nH]1

>  <Name>  (238) 
nan

>  <Pocket>  (238) 
nan

>  <ATP_Site>  (238) 
nan

>  <Peripheral>  (238) 
nan

>  <Num_H_Atoms_ProtBoundConf>  (238) 
nan

>  <Num_Resolved_Atoms>  (238) 
nan

>  <Num_Not_Resolved_Atoms>  (238) 
nan

$$$$
CHEMBL3685220
     RDKit          3D

  0  0  0  0  0  0  0  0  0  0999 V3000
M  V30 BEGIN CTAB
M  V30 COUNTS 51 55 0 0 0
M  V30 BEGIN ATOM
M  V30 1 N 3.585517 0.879879 6.631306 0
M  V30 2 C 3.947772 -0.364151 6.046337 0
M  V30 3 O 4.406100 -1.148450 6.900412 0
M  V30 4 C 3.843135 -0.778938 4.652671 0
M  V30 5 C 4.273015 -2.048329 4.380560 0
M  V30 6 C 4.179239 -2.461482 3.048629 0
M  V30 7 C 3.674271 -1.600228 2.098517 0
M  V30 8 C 3.244405 -0.337102 2.358055 0
M  V30 9 C 2.750576 0.482832 1.384043 0
M  V30 10 N 2.653318 0.074879 0.026246 0
M  V30 11 C 2.137339 0.890743 -1.063736 0
M  V30 12 C 0.726783 1.281102 -0.900660 0
M  V30 13 C 0.151873 2.403256 -0.366977 0
M  V30 14 C -1.217944 2.547312 -0.307237 0
M  V30 15 C -2.092561 1.589378 -0.772508 0
M  V30 16 C -1.539853 0.448520 -1.315776 0
M  V30 17 N -2.437439 -0.530105 -1.791398 0
M  V30 18 C -2.917920 -0.663894 -3.045828 0
M  V30 19 O -2.496461 0.194963 -3.845915 0
M  V30 20 N -3.775800 -1.654606 -3.358604 0
M  V30 21 C -4.198553 -2.556702 -2.451887 0
M  V30 22 C -5.070792 -3.523636 -2.873319 0
M  V30 23 C -5.489572 -4.438843 -1.919827 0
M  V30 24 C -5.037761 -4.355121 -0.632391 0
M  V30 25 C -4.156226 -3.367276 -0.233638 0
M  V30 26 C -3.714040 -2.433135 -1.157828 0
M  V30 27 C -2.828518 -1.411539 -0.832362 0
M  V30 28 O -2.475320 -1.425220 0.376952 0
M  V30 29 C -0.164564 0.311185 -1.372028 0
M  V30 30 N 2.365712 1.687895 1.765951 0
M  V30 31 C 2.450201 2.088994 3.023853 0
M  V30 32 N 2.938985 1.289879 4.013131 0
M  V30 33 C 3.345385 0.049524 3.674769 0
M  V30 34 H 2.605856 1.176671 6.366104 0
M  V30 35 H 4.239218 1.428757 7.258015 0
M  V30 36 H 4.664430 -2.714384 5.119629 0
M  V30 37 H 4.521862 -3.474046 2.830222 0
M  V30 38 H 3.653909 -2.032039 1.120188 0
M  V30 39 H 2.959104 -0.874372 -0.277574 0
M  V30 40 H 2.710876 1.867003 -1.098720 0
M  V30 41 H 2.287941 0.381105 -2.023357 0
M  V30 42 H 0.854844 3.131244 -0.022091 0
M  V30 43 H -1.561092 3.465579 0.130759 0
M  V30 44 H -3.144545 1.787500 -0.684706 0
M  V30 45 H -4.081994 -1.659480 -4.364001 0
M  V30 46 H -5.427656 -3.595365 -3.875808 0
M  V30 47 H -6.167491 -5.224974 -2.158421 0
M  V30 48 H -5.363575 -5.068964 0.113856 0
M  V30 49 H -3.806969 -3.310109 0.780770 0
M  V30 50 H 0.145498 -0.637700 -1.824872 0
M  V30 51 H 2.097185 3.105283 3.195156 0
M  V30 END ATOM
M  V30 BEGIN BOND
M  V30 1 1 1 2
M  V30 2 2 2 3
M  V30 3 1 2 4
M  V30 4 2 4 5
M  V30 5 1 5 6
M  V30 6 2 6 7
M  V30 7 1 7 8
M  V30 8 2 8 9
M  V30 9 1 9 10
M  V30 10 1 10 11
M  V30 11 1 11 12
M  V30 12 2 12 13
M  V30 13 1 13 14
M  V30 14 2 14 15
M  V30 15 1 15 16
M  V30 16 1 16 17
M  V30 17 1 17 18
M  V30 18 2 18 19
M  V30 19 1 18 20
M  V30 20 1 20 21
M  V30 21 2 21 22
M  V30 22 1 22 23
M  V30 23 2 23 24
M  V30 24 1 24 25
M  V30 25 2 25 26
M  V30 26 1 26 27
M  V30 27 2 27 28
M  V30 28 2 16 29
M  V30 29 1 9 30
M  V30 30 2 30 31
M  V30 31 1 31 32
M  V30 32 2 32 33
M  V30 33 1 33 4
M  V30 34 1 33 8
M  V30 35 1 29 12
M  V30 36 1 27 17
M  V30 37 1 26 21
M  V30 38 1 1 34
M  V30 39 1 1 35
M  V30 40 1 5 36
M  V30 41 1 6 37
M  V30 42 1 7 38
M  V30 43 1 10 39
M  V30 44 1 11 40
M  V30 45 1 11 41
M  V30 46 1 13 42
M  V30 47 1 14 43
M  V30 48 1 15 44
M  V30 49 1 20 45
M  V30 50 1 22 46
M  V30 51 1 23 47
M  V30 52 1 24 48
M  V30 53 1 25 49
M  V30 54 1 29 50
M  V30 55 1 31 51
M  V30 END BOND
M  V30 END CTAB
M  END
>  <Dataset>  (239) 
ChEMBL_Kinases

>  <Ligand_Instance>  (239) 
nan

>  <PDB_ID>  (239) 
nan

>  <Standardized_SMILES>  (239) 
NC(=O)c1cccc2c(NCc3cccc(-n4c(=O)[nH]c5ccccc5c4=O)c3)ncnc12

>  <Name>  (239) 
nan

>  <Pocket>  (239) 
nan

>  <ATP_Site>  (239) 
nan

>  <Peripheral>  (239) 
nan

>  <Num_H_Atoms_ProtBoundConf>  (239) 
nan

>  <Num_Resolved_Atoms>  (239) 
nan

>  <Num_Not_Resolved_Atoms>  (239) 
nan

$$$$
CHEMBL216148
     RDKit          3D

  0  0  0  0  0  0  0  0  0  0999 V3000
M  V30 BEGIN CTAB
M  V30 COUNTS 53 55 0 0 0
M  V30 BEGIN ATOM
M  V30 1 C 3.265652 -1.602365 4.815719 0
M  V30 2 C 3.976338 -0.433180 4.224761 0
M  V30 3 O 3.316371 0.219744 3.186985 0
M  V30 4 C 3.875578 1.320681 2.557354 0
M  V30 5 C 5.108981 1.773880 2.972838 0
M  V30 6 C 5.657485 2.867679 2.346437 0
M  V30 7 C 5.019504 3.520398 1.325176 0
M  V30 8 C 3.795727 3.008628 0.968954 0
M  V30 9 C 3.152541 1.905121 1.540028 0
M  V30 10 C 1.864104 1.484339 1.022315 0
M  V30 11 O 1.096440 2.497513 0.945259 0
M  V30 12 C 1.319293 0.206237 0.601243 0
M  V30 13 C 2.001016 -0.985348 0.527772 0
M  V30 14 N 1.423152 -2.127457 0.114122 0
M  V30 15 C 0.114815 -2.118516 -0.249047 0
M  V30 16 N -0.618449 -3.249801 -0.703785 0
M  V30 17 C -2.010990 -3.235932 -1.089058 0
M  V30 18 C -2.875340 -2.798011 0.046776 0
M  V30 19 C -3.901259 -1.759008 -0.353767 0
M  V30 20 N -4.489091 -2.085826 -1.625424 0
M  V30 21 C -5.883935 -2.145659 -1.906522 0
M  V30 22 C -6.997546 -1.888332 -0.965794 0
M  V30 23 O -6.416846 -2.434505 -3.030223 0
M  V30 24 C -3.653526 -2.390925 -2.763215 0
M  V30 25 C -2.216339 -2.380805 -2.324773 0
M  V30 26 N -0.561778 -0.960205 -0.181918 0
M  V30 27 C -0.005608 0.203391 0.230595 0
M  V30 28 N -0.870112 1.357505 0.244095 0
M  V30 29 H 2.839869 -1.391503 5.832225 0
M  V30 30 H 4.009017 -2.428240 5.014388 0
M  V30 31 H 2.471940 -2.043953 4.207192 0
M  V30 32 H 4.966200 -0.773279 3.819287 0
M  V30 33 H 4.192578 0.287015 5.054243 0
M  V30 34 H 5.621685 1.257396 3.786424 0
M  V30 35 H 6.633050 3.254202 2.649565 0
M  V30 36 H 5.406028 4.383499 0.800247 0
M  V30 37 H 3.265293 3.512055 0.155461 0
M  V30 38 H 3.041867 -1.002151 0.804856 0
M  V30 39 H -0.034391 -4.135110 -0.736634 0
M  V30 40 H -2.288693 -4.281988 -1.342047 0
M  V30 41 H -2.245687 -2.303910 0.827629 0
M  V30 42 H -3.448019 -3.641199 0.477073 0
M  V30 43 H -3.344080 -0.779406 -0.423399 0
M  V30 44 H -4.647505 -1.728818 0.465855 0
M  V30 45 H -7.663115 -2.783481 -0.911679 0
M  V30 46 H -6.644566 -1.698115 0.067436 0
M  V30 47 H -7.571343 -1.016673 -1.346783 0
M  V30 48 H -3.745479 -1.574401 -3.528982 0
M  V30 49 H -3.960046 -3.358319 -3.216818 0
M  V30 50 H -1.976183 -1.336463 -2.053227 0
M  V30 51 H -1.515326 -2.663537 -3.117290 0
M  V30 52 H -0.899731 1.659494 -0.757556 0
M  V30 53 H -1.363477 1.803664 1.063231 0
M  V30 END ATOM
M  V30 BEGIN BOND
M  V30 1 1 1 2
M  V30 2 1 2 3
M  V30 3 1 3 4
M  V30 4 2 4 5
M  V30 5 1 5 6
M  V30 6 2 6 7
M  V30 7 1 7 8
M  V30 8 2 8 9
M  V30 9 1 9 10
M  V30 10 2 10 11
M  V30 11 1 10 12
M  V30 12 2 12 13
M  V30 13 1 13 14
M  V30 14 2 14 15
M  V30 15 1 15 16
M  V30 16 1 16 17
M  V30 17 1 17 18
M  V30 18 1 18 19
M  V30 19 1 19 20
M  V30 20 1 20 21
M  V30 21 1 21 22
M  V30 22 2 21 23
M  V30 23 1 20 24
M  V30 24 1 24 25
M  V30 25 1 15 26
M  V30 26 2 26 27
M  V30 27 1 27 28
M  V30 28 1 9 4
M  V30 29 1 27 12
M  V30 30 1 25 17
M  V30 31 1 1 29
M  V30 32 1 1 30
M  V30 33 1 1 31
M  V30 34 1 2 32
M  V30 35 1 2 33
M  V30 36 1 5 34
M  V30 37 1 6 35
M  V30 38 1 7 36
M  V30 39 1 8 37
M  V30 40 1 13 38
M  V30 41 1 16 39
M  V30 42 1 17 40
M  V30 43 1 18 41
M  V30 44 1 18 42
M  V30 45 1 19 43
M  V30 46 1 19 44
M  V30 47 1 22 45
M  V30 48 1 22 46
M  V30 49 1 22 47
M  V30 50 1 24 48
M  V30 51 1 24 49
M  V30 52 1 25 50
M  V30 53 1 25 51
M  V30 54 1 28 52
M  V30 55 1 28 53
M  V30 END BOND
M  V30 END CTAB
M  END
>  <Dataset>  (240) 
ChEMBL_Kinases

>  <Ligand_Instance>  (240) 
nan

>  <PDB_ID>  (240) 
nan

>  <Standardized_SMILES>  (240) 
CCOc1ccccc1C(=O)c1cnc(NC2CCN(C(C)=O)CC2)nc1N

>  <Name>  (240) 
nan

>  <Pocket>  (240) 
nan

>  <ATP_Site>  (240) 
nan

>  <Peripheral>  (240) 
nan

>  <Num_H_Atoms_ProtBoundConf>  (240) 
nan

>  <Num_Resolved_Atoms>  (240) 
nan

>  <Num_Not_Resolved_Atoms>  (240) 
nan

$$$$
CHEMBL216126
     RDKit          3D

  0  0  0  0  0  0  0  0  0  0999 V3000
M  V30 BEGIN CTAB
M  V30 COUNTS 51 53 0 0 0
M  V30 BEGIN ATOM
M  V30 1 C 4.833600 0.799208 3.594306 0
M  V30 2 O 4.451654 0.343296 2.311232 0
M  V30 3 C 5.225364 0.451863 1.183924 0
M  V30 4 C 6.455413 1.049899 1.347986 0
M  V30 5 C 7.270941 1.179444 0.243584 0
M  V30 6 C 6.867197 0.725754 -0.979585 0
M  V30 7 C 5.634141 0.141232 -1.077023 0
M  V30 8 C 4.740784 -0.032156 -0.012507 0
M  V30 9 C 3.438300 -0.643515 -0.208589 0
M  V30 10 O 3.613070 -1.713972 -0.849542 0
M  V30 11 C 2.086266 -0.271535 0.169918 0
M  V30 12 C 1.722483 0.898391 0.787970 0
M  V30 13 N 0.434339 1.148049 1.083204 0
M  V30 14 C -0.546300 0.247206 0.776996 0
M  V30 15 N -1.929643 0.438383 1.052241 0
M  V30 16 C -2.998256 -0.461663 0.764278 0
M  V30 17 C -2.766543 -1.746318 1.533872 0
M  V30 18 C -3.961060 -2.667860 1.442264 0
M  V30 19 N -4.737710 -2.444856 0.285597 0
M  V30 20 S -6.382996 -2.113659 0.505263 0
M  V30 21 C -6.734475 -0.656526 1.426437 0
M  V30 22 O -6.965059 -3.271417 1.307953 0
M  V30 23 O -7.159485 -2.072586 -0.763760 0
M  V30 24 C -4.115947 -1.923856 -0.865843 0
M  V30 25 C -3.107916 -0.845422 -0.688837 0
M  V30 26 N -0.166347 -0.890618 0.171870 0
M  V30 27 C 1.106941 -1.183513 -0.142206 0
M  V30 28 N 1.337204 -2.423394 -0.776980 0
M  V30 29 H 5.844999 0.482303 3.890535 0
M  V30 30 H 4.104257 0.370651 4.314069 0
M  V30 31 H 4.766607 1.917703 3.643573 0
M  V30 32 H 6.784209 1.414163 2.319898 0
M  V30 33 H 8.248244 1.640766 0.310322 0
M  V30 34 H 7.501516 0.823903 -1.849285 0
M  V30 35 H 5.339950 -0.209075 -2.057142 0
M  V30 36 H 2.472232 1.631549 1.032944 0
M  V30 37 H -2.124081 1.374445 1.525473 0
M  V30 38 H -3.946752 0.022647 1.033408 0
M  V30 39 H -2.598456 -1.466002 2.608354 0
M  V30 40 H -1.845172 -2.222511 1.150805 0
M  V30 41 H -4.592973 -2.656012 2.337475 0
M  V30 42 H -3.526974 -3.708565 1.392860 0
M  V30 43 H -6.095663 -0.551813 2.325227 0
M  V30 44 H -6.713351 0.277354 0.864398 0
M  V30 45 H -7.787607 -0.767585 1.801776 0
M  V30 46 H -4.941560 -1.615132 -1.573321 0
M  V30 47 H -3.602622 -2.778933 -1.394710 0
M  V30 48 H -3.471470 0.057922 -1.240228 0
M  V30 49 H -2.131036 -1.088853 -1.155446 0
M  V30 50 H 1.606119 -3.363404 -0.414385 0
M  V30 51 H 1.311325 -2.772088 -1.765964 0
M  V30 END ATOM
M  V30 BEGIN BOND
M  V30 1 1 1 2
M  V30 2 1 2 3
M  V30 3 2 3 4
M  V30 4 1 4 5
M  V30 5 2 5 6
M  V30 6 1 6 7
M  V30 7 2 7 8
M  V30 8 1 8 9
M  V30 9 2 9 10
M  V30 10 1 9 11
M  V30 11 2 11 12
M  V30 12 1 12 13
M  V30 13 2 13 14
M  V30 14 1 14 15
M  V30 15 1 15 16
M  V30 16 1 16 17
M  V30 17 1 17 18
M  V30 18 1 18 19
M  V30 19 1 19 20
M  V30 20 1 20 21
M  V30 21 2 20 22
M  V30 22 2 20 23
M  V30 23 1 19 24
M  V30 24 1 24 25
M  V30 25 1 14 26
M  V30 26 2 26 27
M  V30 27 1 27 28
M  V30 28 1 8 3
M  V30 29 1 27 11
M  V30 30 1 25 16
M  V30 31 1 1 29
M  V30 32 1 1 30
M  V30 33 1 1 31
M  V30 34 1 4 32
M  V30 35 1 5 33
M  V30 36 1 6 34
M  V30 37 1 7 35
M  V30 38 1 12 36
M  V30 39 1 15 37
M  V30 40 1 16 38
M  V30 41 1 17 39
M  V30 42 1 17 40
M  V30 43 1 18 41
M  V30 44 1 18 42
M  V30 45 1 21 43
M  V30 46 1 21 44
M  V30 47 1 21 45
M  V30 48 1 24 46
M  V30 49 1 24 47
M  V30 50 1 25 48
M  V30 51 1 25 49
M  V30 52 1 28 50
M  V30 53 1 28 51
M  V30 END BOND
M  V30 END CTAB
M  END
>  <Dataset>  (241) 
ChEMBL_Kinases

>  <Ligand_Instance>  (241) 
nan

>  <PDB_ID>  (241) 
nan

>  <Standardized_SMILES>  (241) 
COc1ccccc1C(=O)c1cnc(NC2CCN(S(C)(=O)=O)CC2)nc1N

>  <Name>  (241) 
nan

>  <Pocket>  (241) 
nan

>  <ATP_Site>  (241) 
nan

>  <Peripheral>  (241) 
nan

>  <Num_H_Atoms_ProtBoundConf>  (241) 
nan

>  <Num_Resolved_Atoms>  (241) 
nan

>  <Num_Not_Resolved_Atoms>  (241) 
nan

$$$$
CHEMBL3087783
     RDKit          3D

  0  0  0  0  0  0  0  0  0  0999 V3000
M  V30 BEGIN CTAB
M  V30 COUNTS 53 57 0 0 0
M  V30 BEGIN ATOM
M  V30 1 C 5.493125 2.915897 -0.972847 0
M  V30 2 C 4.897465 2.674379 0.355098 0
M  V30 3 N 4.947313 3.527197 1.409185 0
M  V30 4 N 4.329162 3.029091 2.441987 0
M  V30 5 C 4.133204 3.586421 3.773139 0
M  V30 6 C 3.864081 1.832519 2.069033 0
M  V30 7 C 4.196790 1.561703 0.758774 0
M  V30 8 C 3.858670 0.355875 0.020416 0
M  V30 9 N 3.160235 -0.680025 0.518158 0
M  V30 10 C 3.000692 -1.655119 -0.392792 0
M  V30 11 C 2.356468 -2.874170 -0.298128 0
M  V30 12 N 1.699445 -3.336236 0.875131 0
M  V30 13 C 0.320026 -3.039333 1.050728 0
M  V30 14 C -0.404897 -3.441811 2.173935 0
M  V30 15 C -1.746487 -3.142773 2.322638 0
M  V30 16 C -2.426941 -2.424202 1.350197 0
M  V30 17 C -3.841395 -2.143521 1.572129 0
M  V30 18 O -4.358132 -2.563334 2.632853 0
M  V30 19 N -4.605733 -1.422427 0.624132 0
M  V30 20 C -5.982333 -1.060278 0.673391 0
M  V30 21 C -6.596431 0.060802 1.178330 0
M  V30 22 C -7.966687 0.181204 1.106064 0
M  V30 23 C -8.767815 -0.789674 0.539440 0
M  V30 24 C -8.163758 -1.930819 0.023519 0
M  V30 25 C -6.777904 -2.056699 0.094525 0
M  V30 26 C -1.722251 -2.020856 0.236126 0
M  V30 27 C -0.383328 -2.325353 0.098636 0
M  V30 28 C 2.393177 -3.633118 -1.450998 0
M  V30 29 Cl 1.597956 -5.196435 -1.414943 0
M  V30 30 C 3.027939 -3.200279 -2.608683 0
M  V30 31 N 3.638225 -2.002070 -2.638659 0
M  V30 32 C 3.630971 -1.224413 -1.541251 0
M  V30 33 N 4.128443 -0.013063 -1.238855 0
M  V30 34 H 4.741212 2.907946 -1.790498 0
M  V30 35 H 6.055379 3.883990 -0.958217 0
M  V30 36 H 6.261292 2.144130 -1.246617 0
M  V30 37 H 4.033719 2.762749 4.509294 0
M  V30 38 H 5.013507 4.194942 4.065706 0
M  V30 39 H 3.173935 4.160198 3.804760 0
M  V30 40 H 3.292213 1.141611 2.702323 0
M  V30 41 H 2.161397 -3.886413 1.630637 0
M  V30 42 H 0.169518 -3.997968 2.901306 0
M  V30 43 H -2.226145 -3.502829 3.238822 0
M  V30 44 H -4.205170 -1.060335 -0.267932 0
M  V30 45 H -5.890985 0.753773 1.595784 0
M  V30 46 H -8.381125 1.079956 1.518641 0
M  V30 47 H -9.852783 -0.648946 0.504932 0
M  V30 48 H -8.792634 -2.696438 -0.422870 0
M  V30 49 H -6.413362 -2.998325 -0.344393 0
M  V30 50 H -2.230581 -1.461554 -0.531799 0
M  V30 51 H 0.104571 -1.982635 -0.790443 0
M  V30 52 H 2.990474 -3.886510 -3.455170 0
M  V30 53 H 4.652336 0.529594 -1.937071 0
M  V30 END ATOM
M  V30 BEGIN BOND
M  V30 1 1 1 2
M  V30 2 2 2 3
M  V30 3 1 3 4
M  V30 4 1 4 5
M  V30 5 1 4 6
M  V30 6 2 6 7
M  V30 7 1 7 8
M  V30 8 2 8 9
M  V30 9 1 9 10
M  V30 10 2 10 11
M  V30 11 1 11 12
M  V30 12 1 12 13
M  V30 13 2 13 14
M  V30 14 1 14 15
M  V30 15 2 15 16
M  V30 16 1 16 17
M  V30 17 2 17 18
M  V30 18 1 17 19
M  V30 19 1 19 20
M  V30 20 2 20 21
M  V30 21 1 21 22
M  V30 22 2 22 23
M  V30 23 1 23 24
M  V30 24 2 24 25
M  V30 25 1 16 26
M  V30 26 2 26 27
M  V30 27 1 11 28
M  V30 28 1 28 29
M  V30 29 2 28 30
M  V30 30 1 30 31
M  V30 31 2 31 32
M  V30 32 1 32 33
M  V30 33 1 7 2
M  V30 34 1 33 8
M  V30 35 1 32 10
M  V30 36 1 27 13
M  V30 37 1 25 20
M  V30 38 1 1 34
M  V30 39 1 1 35
M  V30 40 1 1 36
M  V30 41 1 5 37
M  V30 42 1 5 38
M  V30 43 1 5 39
M  V30 44 1 6 40
M  V30 45 1 12 41
M  V30 46 1 14 42
M  V30 47 1 15 43
M  V30 48 1 19 44
M  V30 49 1 21 45
M  V30 50 1 22 46
M  V30 51 1 23 47
M  V30 52 1 24 48
M  V30 53 1 25 49
M  V30 54 1 26 50
M  V30 55 1 27 51
M  V30 56 1 30 52
M  V30 57 1 33 53
M  V30 END BOND
M  V30 END CTAB
M  END
>  <Dataset>  (242) 
ChEMBL_Kinases

>  <Ligand_Instance>  (242) 
nan

>  <PDB_ID>  (242) 
nan

>  <Standardized_SMILES>  (242) 
Cc1nn(C)cc1-c1nc2c(Nc3ccc(C(=O)Nc4ccccc4)cc3)c(Cl)cnc2[nH]1

>  <Name>  (242) 
nan

>  <Pocket>  (242) 
nan

>  <ATP_Site>  (242) 
nan

>  <Peripheral>  (242) 
nan

>  <Num_H_Atoms_ProtBoundConf>  (242) 
nan

>  <Num_Resolved_Atoms>  (242) 
nan

>  <Num_Not_Resolved_Atoms>  (242) 
nan

$$$$
CHEMBL4288628
     RDKit          3D

  0  0  0  0  0  0  0  0  0  0999 V3000
M  V30 BEGIN CTAB
M  V30 COUNTS 24 25 0 0 0
M  V30 BEGIN ATOM
M  V30 1 C 1.921971 -1.059953 4.970641 0
M  V30 2 N 1.667679 -0.559951 3.634136 0
M  V30 3 C 0.938376 -0.943324 2.596083 0
M  V30 4 C 1.067072 -0.068470 1.537814 0
M  V30 5 C 0.412958 -0.172198 0.236955 0
M  V30 6 C 0.136557 -1.427570 -0.294662 0
M  V30 7 N -0.456978 -1.623256 -1.473408 0
M  V30 8 C -0.804712 -0.536883 -2.181851 0
M  V30 9 O -1.368138 -0.693796 -3.301245 0
M  V30 10 C -0.581922 0.766951 -1.757674 0
M  V30 11 N -0.965411 1.898765 -2.537910 0
M  V30 12 C 0.040816 0.909798 -0.520009 0
M  V30 13 C 1.940767 0.881248 2.027082 0
M  V30 14 N 2.275445 0.559181 3.269362 0
M  V30 15 H 1.324817 -1.961918 5.211415 0
M  V30 16 H 1.666079 -0.258048 5.706602 0
M  V30 17 H 3.012485 -1.316983 5.077196 0
M  V30 18 H 0.342301 -1.849356 2.659289 0
M  V30 19 H 0.422397 -2.309758 0.287549 0
M  V30 20 H -0.663816 -2.566952 -1.871210 0
M  V30 21 H -0.021311 2.117673 -2.944022 0
M  V30 22 H -1.974485 2.159785 -2.487149 0
M  V30 23 H 0.234494 1.896532 -0.149072 0
M  V30 24 H 2.284696 1.750229 1.458101 0
M  V30 END ATOM
M  V30 BEGIN BOND
M  V30 1 1 1 2
M  V30 2 1 2 3
M  V30 3 2 3 4
M  V30 4 1 4 5
M  V30 5 2 5 6
M  V30 6 1 6 7
M  V30 7 1 7 8
M  V30 8 2 8 9
M  V30 9 1 8 10
M  V30 10 1 10 11
M  V30 11 2 10 12
M  V30 12 1 4 13
M  V30 13 2 13 14
M  V30 14 1 14 2
M  V30 15 1 12 5
M  V30 16 1 1 15
M  V30 17 1 1 16
M  V30 18 1 1 17
M  V30 19 1 3 18
M  V30 20 1 6 19
M  V30 21 1 7 20
M  V30 22 1 11 21
M  V30 23 1 11 22
M  V30 24 1 12 23
M  V30 25 1 13 24
M  V30 END BOND
M  V30 END CTAB
M  END
>  <Dataset>  (243) 
ChEMBL_Kinases

>  <Ligand_Instance>  (243) 
nan

>  <PDB_ID>  (243) 
nan

>  <Standardized_SMILES>  (243) 
Cn1cc(-c2c[nH]c(=O)c(N)c2)cn1

>  <Name>  (243) 
nan

>  <Pocket>  (243) 
nan

>  <ATP_Site>  (243) 
nan

>  <Peripheral>  (243) 
nan

>  <Num_H_Atoms_ProtBoundConf>  (243) 
nan

>  <Num_Resolved_Atoms>  (243) 
nan

>  <Num_Not_Resolved_Atoms>  (243) 
nan

$$$$
CHEMBL4288568
     RDKit          3D

  0  0  0  0  0  0  0  0  0  0999 V3000
M  V30 BEGIN CTAB
M  V30 COUNTS 60 64 0 0 0
M  V30 BEGIN ATOM
M  V30 1 C 1.133682 -2.020070 6.338481 0
M  V30 2 C 1.978865 -1.445974 5.201612 0
M  V30 3 O 1.330926 -0.339485 4.714069 0
M  V30 4 C 1.982702 0.299334 3.661893 0
M  V30 5 O 3.232513 0.704094 4.117926 0
M  V30 6 N 1.240653 1.521522 3.393133 0
M  V30 7 C 1.644984 2.436044 2.383014 0
M  V30 8 C 2.750681 2.251900 1.593058 0
M  V30 9 C 3.165425 3.122695 0.604816 0
M  V30 10 C 2.426225 4.271915 0.377609 0
M  V30 11 C 2.797814 5.236778 -0.643676 0
M  V30 12 O 2.107418 6.289209 -0.840132 0
M  V30 13 O 3.917684 5.050452 -1.444295 0
M  V30 14 C 1.302901 4.511673 1.141495 0
M  V30 15 C 0.951866 3.589808 2.113917 0
M  V30 16 N 2.121447 -0.528139 2.506536 0
M  V30 17 C 0.898413 -0.958799 1.923684 0
M  V30 18 N 0.155581 -0.519409 1.072233 0
M  V30 19 C -0.967556 -1.089678 0.661072 0
M  V30 20 C -1.318498 -2.312816 1.274281 0
M  V30 21 S 0.014328 -2.583177 2.434454 0
M  V30 22 C -2.537136 -3.014292 0.880503 0
M  V30 23 C -3.146711 -2.526445 -0.364270 0
M  V30 24 N -2.753968 -3.123484 -1.590426 0
M  V30 25 C -1.522320 -3.315619 -2.255561 0
M  V30 26 O -0.390062 -2.990611 -1.853032 0
M  V30 27 C -1.652065 -3.974791 -3.548950 0
M  V30 28 C -0.767144 -4.363648 -4.531872 0
M  V30 29 C -1.178575 -4.987076 -5.688496 0
M  V30 30 C -2.515495 -5.225927 -5.861481 0
M  V30 31 C -3.411333 -4.843466 -4.888960 0
M  V30 32 C -2.975615 -4.220848 -3.739520 0
M  V30 33 C -3.649022 -3.715459 -2.571868 0
M  V30 34 O -4.923934 -3.810854 -2.470726 0
M  V30 35 C -3.132265 -1.030535 -0.453228 0
M  V30 36 C -1.774265 -0.440748 -0.393708 0
M  V30 37 H 0.301300 -2.647957 5.962121 0
M  V30 38 H 1.768739 -2.674884 6.987027 0
M  V30 39 H 0.776236 -1.209134 7.007182 0
M  V30 40 H 2.963030 -1.154237 5.668289 0
M  V30 41 H 2.162484 -2.253268 4.489292 0
M  V30 42 H 3.944156 0.021775 3.999211 0
M  V30 43 H 0.366403 1.784502 3.937763 0
M  V30 44 H 3.372631 1.382567 1.714448 0
M  V30 45 H 4.044754 2.956468 -0.009023 0
M  V30 46 H 3.870031 5.414709 -2.394796 0
M  V30 47 H 0.720015 5.402182 0.973913 0
M  V30 48 H 0.055272 3.826271 2.690283 0
M  V30 49 H 2.896434 -0.949419 1.910552 0
M  V30 50 H -3.317511 -2.965436 1.698182 0
M  V30 51 H -2.288552 -4.112705 0.867877 0
M  V30 52 H -4.290002 -2.747008 -0.295033 0
M  V30 53 H 0.306500 -4.174307 -4.398300 0
M  V30 54 H -0.431282 -5.270740 -6.428552 0
M  V30 55 H -2.846088 -5.718623 -6.774409 0
M  V30 56 H -4.460365 -5.040069 -5.043266 0
M  V30 57 H -3.702251 -0.672052 -1.358122 0
M  V30 58 H -3.716052 -0.569457 0.397251 0
M  V30 59 H -1.865406 0.685564 -0.224769 0
M  V30 60 H -1.211945 -0.563774 -1.365834 0
M  V30 END ATOM
M  V30 BEGIN BOND
M  V30 1 1 1 2
M  V30 2 1 2 3
M  V30 3 1 3 4
M  V30 4 1 4 5
M  V30 5 1 4 6
M  V30 6 1 6 7
M  V30 7 2 7 8
M  V30 8 1 8 9
M  V30 9 2 9 10
M  V30 10 1 10 11
M  V30 11 2 11 12
M  V30 12 1 11 13
M  V30 13 1 10 14
M  V30 14 2 14 15
M  V30 15 1 4 16
M  V30 16 1 16 17
M  V30 17 2 17 18
M  V30 18 1 18 19
M  V30 19 2 19 20
M  V30 20 1 20 21
M  V30 21 1 20 22
M  V30 22 1 22 23
M  V30 23 1 23 24
M  V30 24 1 24 25
M  V30 25 2 25 26
M  V30 26 1 25 27
M  V30 27 2 27 28
M  V30 28 1 28 29
M  V30 29 2 29 30
M  V30 30 1 30 31
M  V30 31 2 31 32
M  V30 32 1 32 33
M  V30 33 2 33 34
M  V30 34 1 23 35
M  V30 35 1 35 36
M  V30 36 1 15 7
M  V30 37 1 21 17
M  V30 38 1 33 24
M  V30 39 1 36 19
M  V30 40 1 32 27
M  V30 41 1 1 37
M  V30 42 1 1 38
M  V30 43 1 1 39
M  V30 44 1 2 40
M  V30 45 1 2 41
M  V30 46 1 5 42
M  V30 47 1 6 43
M  V30 48 1 8 44
M  V30 49 1 9 45
M  V30 50 1 13 46
M  V30 51 1 14 47
M  V30 52 1 15 48
M  V30 53 1 16 49
M  V30 54 1 22 50
M  V30 55 1 22 51
M  V30 56 1 23 52
M  V30 57 1 28 53
M  V30 58 1 29 54
M  V30 59 1 30 55
M  V30 60 1 31 56
M  V30 61 1 35 57
M  V30 62 1 35 58
M  V30 63 1 36 59
M  V30 64 1 36 60
M  V30 END BOND
M  V30 END CTAB
M  END
>  <Dataset>  (244) 
ChEMBL_Kinases

>  <Ligand_Instance>  (244) 
nan

>  <PDB_ID>  (244) 
nan

>  <Standardized_SMILES>  (244) 
CCOC(O)(Nc1ccc(C(=O)O)cc1)Nc1nc2c(s1)CC(N1C(=O)c3ccccc3C1=O)CC2

>  <Name>  (244) 
nan

>  <Pocket>  (244) 
nan

>  <ATP_Site>  (244) 
nan

>  <Peripheral>  (244) 
nan

>  <Num_H_Atoms_ProtBoundConf>  (244) 
nan

>  <Num_Resolved_Atoms>  (244) 
nan

>  <Num_Not_Resolved_Atoms>  (244) 
nan

$$$$
CHEMBL3685237
     RDKit          3D

  0  0  0  0  0  0  0  0  0  0999 V3000
M  V30 BEGIN CTAB
M  V30 COUNTS 55 58 0 0 0
M  V30 BEGIN ATOM
M  V30 1 C 5.517469 -1.106526 6.383361 0
M  V30 2 C 4.055845 -1.077481 6.011898 0
M  V30 3 C 3.241753 -1.079297 7.309541 0
M  V30 4 C 3.714393 0.088520 5.180750 0
M  V30 5 C 3.112765 -0.032694 3.961434 0
M  V30 6 C 2.916137 1.234436 3.417237 0
M  V30 7 C 2.341624 1.751923 2.180883 0
M  V30 8 O 2.251295 2.971691 1.862854 0
M  V30 9 N 1.853796 0.759960 1.286356 0
M  V30 10 C 1.249482 1.063029 0.012072 0
M  V30 11 C 1.979517 1.165015 -1.152724 0
M  V30 12 C 1.310389 1.458967 -2.324786 0
M  V30 13 C -0.053770 1.646221 -2.332001 0
M  V30 14 C -0.831984 1.556018 -1.199862 0
M  V30 15 C -2.304603 1.720099 -1.079740 0
M  V30 16 N -2.997239 0.449547 -1.135688 0
M  V30 17 C -2.981618 -0.460674 -2.226665 0
M  V30 18 N -2.308735 -0.234671 -3.355750 0
M  V30 19 C -2.285087 -1.080832 -4.394193 0
M  V30 20 N -2.960100 -2.254555 -4.368878 0
M  V30 21 C -3.660187 -2.544783 -3.258695 0
M  V30 22 C -4.350384 -3.734608 -3.221575 0
M  V30 23 C -4.294620 -4.631632 -4.386550 0
M  V30 24 N -3.547987 -4.289269 -5.538909 0
M  V30 25 O -4.915954 -5.724864 -4.372690 0
M  V30 26 C -5.091307 -4.106353 -2.122915 0
M  V30 27 C -5.104706 -3.219326 -1.058365 0
M  V30 28 C -4.405960 -2.040930 -1.126435 0
M  V30 29 C -3.661590 -1.651413 -2.211180 0
M  V30 30 C -0.114557 1.257085 -0.035901 0
M  V30 31 N 3.425823 2.056121 4.370191 0
M  V30 32 N 3.896206 1.383573 5.408909 0
M  V30 33 H 5.996588 -0.160970 6.120654 0
M  V30 34 H 5.650587 -1.270686 7.492926 0
M  V30 35 H 5.970267 -1.995869 5.902055 0
M  V30 36 H 3.732099 -1.999731 5.480425 0
M  V30 37 H 2.254374 -1.555877 7.140658 0
M  V30 38 H 3.110246 -0.027413 7.616209 0
M  V30 39 H 3.845788 -1.586609 8.067592 0
M  V30 40 H 2.778630 -0.901249 3.373238 0
M  V30 41 H 1.893632 -0.266272 1.479947 0
M  V30 42 H 3.044852 1.016031 -1.130380 0
M  V30 43 H 1.845622 1.549010 -3.267522 0
M  V30 44 H -0.573610 1.886180 -3.247722 0
M  V30 45 H -2.702818 2.374116 -1.894130 0
M  V30 46 H -2.478386 2.169989 -0.088590 0
M  V30 47 H -3.546716 0.212519 -0.284504 0
M  V30 48 H -1.714326 -0.832135 -5.284807 0
M  V30 49 H -2.578829 -4.543931 -5.240353 0
M  V30 50 H -2.579452 -4.538046 -5.255212 0
M  V30 51 H -5.601934 -5.037366 -2.154136 0
M  V30 52 H -5.695718 -3.538009 -0.207984 0
M  V30 53 H -4.502331 -1.456568 -0.244557 0
M  V30 54 H -0.671683 1.170592 0.902308 0
M  V30 55 H 3.472094 3.099063 4.349148 0
M  V30 END ATOM
M  V30 BEGIN BOND
M  V30 1 1 1 2
M  V30 2 1 2 3
M  V30 3 1 2 4
M  V30 4 1 4 5
M  V30 5 2 5 6
M  V30 6 1 6 7
M  V30 7 2 7 8
M  V30 8 1 7 9
M  V30 9 1 9 10
M  V30 10 2 10 11
M  V30 11 1 11 12
M  V30 12 2 12 13
M  V30 13 1 13 14
M  V30 14 1 14 15
M  V30 15 1 15 16
M  V30 16 1 16 17
M  V30 17 2 17 18
M  V30 18 1 18 19
M  V30 19 2 19 20
M  V30 20 1 20 21
M  V30 21 2 21 22
M  V30 22 1 22 23
M  V30 23 1 23 24
M  V30 24 2 23 25
M  V30 25 1 22 26
M  V30 26 2 26 27
M  V30 27 1 27 28
M  V30 28 2 28 29
M  V30 29 2 14 30
M  V30 30 1 6 31
M  V30 31 1 31 32
M  V30 32 2 32 4
M  V30 33 1 30 10
M  V30 34 1 29 17
M  V30 35 1 29 21
M  V30 36 1 1 33
M  V30 37 1 1 34
M  V30 38 1 1 35
M  V30 39 1 2 36
M  V30 40 1 3 37
M  V30 41 1 3 38
M  V30 42 1 3 39
M  V30 43 1 5 40
M  V30 44 1 9 41
M  V30 45 1 11 42
M  V30 46 1 12 43
M  V30 47 1 13 44
M  V30 48 1 15 45
M  V30 49 1 15 46
M  V30 50 1 16 47
M  V30 51 1 19 48
M  V30 52 1 24 49
M  V30 53 1 24 50
M  V30 54 1 26 51
M  V30 55 1 27 52
M  V30 56 1 28 53
M  V30 57 1 30 54
M  V30 58 1 31 55
M  V30 END BOND
M  V30 END CTAB
M  END
>  <Dataset>  (245) 
ChEMBL_Kinases

>  <Ligand_Instance>  (245) 
nan

>  <PDB_ID>  (245) 
nan

>  <Standardized_SMILES>  (245) 
CC(C)c1cc(C(=O)Nc2cccc(CNc3ncnc4c(C(N)=O)cccc34)c2)[nH]n1

>  <Name>  (245) 
nan

>  <Pocket>  (245) 
nan

>  <ATP_Site>  (245) 
nan

>  <Peripheral>  (245) 
nan

>  <Num_H_Atoms_ProtBoundConf>  (245) 
nan

>  <Num_Resolved_Atoms>  (245) 
nan

>  <Num_Not_Resolved_Atoms>  (245) 
nan

$$$$
CHEMBL4288542
     RDKit          3D

  0  0  0  0  0  0  0  0  0  0999 V3000
M  V30 BEGIN CTAB
M  V30 COUNTS 42 46 0 0 0
M  V30 BEGIN ATOM
M  V30 1 N -0.124753 -6.167186 3.274734 0
M  V30 2 C -0.093132 -4.983482 2.497531 0
M  V30 3 N 0.253569 -3.803858 3.086033 0
M  V30 4 C 0.290470 -2.661272 2.363408 0
M  V30 5 O 0.637265 -1.549290 3.004517 0
M  V30 6 C 0.685481 -0.410050 2.333380 0
M  V30 7 C 1.045721 0.728249 3.012293 0
M  V30 8 C 1.110278 1.936990 2.358151 0
M  V30 9 C 0.821028 2.058253 1.013681 0
M  V30 10 N 0.859769 3.260125 0.253322 0
M  V30 11 C 0.535653 3.298242 -1.178377 0
M  V30 12 C 1.141144 4.584176 -1.703787 0
M  V30 13 O 2.417537 4.715230 -1.211977 0
M  V30 14 C 2.473754 5.015963 0.131970 0
M  V30 15 C 1.217007 4.551467 0.801880 0
M  V30 16 C 0.461693 0.907701 0.348137 0
M  V30 17 C 0.390845 -0.316180 0.986763 0
M  V30 18 C 0.025636 -1.449639 0.282616 0
M  V30 19 O -0.248688 -1.411146 -0.933398 0
M  V30 20 C -0.015142 -2.623443 1.012599 0
M  V30 21 C -0.374932 -3.808571 0.371741 0
M  V30 22 C -0.397946 -4.947846 1.151860 0
M  V30 23 C -0.771053 -6.202434 0.507096 0
M  V30 24 N -0.854458 -7.418400 1.085323 0
M  V30 25 N -1.221673 -8.336942 0.206538 0
M  V30 26 N -1.378591 -7.714376 -0.952776 0
M  V30 27 N -1.107092 -6.412473 -0.783933 0
M  V30 28 H 0.675481 -6.772506 3.539278 0
M  V30 29 H -1.062971 -6.483849 3.634009 0
M  V30 30 H 1.277033 0.653869 4.070025 0
M  V30 31 H 1.389619 2.833155 2.874167 0
M  V30 32 H 1.046057 2.481975 -1.724187 0
M  V30 33 H -0.560399 3.273254 -1.280653 0
M  V30 34 H 0.498665 5.470923 -1.546877 0
M  V30 35 H 1.227690 4.488605 -2.815457 0
M  V30 36 H 2.655624 6.116512 0.294281 0
M  V30 37 H 3.370386 4.489832 0.552268 0
M  V30 38 H 0.406070 5.269243 0.480992 0
M  V30 39 H 1.233010 4.612114 1.888300 0
M  V30 40 H 0.214204 0.903456 -0.718837 0
M  V30 41 H -0.622933 -3.844087 -0.673332 0
M  V30 42 H -1.662033 -8.124848 -1.861590 0
M  V30 END ATOM
M  V30 BEGIN BOND
M  V30 1 1 1 2
M  V30 2 2 2 3
M  V30 3 1 3 4
M  V30 4 1 4 5
M  V30 5 1 5 6
M  V30 6 2 6 7
M  V30 7 1 7 8
M  V30 8 2 8 9
M  V30 9 1 9 10
M  V30 10 1 10 11
M  V30 11 1 11 12
M  V30 12 1 12 13
M  V30 13 1 13 14
M  V30 14 1 14 15
M  V30 15 1 9 16
M  V30 16 2 16 17
M  V30 17 1 17 18
M  V30 18 2 18 19
M  V30 19 1 18 20
M  V30 20 1 20 21
M  V30 21 2 21 22
M  V30 22 1 22 23
M  V30 23 1 23 24
M  V30 24 2 24 25
M  V30 25 1 25 26
M  V30 26 1 26 27
M  V30 27 1 22 2
M  V30 28 2 27 23
M  V30 29 2 20 4
M  V30 30 1 17 6
M  V30 31 1 15 10
M  V30 32 1 1 28
M  V30 33 1 1 29
M  V30 34 1 7 30
M  V30 35 1 8 31
M  V30 36 1 11 32
M  V30 37 1 11 33
M  V30 38 1 12 34
M  V30 39 1 12 35
M  V30 40 1 14 36
M  V30 41 1 14 37
M  V30 42 1 15 38
M  V30 43 1 15 39
M  V30 44 1 16 40
M  V30 45 1 21 41
M  V30 46 1 26 42
M  V30 END BOND
M  V30 END CTAB
M  END
>  <Dataset>  (246) 
ChEMBL_Kinases

>  <Ligand_Instance>  (246) 
nan

>  <PDB_ID>  (246) 
nan

>  <Standardized_SMILES>  (246) 
Nc1nc2oc3ccc(N4CCOCC4)cc3c(=O)c2cc1-c1nn[nH]n1

>  <Name>  (246) 
nan

>  <Pocket>  (246) 
nan

>  <ATP_Site>  (246) 
nan

>  <Peripheral>  (246) 
nan

>  <Num_H_Atoms_ProtBoundConf>  (246) 
nan

>  <Num_Resolved_Atoms>  (246) 
nan

>  <Num_Not_Resolved_Atoms>  (246) 
nan

$$$$
CHEMBL4288230
     RDKit          3D

  0  0  0  0  0  0  0  0  0  0999 V3000
M  V30 BEGIN CTAB
M  V30 COUNTS 19 19 0 0 0
M  V30 BEGIN ATOM
M  V30 1 C -0.545490 0.077457 3.498233 0
M  V30 2 C -0.537382 -0.717457 2.218868 0
M  V30 3 O -1.313551 -1.682524 2.069086 0
M  V30 4 N 0.412299 -0.249443 1.267900 0
M  V30 5 N 1.284932 0.738064 1.280902 0
M  V30 6 C 1.970077 0.773220 0.113744 0
M  V30 7 C 3.036620 1.795145 -0.164498 0
M  V30 8 C 1.510800 -0.247436 -0.689904 0
M  V30 9 Br 2.147042 -0.636473 -2.444523 0
M  V30 10 C 0.530771 -0.873194 0.064239 0
M  V30 11 N -0.183384 -1.994741 -0.444845 0
M  V30 12 H -1.239347 -0.344149 4.229077 0
M  V30 13 H -0.760050 1.118795 3.186306 0
M  V30 14 H 0.516955 0.071465 3.835162 0
M  V30 15 H 2.690595 2.819621 0.128628 0
M  V30 16 H 3.214217 1.825841 -1.240213 0
M  V30 17 H 3.916408 1.579749 0.464443 0
M  V30 18 H 0.338168 -2.731300 -0.992490 0
M  V30 19 H -1.191183 -2.031014 -0.249187 0
M  V30 END ATOM
M  V30 BEGIN BOND
M  V30 1 1 1 2
M  V30 2 2 2 3
M  V30 3 1 2 4
M  V30 4 1 4 5
M  V30 5 2 5 6
M  V30 6 1 6 7
M  V30 7 1 6 8
M  V30 8 1 8 9
M  V30 9 2 8 10
M  V30 10 1 10 11
M  V30 11 1 10 4
M  V30 12 1 1 12
M  V30 13 1 1 13
M  V30 14 1 1 14
M  V30 15 1 7 15
M  V30 16 1 7 16
M  V30 17 1 7 17
M  V30 18 1 11 18
M  V30 19 1 11 19
M  V30 END BOND
M  V30 END CTAB
M  END
>  <Dataset>  (247) 
ChEMBL_Kinases

>  <Ligand_Instance>  (247) 
nan

>  <PDB_ID>  (247) 
nan

>  <Standardized_SMILES>  (247) 
CC(=O)n1nc(C)c(Br)c1N

>  <Name>  (247) 
nan

>  <Pocket>  (247) 
nan

>  <ATP_Site>  (247) 
nan

>  <Peripheral>  (247) 
nan

>  <Num_H_Atoms_ProtBoundConf>  (247) 
nan

>  <Num_Resolved_Atoms>  (247) 
nan

>  <Num_Not_Resolved_Atoms>  (247) 
nan

$$$$
CHEMBL3685232
     RDKit          3D

  0  0  0  0  0  0  0  0  0  0999 V3000
M  V30 BEGIN CTAB
M  V30 COUNTS 54 57 0 0 0
M  V30 BEGIN ATOM
M  V30 1 C 6.433927 -3.449152 3.645335 0
M  V30 2 O 5.330144 -3.718323 2.777983 0
M  V30 3 C 4.752005 -2.666310 2.077700 0
M  V30 4 C 5.209121 -1.368270 2.192197 0
M  V30 5 C 4.562312 -0.373513 1.446391 0
M  V30 6 C 3.497821 -0.661241 0.615855 0
M  V30 7 C 2.892567 0.442482 -0.117404 0
M  V30 8 O 3.391802 1.580841 0.066602 0
M  V30 9 N 1.796244 0.314574 -1.008539 0
M  V30 10 C 1.146206 1.345061 -1.762471 0
M  V30 11 C 0.268946 2.117215 -0.853774 0
M  V30 12 C 0.588241 3.248246 -0.137493 0
M  V30 13 C -0.314483 3.886100 0.686505 0
M  V30 14 C -1.600640 3.409321 0.830958 0
M  V30 15 C -1.976277 2.278123 0.136141 0
M  V30 16 N -3.290952 1.745337 0.249853 0
M  V30 17 C -3.765043 0.585720 -0.424628 0
M  V30 18 N -4.352257 0.612982 -1.653880 0
M  V30 19 C -4.777207 -0.512309 -2.235367 0
M  V30 20 N -4.637551 -1.699699 -1.625378 0
M  V30 21 C -4.057145 -1.751009 -0.403893 0
M  V30 22 C -3.924819 -2.995994 0.206463 0
M  V30 23 C -4.384836 -4.249789 -0.414067 0
M  V30 24 N -4.983171 -4.128600 -1.694260 0
M  V30 25 O -4.260148 -5.367986 0.148051 0
M  V30 26 C -3.334574 -2.996951 1.435156 0
M  V30 27 C -2.858576 -1.901700 2.131157 0
M  V30 28 O -2.283341 -2.057829 3.370495 0
M  V30 29 C -3.015688 -0.690692 1.478277 0
M  V30 30 C -3.607634 -0.610082 0.224596 0
M  V30 31 C -1.034692 1.660796 -0.687540 0
M  V30 32 C 3.095727 -1.978827 0.551370 0
M  V30 33 C 3.691524 -3.002245 1.260458 0
M  V30 34 H 6.966329 -4.380375 3.911017 0
M  V30 35 H 6.112055 -2.900485 4.548197 0
M  V30 36 H 7.187328 -2.813176 3.131454 0
M  V30 37 H 6.046606 -1.135594 2.844311 0
M  V30 38 H 4.965551 0.614895 1.579797 0
M  V30 39 H 1.443248 -0.674866 -1.101727 0
M  V30 40 H 0.516145 0.895803 -2.556009 0
M  V30 41 H 1.867112 2.056367 -2.226299 0
M  V30 42 H 1.596393 3.614763 -0.259422 0
M  V30 43 H 0.049687 4.767009 1.200037 0
M  V30 44 H -2.283017 3.934163 1.485386 0
M  V30 45 H -3.970327 2.223509 0.865717 0
M  V30 46 H -5.222113 -0.358531 -3.201994 0
M  V30 47 H -4.370726 -4.516831 -2.445568 0
M  V30 48 H -5.809189 -3.804670 -2.236352 0
M  V30 49 H -3.226054 -3.960511 1.920441 0
M  V30 50 H -1.726819 -2.871949 3.598983 0
M  V30 51 H -2.663104 0.203086 1.971341 0
M  V30 52 H -1.374405 0.787201 -1.204771 0
M  V30 53 H 2.264631 -2.227100 -0.092227 0
M  V30 54 H 3.324074 -4.022438 1.163536 0
M  V30 END ATOM
M  V30 BEGIN BOND
M  V30 1 1 1 2
M  V30 2 1 2 3
M  V30 3 2 3 4
M  V30 4 1 4 5
M  V30 5 2 5 6
M  V30 6 1 6 7
M  V30 7 2 7 8
M  V30 8 1 7 9
M  V30 9 1 9 10
M  V30 10 1 10 11
M  V30 11 2 11 12
M  V30 12 1 12 13
M  V30 13 2 13 14
M  V30 14 1 14 15
M  V30 15 1 15 16
M  V30 16 1 16 17
M  V30 17 2 17 18
M  V30 18 1 18 19
M  V30 19 2 19 20
M  V30 20 1 20 21
M  V30 21 2 21 22
M  V30 22 1 22 23
M  V30 23 1 23 24
M  V30 24 2 23 25
M  V30 25 1 22 26
M  V30 26 2 26 27
M  V30 27 1 27 28
M  V30 28 1 27 29
M  V30 29 2 29 30
M  V30 30 2 15 31
M  V30 31 1 6 32
M  V30 32 2 32 33
M  V30 33 1 33 3
M  V30 34 1 31 11
M  V30 35 1 30 17
M  V30 36 1 30 21
M  V30 37 1 1 34
M  V30 38 1 1 35
M  V30 39 1 1 36
M  V30 40 1 4 37
M  V30 41 1 5 38
M  V30 42 1 9 39
M  V30 43 1 10 40
M  V30 44 1 10 41
M  V30 45 1 12 42
M  V30 46 1 13 43
M  V30 47 1 14 44
M  V30 48 1 16 45
M  V30 49 1 19 46
M  V30 50 1 24 47
M  V30 51 1 24 48
M  V30 52 1 26 49
M  V30 53 1 28 50
M  V30 54 1 29 51
M  V30 55 1 31 52
M  V30 56 1 32 53
M  V30 57 1 33 54
M  V30 END BOND
M  V30 END CTAB
M  END
>  <Dataset>  (248) 
ChEMBL_Kinases

>  <Ligand_Instance>  (248) 
nan

>  <PDB_ID>  (248) 
nan

>  <Standardized_SMILES>  (248) 
COc1ccc(C(=O)NCc2cccc(Nc3ncnc4c(C(N)=O)cc(O)cc34)c2)cc1

>  <Name>  (248) 
nan

>  <Pocket>  (248) 
nan

>  <ATP_Site>  (248) 
nan

>  <Peripheral>  (248) 
nan

>  <Num_H_Atoms_ProtBoundConf>  (248) 
nan

>  <Num_Resolved_Atoms>  (248) 
nan

>  <Num_Not_Resolved_Atoms>  (248) 
nan

$$$$
CHEMBL2163404
     RDKit          3D

  0  0  0  0  0  0  0  0  0  0999 V3000
M  V30 BEGIN CTAB
M  V30 COUNTS 70 75 0 0 0
M  V30 BEGIN ATOM
M  V30 1 C 2.673770 -5.239740 3.916217 0
M  V30 2 C 3.379717 -3.942454 3.683972 0
M  V30 3 C 2.881418 -2.740929 3.160543 0
M  V30 4 C 3.933314 -1.814767 3.143138 0
M  V30 5 N 3.794426 -0.483613 2.675150 0
M  V30 6 C 3.981783 0.163165 1.429296 0
M  V30 7 N 3.735363 1.481463 1.322960 0
M  V30 8 C 3.915169 2.099285 0.142992 0
M  V30 9 S 3.519831 3.862700 0.195737 0
M  V30 10 C 1.764787 3.996048 -0.226793 0
M  V30 11 C 1.383304 4.190141 -1.537697 0
M  V30 12 C 0.030072 4.266048 -1.826482 0
M  V30 13 C -0.837838 4.137416 -0.752672 0
M  V30 14 N -2.223604 4.224344 -1.152448 0
M  V30 15 C -2.590057 2.914678 -1.498822 0
M  V30 16 O -1.609728 2.102276 -1.352134 0
M  V30 17 C -3.903811 2.415571 -1.983884 0
M  V30 18 N -3.857714 1.020367 -2.243488 0
M  V30 19 C -5.053738 0.429501 -2.751082 0
M  V30 20 C -5.015676 -1.021462 -2.288314 0
M  V30 21 C -4.381393 -0.814652 -0.911649 0 CFG=1
M  V30 22 C -3.870689 -2.063592 -0.370022 0
M  V30 23 O -4.135314 -2.826629 -1.306289 0
M  V30 24 N -3.256062 -2.832882 0.623572 0
M  V30 25 C -3.132794 -4.217168 0.232633 0
M  V30 26 C -2.352360 -4.845747 1.330771 0
M  V30 27 C -2.675372 -3.972807 2.546315 0
M  V30 28 F -1.728684 -4.070236 3.534813 0
M  V30 29 F -3.886817 -4.369524 3.048220 0
M  V30 30 C -2.724232 -2.560248 1.960089 0
M  V30 31 C -3.315361 0.206732 -1.197327 0
M  V30 32 C -0.475611 3.943856 0.561941 0
M  V30 33 C 0.868390 3.873683 0.814402 0
M  V30 34 N 4.343312 1.415943 -0.951100 0
M  V30 35 N 4.599907 0.121846 -0.903990 0
M  V30 36 C 5.021496 -0.743331 -1.834397 0
M  V30 37 C 5.127586 -1.985311 -1.256278 0
M  V30 38 C 4.748254 -1.809654 0.058321 0
M  V30 39 C 4.410930 -0.470236 0.289161 0
M  V30 40 N 5.021721 -2.468799 3.647698 0
M  V30 41 N 4.674393 -3.707609 3.955740 0
M  V30 42 H 2.789731 -5.603220 4.951649 0
M  V30 43 H 1.564055 -5.109349 3.757304 0
M  V30 44 H 2.996878 -5.966889 3.139647 0
M  V30 45 H 1.832216 -2.625937 2.842309 0
M  V30 46 H 3.485177 0.057382 3.498905 0
M  V30 47 H 2.159488 4.278464 -2.308947 0
M  V30 48 H -0.283514 4.418683 -2.846676 0
M  V30 49 H -2.999111 4.947961 -1.255314 0
M  V30 50 H -4.718447 2.596903 -1.223484 0
M  V30 51 H -4.243023 2.941575 -2.894191 0
M  V30 52 H -4.979992 0.402565 -3.874257 0
M  V30 53 H -5.976723 0.938977 -2.434220 0
M  V30 54 H -4.274816 -1.591128 -2.879467 0
M  V30 55 H -5.993274 -1.498885 -2.245822 0
M  V30 56 H -5.167474 -0.368857 -0.268684 0
M  V30 57 H -2.623795 -4.337544 -0.760672 0
M  V30 58 H -4.136407 -4.713443 0.204241 0
M  V30 59 H -2.680697 -5.891105 1.533011 0
M  V30 60 H -1.248400 -4.775171 1.205150 0
M  V30 61 H -3.444028 -1.988769 2.553763 0
M  V30 62 H -1.702058 -2.168170 1.947217 0
M  V30 63 H -2.367666 -0.298586 -1.494503 0
M  V30 64 H -3.181882 0.783709 -0.251723 0
M  V30 65 H -1.277563 3.862757 1.293138 0
M  V30 66 H 1.163687 3.720884 1.856307 0
M  V30 67 H 5.262399 -0.597924 -2.871075 0
M  V30 68 H 5.437598 -2.957087 -1.672487 0
M  V30 69 H 4.708654 -2.588258 0.824039 0
M  V30 70 H 5.398669 -4.367537 4.364535 0
M  V30 END ATOM
M  V30 BEGIN BOND
M  V30 1 1 1 2
M  V30 2 2 2 3
M  V30 3 1 3 4
M  V30 4 1 4 5
M  V30 5 1 5 6
M  V30 6 2 6 7
M  V30 7 1 7 8
M  V30 8 1 8 9
M  V30 9 1 9 10
M  V30 10 2 10 11
M  V30 11 1 11 12
M  V30 12 2 12 13
M  V30 13 1 13 14
M  V30 14 1 14 15
M  V30 15 2 15 16
M  V30 16 1 15 17
M  V30 17 1 17 18
M  V30 18 1 18 19
M  V30 19 1 19 20
M  V30 20 1 20 21
M  V30 21 1 21 22
M  V30 22 2 22 23
M  V30 23 1 22 24
M  V30 24 1 24 25
M  V30 25 1 25 26
M  V30 26 1 26 27
M  V30 27 1 27 28
M  V30 28 1 27 29
M  V30 29 1 27 30
M  V30 30 1 21 31
M  V30 31 1 13 32
M  V30 32 2 32 33
M  V30 33 2 8 34
M  V30 34 1 34 35
M  V30 35 1 35 36
M  V30 36 2 36 37
M  V30 37 1 37 38
M  V30 38 2 38 39
M  V30 39 2 4 40
M  V30 40 1 40 41
M  V30 41 1 41 2
M  V30 42 1 39 6
M  V30 43 1 33 10
M  V30 44 1 39 35
M  V30 45 1 31 18
M  V30 46 1 30 24
M  V30 47 1 1 42
M  V30 48 1 1 43
M  V30 49 1 1 44
M  V30 50 1 3 45
M  V30 51 1 5 46
M  V30 52 1 11 47
M  V30 53 1 12 48
M  V30 54 1 14 49
M  V30 55 1 17 50
M  V30 56 1 17 51
M  V30 57 1 19 52
M  V30 58 1 19 53
M  V30 59 1 20 54
M  V30 60 1 20 55
M  V30 61 1 21 56 CFG=1
M  V30 62 1 25 57
M  V30 63 1 25 58
M  V30 64 1 26 59
M  V30 65 1 26 60
M  V30 66 1 30 61
M  V30 67 1 30 62
M  V30 68 1 31 63
M  V30 69 1 31 64
M  V30 70 1 32 65
M  V30 71 1 33 66
M  V30 72 1 36 67
M  V30 73 1 37 68
M  V30 74 1 38 69
M  V30 75 1 41 70
M  V30 END BOND
M  V30 END CTAB
M  END
>  <Dataset>  (249) 
ChEMBL_Kinases

>  <Ligand_Instance>  (249) 
nan

>  <PDB_ID>  (249) 
nan

>  <Standardized_SMILES>  (249) 
Cc1cc(Nc2nc(Sc3ccc(NC(=O)CN4CC[C@@H](C(=O)N5CCC(F)(F)C5)C4)cc3)nn3cccc23)n[nH]1

>  <Name>  (249) 
nan

>  <Pocket>  (249) 
nan

>  <ATP_Site>  (249) 
nan

>  <Peripheral>  (249) 
nan

>  <Num_H_Atoms_ProtBoundConf>  (249) 
nan

>  <Num_Resolved_Atoms>  (249) 
nan

>  <Num_Not_Resolved_Atoms>  (249) 
nan

$$$$
CHEMBL3701756
     RDKit          3D

  0  0  0  0  0  0  0  0  0  0999 V3000
M  V30 BEGIN CTAB
M  V30 COUNTS 55 60 0 0 0
M  V30 BEGIN ATOM
M  V30 1 C 3.698046 -0.872581 4.107941 0
M  V30 2 C 4.601783 0.097422 3.415846 0
M  V30 3 O 5.774585 0.277436 4.143248 0
M  V30 4 C 3.987414 1.408186 2.980201 0
M  V30 5 C 3.809995 0.890259 1.607003 0
M  V30 6 N 4.405865 1.764007 0.582189 0
M  V30 7 C 2.503653 0.362456 1.222514 0
M  V30 8 C 1.419077 0.325033 2.067571 0
M  V30 9 C 0.188946 -0.177032 1.697158 0
M  V30 10 C -0.017361 -0.678720 0.429295 0
M  V30 11 C -1.234799 -1.241819 -0.139897 0
M  V30 12 N -1.196381 -2.565464 -0.443520 0
M  V30 13 C -2.408227 -2.882909 -0.946473 0
M  V30 14 N -3.213321 -1.803282 -0.971687 0
M  V30 15 C -2.488613 -0.780410 -0.471291 0
M  V30 16 C -2.839695 0.613144 -0.263686 0
M  V30 17 C -2.958608 1.379027 0.875613 0
M  V30 18 C -3.311083 2.704192 0.783327 0
M  V30 19 C -3.556322 3.314402 -0.426086 0
M  V30 20 C -3.443717 2.568037 -1.581871 0
M  V30 21 C -3.086168 1.219699 -1.500979 0
M  V30 22 C -4.567587 -1.774503 -1.441180 0
M  V30 23 O -5.013410 -3.020751 -1.896710 0
M  V30 24 C -4.254334 -4.181835 -1.906921 0
M  V30 25 N -4.702880 -5.377617 -2.350680 0
M  V30 26 C -3.883730 -6.468836 -2.323057 0
M  V30 27 C -2.604979 -6.420080 -1.861177 0
M  V30 28 N -2.163894 -5.224881 -1.420250 0
M  V30 29 C -2.957148 -4.138732 -1.439903 0
M  V30 30 C 1.078345 -0.647511 -0.442751 0
M  V30 31 C 2.320582 -0.134023 -0.051146 0
M  V30 32 C 4.815381 -0.198047 1.927009 0
M  V30 33 H 4.254004 -1.512797 4.830191 0
M  V30 34 H 3.194029 -1.583447 3.402766 0
M  V30 35 H 2.924044 -0.349076 4.724773 0
M  V30 36 H 6.102580 -0.570278 4.501884 0
M  V30 37 H 3.140454 1.758197 3.561352 0
M  V30 38 H 4.773926 2.219449 3.004592 0
M  V30 39 H 5.193625 2.310358 1.046118 0
M  V30 40 H 4.906004 1.195177 -0.161887 0
M  V30 41 H 1.482583 0.688380 3.063014 0
M  V30 42 H -0.659991 -0.216308 2.333258 0
M  V30 43 H -2.745353 0.791810 1.756820 0
M  V30 44 H -3.379087 3.223004 1.726604 0
M  V30 45 H -3.827281 4.354684 -0.420105 0
M  V30 46 H -3.644011 3.081300 -2.511583 0
M  V30 47 H -3.037682 0.762084 -2.498317 0
M  V30 48 H -4.657917 -1.056392 -2.289073 0
M  V30 49 H -5.201681 -1.427021 -0.574686 0
M  V30 50 H -4.249732 -7.422193 -2.679936 0
M  V30 51 H -1.904087 -7.227277 -1.807526 0
M  V30 52 H 1.035442 -1.017426 -1.475027 0
M  V30 53 H 3.150931 -0.124405 -0.751847 0
M  V30 54 H 4.522526 -1.217953 1.678266 0
M  V30 55 H 5.870343 0.064928 1.687947 0
M  V30 END ATOM
M  V30 BEGIN BOND
M  V30 1 1 1 2
M  V30 2 1 2 3
M  V30 3 1 2 4
M  V30 4 1 4 5
M  V30 5 1 5 6
M  V30 6 1 5 7
M  V30 7 2 7 8
M  V30 8 1 8 9
M  V30 9 2 9 10
M  V30 10 1 10 11
M  V30 11 1 11 12
M  V30 12 2 12 13
M  V30 13 1 13 14
M  V30 14 1 14 15
M  V30 15 1 15 16
M  V30 16 2 16 17
M  V30 17 1 17 18
M  V30 18 2 18 19
M  V30 19 1 19 20
M  V30 20 2 20 21
M  V30 21 1 14 22
M  V30 22 1 22 23
M  V30 23 1 23 24
M  V30 24 2 24 25
M  V30 25 1 25 26
M  V30 26 2 26 27
M  V30 27 1 27 28
M  V30 28 2 28 29
M  V30 29 1 10 30
M  V30 30 2 30 31
M  V30 31 1 5 32
M  V30 32 1 32 2
M  V30 33 1 31 7
M  V30 34 2 15 11
M  V30 35 1 21 16
M  V30 36 1 29 24
M  V30 37 1 29 13
M  V30 38 1 1 33
M  V30 39 1 1 34
M  V30 40 1 1 35
M  V30 41 1 3 36
M  V30 42 1 4 37
M  V30 43 1 4 38
M  V30 44 1 6 39
M  V30 45 1 6 40
M  V30 46 1 8 41
M  V30 47 1 9 42
M  V30 48 1 17 43
M  V30 49 1 18 44
M  V30 50 1 19 45
M  V30 51 1 20 46
M  V30 52 1 21 47
M  V30 53 1 22 48
M  V30 54 1 22 49
M  V30 55 1 26 50
M  V30 56 1 27 51
M  V30 57 1 30 52
M  V30 58 1 31 53
M  V30 59 1 32 54
M  V30 60 1 32 55
M  V30 END BOND
M  V30 END CTAB
M  END
>  <Dataset>  (250) 
ChEMBL_Kinases

>  <Ligand_Instance>  (250) 
nan

>  <PDB_ID>  (250) 
nan

>  <Standardized_SMILES>  (250) 
CC1(O)CC(N)(c2ccc(-c3nc4n(c3-c3ccccc3)COc3nccnc3-4)cc2)C1

>  <Name>  (250) 
nan

>  <Pocket>  (250) 
nan

>  <ATP_Site>  (250) 
nan

>  <Peripheral>  (250) 
nan

>  <Num_H_Atoms_ProtBoundConf>  (250) 
nan

>  <Num_Resolved_Atoms>  (250) 
nan

>  <Num_Not_Resolved_Atoms>  (250) 
nan

$$$$
CHEMBL3685230
     RDKit          3D

  0  0  0  0  0  0  0  0  0  0999 V3000
M  V30 BEGIN CTAB
M  V30 COUNTS 52 56 0 0 0
M  V30 BEGIN ATOM
M  V30 1 N 6.869079 -0.708205 2.964681 0
M  V30 2 C 5.722034 0.062645 2.583408 0
M  V30 3 O 5.975043 0.003532 3.882704 0
M  V30 4 C 4.557335 0.845166 2.194173 0
M  V30 5 C 4.117962 1.693417 3.176954 0
M  V30 6 C 3.009363 2.478928 2.956356 0
M  V30 7 C 2.464996 2.291892 1.713517 0
M  V30 8 C 2.866727 1.463276 0.717509 0
M  V30 9 C 2.299561 1.285299 -0.505577 0
M  V30 10 N 1.116392 2.056653 -0.588209 0
M  V30 11 C -0.105437 2.835146 -0.716946 0
M  V30 12 C -1.274563 1.999285 -1.142930 0
M  V30 13 C -1.489529 1.963075 -2.489035 0
M  V30 14 C -2.527313 1.116334 -2.789879 0
M  V30 15 C -3.348774 0.335068 -2.011325 0
M  V30 16 C -3.030908 0.455711 -0.615988 0
M  V30 17 N -3.876732 -0.388249 0.142740 0
M  V30 18 C -3.222054 -1.686805 0.240902 0
M  V30 19 O -2.140538 -1.618958 -0.344094 0
M  V30 20 C -3.936147 -2.740888 0.965476 0
M  V30 21 N -5.090760 -2.943684 1.576169 0
M  V30 22 N -5.175035 -4.183062 2.097589 0
M  V30 23 C -4.021083 -4.891463 1.845465 0
M  V30 24 C -3.711017 -6.169573 2.219286 0
M  V30 25 C -2.431708 -6.628541 1.827332 0
M  V30 26 C -1.655485 -5.746171 1.114425 0
M  V30 27 Br 0.066976 -6.353964 0.550013 0
M  V30 28 C -2.046463 -4.462465 0.774479 0
M  V30 29 C -3.308743 -3.944925 1.144388 0
M  V30 30 C -1.995790 1.287494 -0.171258 0
M  V30 31 N 2.694033 0.475388 -1.449862 0
M  V30 32 C 3.858077 -0.309797 -1.164425 0
M  V30 33 N 4.447461 -0.169636 0.023362 0
M  V30 34 C 4.020219 0.655884 0.957268 0
M  V30 35 H 7.482559 -1.065091 2.163211 0
M  V30 36 H 7.181967 -0.854225 1.931669 0
M  V30 37 H 4.565400 1.833367 4.147997 0
M  V30 38 H 2.621739 3.166802 3.689083 0
M  V30 39 H 1.611588 2.927715 1.523234 0
M  V30 40 H 0.911173 1.945475 -1.665736 0
M  V30 41 H -0.379222 3.245323 0.319825 0
M  V30 42 H -0.017903 3.724215 -1.326776 0
M  V30 43 H -0.966476 2.478277 -3.259581 0
M  V30 44 H -2.761992 1.035581 -3.857984 0
M  V30 45 H -4.122993 -0.275156 -2.410740 0
M  V30 46 H -4.796631 -0.201997 0.585113 0
M  V30 47 H -6.072365 -4.412133 2.575351 0
M  V30 48 H -4.382125 -6.787520 2.766622 0
M  V30 49 H -2.073133 -7.589637 2.073013 0
M  V30 50 H -1.354956 -3.850110 0.194219 0
M  V30 51 H -1.827201 1.343201 0.871820 0
M  V30 52 H 4.047734 -0.918434 -2.015320 0
M  V30 END ATOM
M  V30 BEGIN BOND
M  V30 1 1 1 2
M  V30 2 2 2 3
M  V30 3 1 2 4
M  V30 4 2 4 5
M  V30 5 1 5 6
M  V30 6 2 6 7
M  V30 7 1 7 8
M  V30 8 2 8 9
M  V30 9 1 9 10
M  V30 10 1 10 11
M  V30 11 1 11 12
M  V30 12 2 12 13
M  V30 13 1 13 14
M  V30 14 2 14 15
M  V30 15 1 15 16
M  V30 16 1 16 17
M  V30 17 1 17 18
M  V30 18 2 18 19
M  V30 19 1 18 20
M  V30 20 2 20 21
M  V30 21 1 21 22
M  V30 22 1 22 23
M  V30 23 2 23 24
M  V30 24 1 24 25
M  V30 25 2 25 26
M  V30 26 1 26 27
M  V30 27 1 26 28
M  V30 28 2 28 29
M  V30 29 2 16 30
M  V30 30 1 9 31
M  V30 31 2 31 32
M  V30 32 1 32 33
M  V30 33 2 33 34
M  V30 34 1 34 4
M  V30 35 1 34 8
M  V30 36 1 30 12
M  V30 37 1 29 20
M  V30 38 1 29 23
M  V30 39 1 1 35
M  V30 40 1 1 36
M  V30 41 1 5 37
M  V30 42 1 6 38
M  V30 43 1 7 39
M  V30 44 1 10 40
M  V30 45 1 11 41
M  V30 46 1 11 42
M  V30 47 1 13 43
M  V30 48 1 14 44
M  V30 49 1 15 45
M  V30 50 1 17 46
M  V30 51 1 22 47
M  V30 52 1 24 48
M  V30 53 1 25 49
M  V30 54 1 28 50
M  V30 55 1 30 51
M  V30 56 1 32 52
M  V30 END BOND
M  V30 END CTAB
M  END
>  <Dataset>  (251) 
ChEMBL_Kinases

>  <Ligand_Instance>  (251) 
nan

>  <PDB_ID>  (251) 
nan

>  <Standardized_SMILES>  (251) 
NC(=O)c1cccc2c(NCc3cccc(NC(=O)c4n[nH]c5ccc(Br)cc45)c3)ncnc12

>  <Name>  (251) 
nan

>  <Pocket>  (251) 
nan

>  <ATP_Site>  (251) 
nan

>  <Peripheral>  (251) 
nan

>  <Num_H_Atoms_ProtBoundConf>  (251) 
nan

>  <Num_Resolved_Atoms>  (251) 
nan

>  <Num_Not_Resolved_Atoms>  (251) 
nan

$$$$
CHEMBL3087776
     RDKit          3D

  0  0  0  0  0  0  0  0  0  0999 V3000
M  V30 BEGIN CTAB
M  V30 COUNTS 46 49 0 0 0
M  V30 BEGIN ATOM
M  V30 1 C 4.612747 -0.569899 -2.766879 0
M  V30 2 C 4.228486 -1.272345 -1.506051 0
M  V30 3 O 4.193275 -2.493238 -1.174474 0
M  V30 4 N 3.822359 -0.346688 -0.485090 0
M  V30 5 C 3.392186 -0.669812 0.839841 0 CFG=1
M  V30 6 C 4.162784 0.055869 1.921352 0
M  V30 7 C 3.260036 -0.144261 3.119205 0
M  V30 8 N 1.920470 -0.257818 2.582202 0
M  V30 9 C 0.716329 -0.409328 3.319638 0
M  V30 10 C 0.665784 -0.480621 4.695048 0
M  V30 11 Cl 2.143935 -0.392692 5.626852 0
M  V30 12 C -0.465246 -0.621521 5.449262 0
M  V30 13 N -1.656763 -0.699683 4.791536 0
M  V30 14 C -1.669300 -0.636078 3.453718 0
M  V30 15 N -2.671873 -0.684634 2.560239 0
M  V30 16 C -2.237346 -0.582742 1.295202 0
M  V30 17 C -2.950281 -0.586211 0.025977 0
M  V30 18 C -2.358762 -0.470134 -1.234236 0
M  V30 19 N -3.305965 -0.510716 -2.185105 0
M  V30 20 C -2.996878 -0.413140 -3.597420 0
M  V30 21 N -4.465534 -0.647523 -1.568947 0
M  V30 22 C -4.298667 -0.697907 -0.225780 0
M  V30 23 C -5.371203 -0.844803 0.760457 0
M  V30 24 N -0.905134 -0.466431 1.423575 0
M  V30 25 C -0.517090 -0.493636 2.708790 0
M  V30 26 C 1.986231 -0.197037 1.135242 0
M  V30 27 H 3.831345 0.162482 -3.052491 0
M  V30 28 H 4.677270 -1.304329 -3.580135 0
M  V30 29 H 5.619392 -0.142902 -2.633044 0
M  V30 30 H 3.778658 0.694934 -0.551213 0
M  V30 31 H 3.411633 -1.759571 0.986294 0
M  V30 32 H 4.185002 1.124302 1.684452 0
M  V30 33 H 5.168243 -0.382242 2.081313 0
M  V30 34 H 3.395281 0.756446 3.753415 0
M  V30 35 H 3.542071 -1.094930 3.620296 0
M  V30 36 H -0.483593 -0.675432 6.528354 0
M  V30 37 H -3.664909 -0.789888 2.843358 0
M  V30 38 H -1.291407 -0.364278 -1.391322 0
M  V30 39 H -2.691755 -1.408574 -3.972769 0
M  V30 40 H -2.124904 0.291903 -3.728811 0
M  V30 41 H -3.827252 0.029864 -4.179995 0
M  V30 42 H -6.353024 -0.901111 0.230431 0
M  V30 43 H -5.287866 -1.747814 1.384522 0
M  V30 44 H -5.424213 0.029140 1.459093 0
M  V30 45 H 1.278070 -0.884690 0.628805 0
M  V30 46 H 1.915672 0.853251 0.813194 0
M  V30 END ATOM
M  V30 BEGIN BOND
M  V30 1 1 1 2
M  V30 2 2 2 3
M  V30 3 1 2 4
M  V30 4 1 4 5
M  V30 5 1 5 6
M  V30 6 1 6 7
M  V30 7 1 7 8
M  V30 8 1 8 9
M  V30 9 2 9 10
M  V30 10 1 10 11
M  V30 11 1 10 12
M  V30 12 2 12 13
M  V30 13 1 13 14
M  V30 14 1 14 15
M  V30 15 1 15 16
M  V30 16 1 16 17
M  V30 17 2 17 18
M  V30 18 1 18 19
M  V30 19 1 19 20
M  V30 20 1 19 21
M  V30 21 2 21 22
M  V30 22 1 22 23
M  V30 23 2 16 24
M  V30 24 1 24 25
M  V30 25 1 8 26
M  V30 26 1 26 5
M  V30 27 1 25 9
M  V30 28 2 25 14
M  V30 29 1 22 17
M  V30 30 1 1 27
M  V30 31 1 1 28
M  V30 32 1 1 29
M  V30 33 1 4 30
M  V30 34 1 5 31 CFG=1
M  V30 35 1 6 32
M  V30 36 1 6 33
M  V30 37 1 7 34
M  V30 38 1 7 35
M  V30 39 1 12 36
M  V30 40 1 15 37
M  V30 41 1 18 38
M  V30 42 1 20 39
M  V30 43 1 20 40
M  V30 44 1 20 41
M  V30 45 1 23 42
M  V30 46 1 23 43
M  V30 47 1 23 44
M  V30 48 1 26 45
M  V30 49 1 26 46
M  V30 END BOND
M  V30 END CTAB
M  END
>  <Dataset>  (252) 
ChEMBL_Kinases

>  <Ligand_Instance>  (252) 
nan

>  <PDB_ID>  (252) 
nan

>  <Standardized_SMILES>  (252) 
CC(=O)N[C@H]1CCN(c2c(Cl)cnc3[nH]c(-c4cn(C)nc4C)nc23)C1

>  <Name>  (252) 
nan

>  <Pocket>  (252) 
nan

>  <ATP_Site>  (252) 
nan

>  <Peripheral>  (252) 
nan

>  <Num_H_Atoms_ProtBoundConf>  (252) 
nan

>  <Num_Resolved_Atoms>  (252) 
nan

>  <Num_Not_Resolved_Atoms>  (252) 
nan

$$$$
CHEMBL3728684
     RDKit          3D

  0  0  0  0  0  0  0  0  0  0999 V3000
M  V30 BEGIN CTAB
M  V30 COUNTS 33 34 0 0 0
M  V30 BEGIN ATOM
M  V30 1 O -0.505128 0.368351 2.924602 0
M  V30 2 C 0.515206 0.174880 2.175417 0
M  V30 3 C 1.603575 -0.330842 3.003754 0
M  V30 4 N 2.833887 -0.622324 2.349210 0
M  V30 5 C 2.974113 -1.625447 1.355123 0
M  V30 6 C 1.961338 -2.439552 0.909461 0
M  V30 7 C 2.114573 -3.409829 -0.057677 0
M  V30 8 C 3.347920 -3.603348 -0.636045 0
M  V30 9 C 4.405622 -2.824369 -0.238005 0
M  V30 10 F 5.630989 -3.000749 -0.797547 0
M  V30 11 C 4.180595 -1.873575 0.733690 0
M  V30 12 N 0.371306 0.475857 0.796364 0
M  V30 13 N -0.890221 0.954033 0.411348 0
M  V30 14 C -1.856547 0.173544 0.034287 0
M  V30 15 C -3.169343 0.716980 -0.363094 0
M  V30 16 C -4.193401 -0.121687 -0.763481 0
M  V30 17 C -5.424928 0.410204 -1.134709 0
M  V30 18 N -5.610140 1.747852 -1.100505 0
M  V30 19 C -4.594771 2.536073 -0.706608 0
M  V30 20 C -3.340975 2.076288 -0.322819 0
M  V30 21 H 1.240865 -1.315547 3.427746 0
M  V30 22 H 1.787677 0.285400 3.914307 0
M  V30 23 H 3.687255 -0.079419 2.601290 0
M  V30 24 H 0.968257 -2.314342 1.346191 0
M  V30 25 H 1.326006 -4.041160 -0.402303 0
M  V30 26 H 3.524151 -4.348444 -1.397475 0
M  V30 27 H 5.063333 -1.289633 1.003292 0
M  V30 28 H 1.273067 0.281191 0.293136 0
M  V30 29 H -1.649647 -0.888018 0.027003 0
M  V30 30 H -4.068057 -1.189208 -0.798222 0
M  V30 31 H -6.234203 -0.265019 -1.452011 0
M  V30 32 H -4.753742 3.613362 -0.682323 0
M  V30 33 H -2.577655 2.786426 -0.018290 0
M  V30 END ATOM
M  V30 BEGIN BOND
M  V30 1 2 1 2
M  V30 2 1 2 3
M  V30 3 1 3 4
M  V30 4 1 4 5
M  V30 5 2 5 6
M  V30 6 1 6 7
M  V30 7 2 7 8
M  V30 8 1 8 9
M  V30 9 1 9 10
M  V30 10 2 9 11
M  V30 11 1 2 12
M  V30 12 1 12 13
M  V30 13 2 13 14
M  V30 14 1 14 15
M  V30 15 2 15 16
M  V30 16 1 16 17
M  V30 17 2 17 18
M  V30 18 1 18 19
M  V30 19 2 19 20
M  V30 20 1 11 5
M  V30 21 1 20 15
M  V30 22 1 3 21
M  V30 23 1 3 22
M  V30 24 1 4 23
M  V30 25 1 6 24
M  V30 26 1 7 25
M  V30 27 1 8 26
M  V30 28 1 11 27
M  V30 29 1 12 28
M  V30 30 1 14 29
M  V30 31 1 16 30
M  V30 32 1 17 31
M  V30 33 1 19 32
M  V30 34 1 20 33
M  V30 END BOND
M  V30 END CTAB
M  END
>  <Dataset>  (253) 
ChEMBL_Kinases

>  <Ligand_Instance>  (253) 
nan

>  <PDB_ID>  (253) 
nan

>  <Standardized_SMILES>  (253) 
O=C(CNc1cccc(F)c1)N/N=C/c1ccncc1

>  <Name>  (253) 
nan

>  <Pocket>  (253) 
nan

>  <ATP_Site>  (253) 
nan

>  <Peripheral>  (253) 
nan

>  <Num_H_Atoms_ProtBoundConf>  (253) 
nan

>  <Num_Resolved_Atoms>  (253) 
nan

>  <Num_Not_Resolved_Atoms>  (253) 
nan

$$$$
CHEMBL4288081
     RDKit          3D

  0  0  0  0  0  0  0  0  0  0999 V3000
M  V30 BEGIN CTAB
M  V30 COUNTS 49 51 0 0 0
M  V30 BEGIN ATOM
M  V30 1 C 0.050499 -7.248689 -0.939466 0
M  V30 2 N -0.317549 -6.366189 0.182114 0
M  V30 3 C 0.160825 -5.039424 0.128459 0
M  V30 4 O 0.819352 -4.177927 -0.495869 0
M  V30 5 N -0.270742 -4.285735 1.288367 0
M  V30 6 C 0.121346 -2.899808 1.407907 0
M  V30 7 S 1.589016 -2.378808 2.200078 0
M  V30 8 C 1.286005 -0.581758 1.899430 0
M  V30 9 C 2.082857 0.492733 2.269866 0
M  V30 10 C 3.323465 0.242016 3.001357 0
M  V30 11 C 4.518102 0.035818 2.118268 0
M  V30 12 C 3.150839 -0.819259 4.037821 0
M  V30 13 C 1.613506 1.739764 1.911012 0
M  V30 14 C 0.401238 1.860238 1.216876 0
M  V30 15 N -0.070859 3.149472 0.847737 0
M  V30 16 S -0.741553 3.855454 -0.547489 0
M  V30 17 O -1.059611 5.296967 -0.269660 0
M  V30 18 O 0.229068 3.835844 -1.701495 0
M  V30 19 C -2.271752 3.126624 -1.025399 0
M  V30 20 C -2.789268 2.468672 -2.147906 0
M  V30 21 C -4.105874 2.098690 -2.010786 0
M  V30 22 C -4.826070 2.348841 -0.895510 0
M  V30 23 S -3.555392 3.228438 0.172114 0
M  V30 24 C -0.291745 0.728944 0.910570 0
M  V30 25 C 0.078720 -0.549537 1.214540 0
M  V30 26 C -0.451736 -1.775169 1.002724 0
M  V30 27 C -1.696916 -1.921833 0.318070 0
M  V30 28 N -2.555578 -0.945693 -0.239712 0
M  V30 29 O -2.522148 -2.712706 -0.081387 0
M  V30 30 H -0.813243 -7.482673 -1.558076 0
M  V30 31 H 0.526628 -8.140999 -0.452885 0
M  V30 32 H 0.878026 -6.804128 -1.544885 0
M  V30 33 H -0.892911 -6.757937 0.931858 0
M  V30 34 H -0.844865 -4.541799 2.124967 0
M  V30 35 H 3.535373 1.203272 3.563817 0
M  V30 36 H 5.397056 -0.288621 2.675927 0
M  V30 37 H 4.223159 -0.600714 1.260092 0
M  V30 38 H 4.771258 1.020577 1.660054 0
M  V30 39 H 2.063068 -0.917538 4.226089 0
M  V30 40 H 3.628407 -0.510588 4.994106 0
M  V30 41 H 3.553228 -1.781762 3.678446 0
M  V30 42 H 2.226627 2.583675 2.193921 0
M  V30 43 H 0.037916 3.775915 1.681614 0
M  V30 44 H -2.103737 2.334880 -2.966385 0
M  V30 45 H -4.555349 1.575619 -2.871768 0
M  V30 46 H -5.846517 2.091347 -0.722117 0
M  V30 47 H -1.233510 0.914780 0.366872 0
M  V30 48 H -2.716269 -0.341727 -1.084754 0
M  V30 49 H -3.139491 -0.245009 -0.683924 0
M  V30 END ATOM
M  V30 BEGIN BOND
M  V30 1 1 1 2
M  V30 2 1 2 3
M  V30 3 2 3 4
M  V30 4 1 3 5
M  V30 5 1 5 6
M  V30 6 1 6 7
M  V30 7 1 7 8
M  V30 8 2 8 9
M  V30 9 1 9 10
M  V30 10 1 10 11
M  V30 11 1 10 12
M  V30 12 1 9 13
M  V30 13 2 13 14
M  V30 14 1 14 15
M  V30 15 1 15 16
M  V30 16 2 16 17
M  V30 17 2 16 18
M  V30 18 1 16 19
M  V30 19 2 19 20
M  V30 20 1 20 21
M  V30 21 2 21 22
M  V30 22 1 22 23
M  V30 23 1 14 24
M  V30 24 2 24 25
M  V30 25 1 25 26
M  V30 26 1 26 27
M  V30 27 1 27 28
M  V30 28 2 27 29
M  V30 29 2 26 6
M  V30 30 1 25 8
M  V30 31 1 23 19
M  V30 32 1 1 30
M  V30 33 1 1 31
M  V30 34 1 1 32
M  V30 35 1 2 33
M  V30 36 1 5 34
M  V30 37 1 10 35
M  V30 38 1 11 36
M  V30 39 1 11 37
M  V30 40 1 11 38
M  V30 41 1 12 39
M  V30 42 1 12 40
M  V30 43 1 12 41
M  V30 44 1 13 42
M  V30 45 1 15 43
M  V30 46 1 20 44
M  V30 47 1 21 45
M  V30 48 1 22 46
M  V30 49 1 24 47
M  V30 50 1 28 48
M  V30 51 1 28 49
M  V30 END BOND
M  V30 END CTAB
M  END
>  <Dataset>  (254) 
ChEMBL_Kinases

>  <Ligand_Instance>  (254) 
nan

>  <PDB_ID>  (254) 
nan

>  <Standardized_SMILES>  (254) 
CNC(=O)Nc1sc2c(C(C)C)cc(NS(=O)(=O)c3cccs3)cc2c1C(N)=O

>  <Name>  (254) 
nan

>  <Pocket>  (254) 
nan

>  <ATP_Site>  (254) 
nan

>  <Peripheral>  (254) 
nan

>  <Num_H_Atoms_ProtBoundConf>  (254) 
nan

>  <Num_Resolved_Atoms>  (254) 
nan

>  <Num_Not_Resolved_Atoms>  (254) 
nan

$$$$
CHEMBL4287847
     RDKit          3D

  0  0  0  0  0  0  0  0  0  0999 V3000
M  V30 BEGIN CTAB
M  V30 COUNTS 35 37 0 0 0
M  V30 BEGIN ATOM
M  V30 1 C 0.313015 -5.468249 1.569240 0
M  V30 2 C 1.216746 -4.373454 2.150493 0
M  V30 3 C 1.304397 -4.563235 3.633059 0
M  V30 4 C 0.585929 -3.080762 1.776497 0
M  V30 5 C 1.125362 -2.105764 0.970214 0
M  V30 6 C 0.398518 -0.960244 0.725458 0
M  V30 7 C 0.993368 -0.001541 -0.100620 0
M  V30 8 O 2.127334 -0.186709 -0.585901 0
M  V30 9 C 0.262142 1.125151 -0.332923 0
M  V30 10 C 0.761825 2.131556 -1.135683 0
M  V30 11 C -0.033660 3.245845 -1.328091 0
M  V30 12 C 0.516699 4.294783 -2.180043 0
M  V30 13 O 1.642168 4.270789 -2.748176 0
M  V30 14 O -0.172025 5.470492 -2.460828 0
M  V30 15 C -1.281123 3.375797 -0.754317 0
M  V30 16 N -2.082039 4.530123 -0.965594 0
M  V30 17 N -1.726797 2.367558 0.021548 0
M  V30 18 C -0.993480 1.256734 0.244182 0
M  V30 19 O -1.524699 0.329413 1.020418 0
M  V30 20 C -0.869712 -0.779754 1.282600 0
M  V30 21 C -1.366134 -1.787140 2.084209 0
M  V30 22 N -0.635053 -2.899483 2.308818 0
M  V30 23 H 0.826083 -6.448464 1.678944 0
M  V30 24 H -0.658274 -5.409570 2.087157 0
M  V30 25 H 0.218247 -5.277695 0.490366 0
M  V30 26 H 2.211143 -4.415787 1.659947 0
M  V30 27 H 0.615954 -3.869135 4.176009 0
M  V30 28 H 0.929722 -5.584058 3.906436 0
M  V30 29 H 2.340245 -4.503633 4.042654 0
M  V30 30 H 2.104687 -2.320538 0.580800 0
M  V30 31 H 1.736618 2.041553 -1.590289 0
M  V30 32 H 0.258678 6.387129 -2.515223 0
M  V30 33 H -2.183771 5.433140 -0.418483 0
M  V30 34 H -2.722114 4.582252 -1.794883 0
M  V30 35 H -2.345834 -1.678553 2.531295 0
M  V30 END ATOM
M  V30 BEGIN BOND
M  V30 1 1 1 2
M  V30 2 1 2 3
M  V30 3 1 2 4
M  V30 4 2 4 5
M  V30 5 1 5 6
M  V30 6 1 6 7
M  V30 7 2 7 8
M  V30 8 1 7 9
M  V30 9 2 9 10
M  V30 10 1 10 11
M  V30 11 1 11 12
M  V30 12 2 12 13
M  V30 13 1 12 14
M  V30 14 2 11 15
M  V30 15 1 15 16
M  V30 16 1 15 17
M  V30 17 2 17 18
M  V30 18 1 18 19
M  V30 19 1 19 20
M  V30 20 1 20 21
M  V30 21 2 21 22
M  V30 22 1 22 4
M  V30 23 2 20 6
M  V30 24 1 18 9
M  V30 25 1 1 23
M  V30 26 1 1 24
M  V30 27 1 1 25
M  V30 28 1 2 26
M  V30 29 1 3 27
M  V30 30 1 3 28
M  V30 31 1 3 29
M  V30 32 1 5 30
M  V30 33 1 10 31
M  V30 34 1 14 32
M  V30 35 1 16 33
M  V30 36 1 16 34
M  V30 37 1 21 35
M  V30 END BOND
M  V30 END CTAB
M  END
>  <Dataset>  (255) 
ChEMBL_Kinases

>  <Ligand_Instance>  (255) 
nan

>  <PDB_ID>  (255) 
nan

>  <Standardized_SMILES>  (255) 
CC(C)c1cc2c(=O)c3cc(C(=O)O)c(N)nc3oc2cn1

>  <Name>  (255) 
nan

>  <Pocket>  (255) 
nan

>  <ATP_Site>  (255) 
nan

>  <Peripheral>  (255) 
nan

>  <Num_H_Atoms_ProtBoundConf>  (255) 
nan

>  <Num_Resolved_Atoms>  (255) 
nan

>  <Num_Not_Resolved_Atoms>  (255) 
nan

$$$$
CHEMBL3701755
     RDKit          3D

  0  0  0  0  0  0  0  0  0  0999 V3000
M  V30 BEGIN CTAB
M  V30 COUNTS 59 65 0 0 0
M  V30 BEGIN ATOM
M  V30 1 N 3.291081 -3.944690 0.723395 0
M  V30 2 C 2.602641 -3.260830 -0.362741 0
M  V30 3 C 1.445931 -2.524226 0.157226 0
M  V30 4 C 1.781544 -1.661680 1.181866 0
M  V30 5 C 0.869446 -0.861321 1.836016 0
M  V30 6 C -0.452619 -0.921113 1.450301 0
M  V30 7 C -1.621286 -0.175234 1.964190 0
M  V30 8 N -2.676982 -0.714833 2.608146 0
M  V30 9 C -3.535278 0.270780 2.921649 0
M  V30 10 N -3.029448 1.438271 2.479064 0
M  V30 11 C -1.848061 1.205623 1.882414 0
M  V30 12 C -0.838615 2.055876 1.218139 0
M  V30 13 C -0.529908 1.947251 -0.129694 0
M  V30 14 C 0.449054 2.802074 -0.645780 0
M  V30 15 C 1.104600 3.735715 0.139366 0
M  V30 16 C 0.758138 3.805341 1.488108 0
M  V30 17 C -0.209643 2.975537 2.047277 0
M  V30 18 C -3.618388 2.758063 2.593104 0
M  V30 19 O -4.846237 2.748883 3.258076 0
M  V30 20 C -5.465347 1.622258 3.755112 0
M  V30 21 N -6.651480 1.689386 4.379636 0
M  V30 22 C -7.213691 0.560181 4.846835 0
M  V30 23 C -6.586619 -0.675008 4.693517 0
M  V30 24 N -5.409889 -0.728492 4.071911 0
M  V30 25 C -4.838073 0.406107 3.598785 0
M  V30 26 C -0.817603 -1.779351 0.423868 0
M  V30 27 C 0.099396 -2.577160 -0.226196 0
M  V30 28 C 2.374288 -4.119761 -1.579554 0
M  V30 29 C 2.801899 -2.970324 -2.430528 0
M  V30 30 O 1.702051 -2.117669 -2.679626 0
M  V30 31 C 3.640033 -3.237255 -3.632438 0
M  V30 32 C 4.971307 -3.860263 -3.608608 0
M  V30 33 C 3.788285 -4.599534 -4.199479 0
M  V30 34 C 3.528533 -2.423137 -1.213176 0
M  V30 35 H 3.894589 -4.712400 0.383296 0
M  V30 36 H 3.858021 -3.212879 1.206686 0
M  V30 37 H 2.795651 -1.515484 1.587817 0
M  V30 38 H 1.031208 -0.165784 2.634649 0
M  V30 39 H -1.043512 1.223504 -0.725168 0
M  V30 40 H 0.714524 2.739689 -1.708697 0
M  V30 41 H 1.846678 4.361636 -0.326141 0
M  V30 42 H 1.295070 4.550012 2.069783 0
M  V30 43 H -0.443530 3.066351 3.098560 0
M  V30 44 H -2.932299 3.480475 3.074728 0
M  V30 45 H -3.822623 3.188105 1.568703 0
M  V30 46 H -8.170476 0.526815 5.363307 0
M  V30 47 H -7.020735 -1.573530 5.057705 0
M  V30 48 H -1.813824 -1.922432 0.024696 0
M  V30 49 H -0.095533 -3.262313 -1.011226 0
M  V30 50 H 3.100403 -4.975250 -1.535620 0
M  V30 51 H 1.348643 -4.511788 -1.724830 0
M  V30 52 H 1.152531 -2.537195 -3.392675 0
M  V30 53 H 3.520789 -2.429835 -4.414609 0
M  V30 54 H 5.427287 -4.354349 -2.742422 0
M  V30 55 H 5.765142 -3.492618 -4.323016 0
M  V30 56 H 3.433117 -5.513922 -3.696394 0
M  V30 57 H 3.847424 -4.724643 -5.307896 0
M  V30 58 H 4.567708 -2.783378 -1.073862 0
M  V30 59 H 3.393557 -1.333191 -1.088011 0
M  V30 END ATOM
M  V30 BEGIN BOND
M  V30 1 1 1 2
M  V30 2 1 2 3
M  V30 3 2 3 4
M  V30 4 1 4 5
M  V30 5 2 5 6
M  V30 6 1 6 7
M  V30 7 1 7 8
M  V30 8 2 8 9
M  V30 9 1 9 10
M  V30 10 1 10 11
M  V30 11 1 11 12
M  V30 12 2 12 13
M  V30 13 1 13 14
M  V30 14 2 14 15
M  V30 15 1 15 16
M  V30 16 2 16 17
M  V30 17 1 10 18
M  V30 18 1 18 19
M  V30 19 1 19 20
M  V30 20 2 20 21
M  V30 21 1 21 22
M  V30 22 2 22 23
M  V30 23 1 23 24
M  V30 24 2 24 25
M  V30 25 1 6 26
M  V30 26 2 26 27
M  V30 27 1 2 28
M  V30 28 1 28 29
M  V30 29 1 29 30
M  V30 30 1 29 31
M  V30 31 1 31 32
M  V30 32 1 32 33
M  V30 33 1 29 34
M  V30 34 1 34 2
M  V30 35 1 27 3
M  V30 36 1 33 31
M  V30 37 2 11 7
M  V30 38 1 17 12
M  V30 39 1 25 20
M  V30 40 1 25 9
M  V30 41 1 1 35
M  V30 42 1 1 36
M  V30 43 1 4 37
M  V30 44 1 5 38
M  V30 45 1 13 39
M  V30 46 1 14 40
M  V30 47 1 15 41
M  V30 48 1 16 42
M  V30 49 1 17 43
M  V30 50 1 18 44
M  V30 51 1 18 45
M  V30 52 1 22 46
M  V30 53 1 23 47
M  V30 54 1 26 48
M  V30 55 1 27 49
M  V30 56 1 28 50
M  V30 57 1 28 51
M  V30 58 1 30 52
M  V30 59 1 31 53
M  V30 60 1 32 54
M  V30 61 1 32 55
M  V30 62 1 33 56
M  V30 63 1 33 57
M  V30 64 1 34 58
M  V30 65 1 34 59
M  V30 END BOND
M  V30 END CTAB
M  END
>  <Dataset>  (256) 
ChEMBL_Kinases

>  <Ligand_Instance>  (256) 
nan

>  <PDB_ID>  (256) 
nan

>  <Standardized_SMILES>  (256) 
NC1(c2ccc(-c3nc4n(c3-c3ccccc3)COc3nccnc3-4)cc2)CC(O)(C2CC2)C1

>  <Name>  (256) 
nan

>  <Pocket>  (256) 
nan

>  <ATP_Site>  (256) 
nan

>  <Peripheral>  (256) 
nan

>  <Num_H_Atoms_ProtBoundConf>  (256) 
nan

>  <Num_Resolved_Atoms>  (256) 
nan

>  <Num_Not_Resolved_Atoms>  (256) 
nan

$$$$
CHEMBL2163394
     RDKit          3D

  0  0  0  0  0  0  0  0  0  0999 V3000
M  V30 BEGIN CTAB
M  V30 COUNTS 73 78 0 0 0
M  V30 BEGIN ATOM
M  V30 1 C 4.315183 -1.976692 5.125659 0
M  V30 2 C 4.419055 -0.581561 4.610374 0
M  V30 3 C 3.674701 -0.034731 3.584340 0
M  V30 4 C 4.070631 1.296174 3.404388 0
M  V30 5 N 3.453157 2.061897 2.414212 0
M  V30 6 C 3.774365 2.283510 1.052419 0
M  V30 7 N 2.995841 3.068369 0.306757 0
M  V30 8 C 3.230396 3.329815 -0.990288 0
M  V30 9 S 2.104405 4.405929 -1.896337 0
M  V30 10 C 0.847064 3.296512 -2.574425 0
M  V30 11 C -0.290523 3.038895 -1.801725 0
M  V30 12 C -1.281164 2.198044 -2.269481 0
M  V30 13 C -1.106351 1.622635 -3.526064 0
M  V30 14 N -2.178918 0.766840 -3.927410 0
M  V30 15 C -1.990666 -0.594534 -3.530862 0
M  V30 16 O -0.874044 -0.642409 -2.910469 0
M  V30 17 C -3.052652 -1.564732 -3.901769 0
M  V30 18 N -2.741841 -2.902939 -3.442183 0
M  V30 19 C -3.783979 -3.840622 -3.819108 0
M  V30 20 C -4.554483 -4.189589 -2.583409 0
M  V30 21 C -4.084815 -3.138173 -1.570004 0 CFG=1
M  V30 22 C -4.218841 -3.730130 -0.229274 0
M  V30 23 O -4.601036 -4.830726 0.291433 0
M  V30 24 N -3.803053 -2.817623 0.806142 0
M  V30 25 C -3.804572 -3.072036 2.213841 0
M  V30 26 C -2.476117 -2.910131 2.894188 0
M  V30 27 C -2.908412 -3.049346 4.360733 0
M  V30 28 C -4.265019 -2.346710 4.403647 0
M  V30 29 C -4.633935 -2.029716 2.973848 0
M  V30 30 C -2.647417 -2.968328 -1.996873 0
M  V30 31 C 0.008556 1.863856 -4.304419 0
M  V30 32 C 0.990257 2.706294 -3.823924 0
M  V30 33 N 4.311506 2.764216 -1.556895 0
M  V30 34 N 5.130760 1.967900 -0.862514 0
M  V30 35 C 6.254054 1.306529 -1.224434 0
M  V30 36 C 6.729795 0.623074 -0.144545 0
M  V30 37 C 5.864844 0.884224 0.892711 0
M  V30 38 C 4.868937 1.723362 0.440542 0
M  V30 39 N 5.048011 1.518379 4.330920 0
M  V30 40 N 5.236034 0.408884 5.024753 0
M  V30 41 H 4.903392 -2.654716 4.482861 0
M  V30 42 H 4.704904 -2.068157 6.152514 0
M  V30 43 H 3.237972 -2.288389 5.173009 0
M  V30 44 H 2.914176 -0.618672 3.047370 0
M  V30 45 H 2.617119 2.515178 2.840027 0
M  V30 46 H -0.375959 3.512460 -0.831644 0
M  V30 47 H -2.144752 2.018672 -1.653059 0
M  V30 48 H -3.005062 1.153595 -4.462198 0
M  V30 49 H -3.202521 -1.546637 -4.991197 0
M  V30 50 H -3.977753 -1.239313 -3.391202 0
M  V30 51 H -3.280609 -4.782438 -4.185401 0
M  V30 52 H -4.431480 -3.483080 -4.634839 0
M  V30 53 H -4.231392 -5.174543 -2.179411 0
M  V30 54 H -5.657161 -4.137627 -2.709721 0
M  V30 55 H -4.702726 -2.246746 -1.687474 0
M  V30 56 H -3.435654 -1.837323 0.743177 0
M  V30 57 H -4.175445 -4.095643 2.434922 0
M  V30 58 H -2.095390 -1.858204 2.765475 0
M  V30 59 H -1.721181 -3.653642 2.619978 0
M  V30 60 H -2.197010 -2.603614 5.058722 0
M  V30 61 H -3.095226 -4.132080 4.535448 0
M  V30 62 H -4.210903 -1.425555 5.024731 0
M  V30 63 H -5.068374 -3.029098 4.793332 0
M  V30 64 H -5.715159 -2.182796 2.777350 0
M  V30 65 H -4.247787 -1.047658 2.700900 0
M  V30 66 H -2.091581 -3.865243 -1.726451 0
M  V30 67 H -2.188288 -2.053829 -1.595711 0
M  V30 68 H 0.090009 1.394109 -5.263195 0
M  V30 69 H 1.864865 2.916849 -4.395210 0
M  V30 70 H 6.646345 1.369941 -2.251006 0
M  V30 71 H 7.621921 0.013818 -0.175378 0
M  V30 72 H 5.959570 0.492160 1.892472 0
M  V30 73 H 5.902157 0.217985 5.809444 0
M  V30 END ATOM
M  V30 BEGIN BOND
M  V30 1 1 1 2
M  V30 2 2 2 3
M  V30 3 1 3 4
M  V30 4 1 4 5
M  V30 5 1 5 6
M  V30 6 2 6 7
M  V30 7 1 7 8
M  V30 8 1 8 9
M  V30 9 1 9 10
M  V30 10 2 10 11
M  V30 11 1 11 12
M  V30 12 2 12 13
M  V30 13 1 13 14
M  V30 14 1 14 15
M  V30 15 2 15 16
M  V30 16 1 15 17
M  V30 17 1 17 18
M  V30 18 1 18 19
M  V30 19 1 19 20
M  V30 20 1 20 21
M  V30 21 1 21 22
M  V30 22 2 22 23
M  V30 23 1 22 24
M  V30 24 1 24 25
M  V30 25 1 25 26
M  V30 26 1 26 27
M  V30 27 1 27 28
M  V30 28 1 28 29
M  V30 29 1 21 30
M  V30 30 1 13 31
M  V30 31 2 31 32
M  V30 32 2 8 33
M  V30 33 1 33 34
M  V30 34 1 34 35
M  V30 35 2 35 36
M  V30 36 1 36 37
M  V30 37 2 37 38
M  V30 38 2 4 39
M  V30 39 1 39 40
M  V30 40 1 40 2
M  V30 41 1 38 6
M  V30 42 1 32 10
M  V30 43 1 38 34
M  V30 44 1 30 18
M  V30 45 1 29 25
M  V30 46 1 1 41
M  V30 47 1 1 42
M  V30 48 1 1 43
M  V30 49 1 3 44
M  V30 50 1 5 45
M  V30 51 1 11 46
M  V30 52 1 12 47
M  V30 53 1 14 48
M  V30 54 1 17 49
M  V30 55 1 17 50
M  V30 56 1 19 51
M  V30 57 1 19 52
M  V30 58 1 20 53
M  V30 59 1 20 54
M  V30 60 1 21 55 CFG=1
M  V30 61 1 24 56
M  V30 62 1 25 57
M  V30 63 1 26 58
M  V30 64 1 26 59
M  V30 65 1 27 60
M  V30 66 1 27 61
M  V30 67 1 28 62
M  V30 68 1 28 63
M  V30 69 1 29 64
M  V30 70 1 29 65
M  V30 71 1 30 66
M  V30 72 1 30 67
M  V30 73 1 31 68
M  V30 74 1 32 69
M  V30 75 1 35 70
M  V30 76 1 36 71
M  V30 77 1 37 72
M  V30 78 1 40 73
M  V30 END BOND
M  V30 END CTAB
M  END
>  <Dataset>  (257) 
ChEMBL_Kinases

>  <Ligand_Instance>  (257) 
nan

>  <PDB_ID>  (257) 
nan

>  <Standardized_SMILES>  (257) 
Cc1cc(Nc2nc(Sc3ccc(NC(=O)CN4CC[C@@H](C(=O)NC5CCCC5)C4)cc3)nn3cccc23)n[nH]1

>  <Name>  (257) 
nan

>  <Pocket>  (257) 
nan

>  <ATP_Site>  (257) 
nan

>  <Peripheral>  (257) 
nan

>  <Num_H_Atoms_ProtBoundConf>  (257) 
nan

>  <Num_Resolved_Atoms>  (257) 
nan

>  <Num_Not_Resolved_Atoms>  (257) 
nan

$$$$
CHEMBL3087772
     RDKit          3D

  0  0  0  0  0  0  0  0  0  0999 V3000
M  V30 BEGIN CTAB
M  V30 COUNTS 46 49 0 0 0
M  V30 BEGIN ATOM
M  V30 1 C 1.250347 -4.119963 3.570958 0
M  V30 2 N 1.585855 -3.376365 2.367336 0
M  V30 3 C 1.902607 -2.053110 2.252514 0
M  V30 4 C 2.151193 -1.783226 0.902227 0
M  V30 5 C 2.507777 -0.400846 0.601549 0
M  V30 6 N 3.723664 -0.115095 0.080356 0
M  V30 7 C 3.791883 1.236579 -0.099274 0
M  V30 8 N 4.755234 2.047454 -0.578262 0
M  V30 9 C 4.479238 3.370764 -0.616561 0
M  V30 10 C 3.293346 3.970523 -0.207139 0
M  V30 11 Cl 3.040777 5.683069 -0.299010 0
M  V30 12 C 2.305347 3.143310 0.283580 0
M  V30 13 C 2.598632 1.791773 0.318123 0
M  V30 14 C 1.787344 0.765544 0.759923 0
M  V30 15 C 0.433601 0.835781 1.294591 0
M  V30 16 C 0.065354 1.486706 2.466648 0
M  V30 17 C -1.253064 1.489364 2.876803 0
M  V30 18 C -2.261377 0.855677 2.156601 0
M  V30 19 C -1.925544 0.195692 0.979662 0
M  V30 20 C -2.916397 -0.513902 0.128286 0
M  V30 21 N -3.026269 -1.895845 0.544695 0
M  V30 22 S -4.171404 -2.752932 -0.424381 0
M  V30 23 C -3.668447 -2.773207 -2.128154 0
M  V30 24 O -5.497993 -2.065134 -0.261595 0
M  V30 25 O -4.216035 -4.175977 0.053948 0
M  V30 26 C -0.581807 0.211872 0.592356 0
M  V30 27 C 1.970133 -2.982651 0.242215 0
M  V30 28 N 1.631441 -3.923317 1.142019 0
M  V30 29 H 1.854545 -3.782102 4.448260 0
M  V30 30 H 0.174953 -4.032380 3.841911 0
M  V30 31 H 1.460211 -5.182768 3.408910 0
M  V30 32 H 1.914910 -1.445220 3.160100 0
M  V30 33 H 4.534124 -0.753890 -0.173834 0
M  V30 34 H 5.246531 4.034355 -1.000160 0
M  V30 35 H 1.362908 3.520919 0.620314 0
M  V30 36 H 0.853539 1.973505 3.015509 0
M  V30 37 H -1.533096 1.995660 3.786538 0
M  V30 38 H -3.290858 0.853416 2.470580 0
M  V30 39 H -2.600560 -0.419439 -0.919895 0
M  V30 40 H -3.925450 -0.033203 0.228814 0
M  V30 41 H -2.119984 -2.365553 0.650181 0
M  V30 42 H -2.557409 -2.859896 -2.208816 0
M  V30 43 H -3.930975 -1.804654 -2.596732 0
M  V30 44 H -4.104296 -3.630061 -2.681840 0
M  V30 45 H -0.330892 -0.312069 -0.336406 0
M  V30 46 H 2.124657 -2.955629 -0.825542 0
M  V30 END ATOM
M  V30 BEGIN BOND
M  V30 1 1 1 2
M  V30 2 1 2 3
M  V30 3 2 3 4
M  V30 4 1 4 5
M  V30 5 1 5 6
M  V30 6 1 6 7
M  V30 7 2 7 8
M  V30 8 1 8 9
M  V30 9 2 9 10
M  V30 10 1 10 11
M  V30 11 1 10 12
M  V30 12 2 12 13
M  V30 13 1 13 14
M  V30 14 1 14 15
M  V30 15 2 15 16
M  V30 16 1 16 17
M  V30 17 2 17 18
M  V30 18 1 18 19
M  V30 19 1 19 20
M  V30 20 1 20 21
M  V30 21 1 21 22
M  V30 22 1 22 23
M  V30 23 2 22 24
M  V30 24 2 22 25
M  V30 25 2 19 26
M  V30 26 1 4 27
M  V30 27 2 27 28
M  V30 28 1 28 2
M  V30 29 2 14 5
M  V30 30 1 26 15
M  V30 31 1 13 7
M  V30 32 1 1 29
M  V30 33 1 1 30
M  V30 34 1 1 31
M  V30 35 1 3 32
M  V30 36 1 6 33
M  V30 37 1 9 34
M  V30 38 1 12 35
M  V30 39 1 16 36
M  V30 40 1 17 37
M  V30 41 1 18 38
M  V30 42 1 20 39
M  V30 43 1 20 40
M  V30 44 1 21 41
M  V30 45 1 23 42
M  V30 46 1 23 43
M  V30 47 1 23 44
M  V30 48 1 26 45
M  V30 49 1 27 46
M  V30 END BOND
M  V30 END CTAB
M  END
>  <Dataset>  (258) 
ChEMBL_Kinases

>  <Ligand_Instance>  (258) 
nan

>  <PDB_ID>  (258) 
nan

>  <Standardized_SMILES>  (258) 
Cn1cc(-c2[nH]c3ncc(Cl)cc3c2-c2cccc(CNS(C)(=O)=O)c2)cn1

>  <Name>  (258) 
nan

>  <Pocket>  (258) 
nan

>  <ATP_Site>  (258) 
nan

>  <Peripheral>  (258) 
nan

>  <Num_H_Atoms_ProtBoundConf>  (258) 
nan

>  <Num_Resolved_Atoms>  (258) 
nan

>  <Num_Not_Resolved_Atoms>  (258) 
nan

$$$$
CHEMBL3087773
     RDKit          3D

  0  0  0  0  0  0  0  0  0  0999 V3000
M  V30 BEGIN CTAB
M  V30 COUNTS 50 53 0 0 0
M  V30 BEGIN ATOM
M  V30 1 C 2.243643 -3.917120 -4.660215 0
M  V30 2 O 2.858655 -3.901653 -3.369017 0
M  V30 3 C 2.664697 -2.787539 -2.562262 0
M  V30 4 C 3.276763 -2.814145 -1.324103 0
M  V30 5 C 3.141902 -1.762951 -0.464368 0
M  V30 6 C 2.410571 -0.658147 -0.780781 0
M  V30 7 C 2.138294 0.551621 -0.020466 0
M  V30 8 N 2.621284 1.723095 -0.493120 0
M  V30 9 C 2.282132 2.760338 0.331741 0
M  V30 10 N 2.501754 4.087668 0.329543 0
M  V30 11 C 2.022813 4.876612 1.317655 0
M  V30 12 C 1.282894 4.342103 2.375940 0
M  V30 13 Cl 0.665089 5.384319 3.656347 0
M  V30 14 C 1.043643 2.962818 2.395885 0
M  V30 15 C 1.555392 2.199969 1.361463 0
M  V30 16 C 1.448633 0.825372 1.170032 0
M  V30 17 C 0.816562 -0.216142 1.921721 0
M  V30 18 C 1.342440 -1.293393 2.608113 0
M  V30 19 C 0.530098 -2.193454 3.270738 0
M  V30 20 C -0.847644 -2.060449 3.279339 0
M  V30 21 C -1.385058 -0.988853 2.597739 0
M  V30 22 C -2.867883 -0.906457 2.645528 0
M  V30 23 N -3.414754 -1.634982 1.534297 0
M  V30 24 S -5.135631 -1.619137 1.470855 0
M  V30 25 C -5.875201 -2.360131 2.872260 0
M  V30 26 O -5.572616 -0.163138 1.416241 0
M  V30 27 O -5.556041 -2.224946 0.161943 0
M  V30 28 C -0.579682 -0.071144 1.924065 0
M  V30 29 C 1.786839 -0.628083 -2.038874 0
M  V30 30 C 1.910840 -1.693438 -2.936697 0
M  V30 31 H 2.391983 -4.866196 -5.176499 0
M  V30 32 H 2.746210 -3.111900 -5.240728 0
M  V30 33 H 1.163203 -3.608591 -4.608906 0
M  V30 34 H 3.868489 -3.642950 -0.997405 0
M  V30 35 H 3.585431 -1.713526 0.504349 0
M  V30 36 H 3.185878 1.949415 -1.347833 0
M  V30 37 H 2.231435 5.950123 1.265311 0
M  V30 38 H 0.470995 2.513192 3.204978 0
M  V30 39 H 2.423365 -1.322608 2.551703 0
M  V30 40 H 1.098542 -2.981476 3.760544 0
M  V30 41 H -1.416451 -2.803325 3.818395 0
M  V30 42 H -3.272405 -1.237750 3.621833 0
M  V30 43 H -3.168121 0.155769 2.523469 0
M  V30 44 H -2.983776 -1.270362 0.659224 0
M  V30 45 H -6.361989 -3.314506 2.523205 0
M  V30 46 H -6.621821 -1.704832 3.344332 0
M  V30 47 H -5.174708 -2.664110 3.654411 0
M  V30 48 H -1.184451 0.703982 1.445705 0
M  V30 49 H 1.172252 0.192220 -2.422134 0
M  V30 50 H 1.437030 -1.682619 -3.906230 0
M  V30 END ATOM
M  V30 BEGIN BOND
M  V30 1 1 1 2
M  V30 2 1 2 3
M  V30 3 2 3 4
M  V30 4 1 4 5
M  V30 5 2 5 6
M  V30 6 1 6 7
M  V30 7 1 7 8
M  V30 8 1 8 9
M  V30 9 2 9 10
M  V30 10 1 10 11
M  V30 11 2 11 12
M  V30 12 1 12 13
M  V30 13 1 12 14
M  V30 14 2 14 15
M  V30 15 1 15 16
M  V30 16 1 16 17
M  V30 17 2 17 18
M  V30 18 1 18 19
M  V30 19 2 19 20
M  V30 20 1 20 21
M  V30 21 1 21 22
M  V30 22 1 22 23
M  V30 23 1 23 24
M  V30 24 1 24 25
M  V30 25 2 24 26
M  V30 26 2 24 27
M  V30 27 2 21 28
M  V30 28 1 6 29
M  V30 29 2 29 30
M  V30 30 1 30 3
M  V30 31 2 16 7
M  V30 32 1 28 17
M  V30 33 1 15 9
M  V30 34 1 1 31
M  V30 35 1 1 32
M  V30 36 1 1 33
M  V30 37 1 4 34
M  V30 38 1 5 35
M  V30 39 1 8 36
M  V30 40 1 11 37
M  V30 41 1 14 38
M  V30 42 1 18 39
M  V30 43 1 19 40
M  V30 44 1 20 41
M  V30 45 1 22 42
M  V30 46 1 22 43
M  V30 47 1 23 44
M  V30 48 1 25 45
M  V30 49 1 25 46
M  V30 50 1 25 47
M  V30 51 1 28 48
M  V30 52 1 29 49
M  V30 53 1 30 50
M  V30 END BOND
M  V30 END CTAB
M  END
>  <Dataset>  (259) 
ChEMBL_Kinases

>  <Ligand_Instance>  (259) 
nan

>  <PDB_ID>  (259) 
nan

>  <Standardized_SMILES>  (259) 
COc1ccc(-c2[nH]c3ncc(Cl)cc3c2-c2cccc(CNS(C)(=O)=O)c2)cc1

>  <Name>  (259) 
nan

>  <Pocket>  (259) 
nan

>  <ATP_Site>  (259) 
nan

>  <Peripheral>  (259) 
nan

>  <Num_H_Atoms_ProtBoundConf>  (259) 
nan

>  <Num_Resolved_Atoms>  (259) 
nan

>  <Num_Not_Resolved_Atoms>  (259) 
nan

$$$$
CHEMBL3087774
     RDKit          3D

  0  0  0  0  0  0  0  0  0  0999 V3000
M  V30 BEGIN CTAB
M  V30 COUNTS 45 48 0 0 0
M  V30 BEGIN ATOM
M  V30 1 C 0.875561 -2.376484 5.431145 0
M  V30 2 C 0.423347 -2.702226 4.035819 0
M  V30 3 O -0.696763 -2.327978 3.618058 0
M  V30 4 N 1.319419 -3.445983 3.226263 0
M  V30 5 C 1.057529 -3.855521 1.848193 0
M  V30 6 C 1.217253 -2.718778 0.906831 0
M  V30 7 C 2.506568 -2.583583 0.431129 0
M  V30 8 C 2.824900 -1.563597 -0.465422 0
M  V30 9 C 1.831714 -0.684027 -0.876002 0
M  V30 10 C 0.541534 -0.822804 -0.397245 0
M  V30 11 C -0.498553 0.102814 -0.829988 0
M  V30 12 C -0.635723 1.466592 -0.654464 0
M  V30 13 C 0.349611 2.263381 0.070576 0
M  V30 14 C 1.164831 3.316211 -0.262119 0
M  V30 15 N 1.901838 3.681066 0.827359 0
M  V30 16 N 1.563848 2.876173 1.837231 0
M  V30 17 C 2.093910 2.895757 3.195770 0
M  V30 18 C 0.630278 2.011337 1.411407 0
M  V30 19 N -1.769384 1.899252 -1.235961 0
M  V30 20 C -2.411764 0.856637 -1.806644 0
M  V30 21 N -3.569746 0.819514 -2.490511 0
M  V30 22 C -4.041651 -0.344965 -2.984721 0
M  V30 23 C -3.305761 -1.491121 -2.769430 0
M  V30 24 Cl -3.900511 -3.005830 -3.400766 0
M  V30 25 C -2.108499 -1.458489 -2.063281 0
M  V30 26 C -1.615737 -0.265440 -1.551673 0
M  V30 27 C 0.256075 -1.839662 0.487514 0
M  V30 28 H 1.911255 -1.983051 5.439404 0
M  V30 29 H 0.205424 -1.576289 5.821912 0
M  V30 30 H 0.765215 -3.290972 6.060545 0
M  V30 31 H 2.260499 -3.742791 3.622836 0
M  V30 32 H 1.692513 -4.719087 1.568334 0
M  V30 33 H -0.004674 -4.205993 1.744985 0
M  V30 34 H 3.336489 -3.223539 0.698227 0
M  V30 35 H 3.834998 -1.455003 -0.839998 0
M  V30 36 H 2.076980 0.113458 -1.576371 0
M  V30 37 H 1.150446 3.729079 -1.278684 0
M  V30 38 H 2.873087 3.699871 3.269848 0
M  V30 39 H 2.575383 1.945449 3.474932 0
M  V30 40 H 1.272314 3.183992 3.878707 0
M  V30 41 H 0.176415 1.235882 2.044295 0
M  V30 42 H -2.070749 2.893799 -1.226279 0
M  V30 43 H -4.976358 -0.314431 -3.524877 0
M  V30 44 H -1.521994 -2.367933 -1.891408 0
M  V30 45 H -0.732535 -1.997690 0.894672 0
M  V30 END ATOM
M  V30 BEGIN BOND
M  V30 1 1 1 2
M  V30 2 2 2 3
M  V30 3 1 2 4
M  V30 4 1 4 5
M  V30 5 1 5 6
M  V30 6 2 6 7
M  V30 7 1 7 8
M  V30 8 2 8 9
M  V30 9 1 9 10
M  V30 10 1 10 11
M  V30 11 2 11 12
M  V30 12 1 12 13
M  V30 13 1 13 14
M  V30 14 2 14 15
M  V30 15 1 15 16
M  V30 16 1 16 17
M  V30 17 1 16 18
M  V30 18 1 12 19
M  V30 19 1 19 20
M  V30 20 2 20 21
M  V30 21 1 21 22
M  V30 22 2 22 23
M  V30 23 1 23 24
M  V30 24 1 23 25
M  V30 25 2 25 26
M  V30 26 2 10 27
M  V30 27 1 27 6
M  V30 28 1 26 11
M  V30 29 2 18 13
M  V30 30 1 26 20
M  V30 31 1 1 28
M  V30 32 1 1 29
M  V30 33 1 1 30
M  V30 34 1 4 31
M  V30 35 1 5 32
M  V30 36 1 5 33
M  V30 37 1 7 34
M  V30 38 1 8 35
M  V30 39 1 9 36
M  V30 40 1 14 37
M  V30 41 1 17 38
M  V30 42 1 17 39
M  V30 43 1 17 40
M  V30 44 1 18 41
M  V30 45 1 19 42
M  V30 46 1 22 43
M  V30 47 1 25 44
M  V30 48 1 27 45
M  V30 END BOND
M  V30 END CTAB
M  END
>  <Dataset>  (260) 
ChEMBL_Kinases

>  <Ligand_Instance>  (260) 
nan

>  <PDB_ID>  (260) 
nan

>  <Standardized_SMILES>  (260) 
CC(=O)NCc1cccc(-c2c(-c3cnn(C)c3)[nH]c3ncc(Cl)cc23)c1

>  <Name>  (260) 
nan

>  <Pocket>  (260) 
nan

>  <ATP_Site>  (260) 
nan

>  <Peripheral>  (260) 
nan

>  <Num_H_Atoms_ProtBoundConf>  (260) 
nan

>  <Num_Resolved_Atoms>  (260) 
nan

>  <Num_Not_Resolved_Atoms>  (260) 
nan

$$$$
CHEMBL3087775
     RDKit          3D

  0  0  0  0  0  0  0  0  0  0999 V3000
M  V30 BEGIN CTAB
M  V30 COUNTS 49 52 0 0 0
M  V30 BEGIN ATOM
M  V30 1 C 1.224948 -5.855356 3.312656 0
M  V30 2 O 1.390357 -5.475278 1.959361 0
M  V30 3 C 1.620201 -4.163923 1.600334 0
M  V30 4 C 1.776228 -3.826922 0.278387 0
M  V30 5 C 2.006959 -2.529319 -0.121482 0
M  V30 6 C 2.081785 -1.538152 0.858327 0
M  V30 7 C 2.331620 -0.183526 0.320564 0
M  V30 8 N 3.450981 0.133695 -0.382444 0
M  V30 9 C 3.400202 1.429934 -0.739492 0
M  V30 10 N 4.180840 2.301071 -1.422360 0
M  V30 11 C 3.815922 3.587517 -1.605436 0
M  V30 12 C 2.629773 4.114607 -1.116666 0
M  V30 13 Cl 2.219438 5.795108 -1.391931 0
M  V30 14 C 1.804451 3.253556 -0.412487 0
M  V30 15 C 2.217360 1.945005 -0.248964 0
M  V30 16 C 1.525629 0.955402 0.421005 0
M  V30 17 C 0.267855 0.876493 1.129242 0
M  V30 18 C -0.023496 1.640331 2.260780 0
M  V30 19 C -1.262156 1.492108 2.872008 0
M  V30 20 C -2.188919 0.597906 2.360576 0
M  V30 21 C -1.904576 -0.164107 1.235884 0
M  V30 22 C -2.975888 -1.077146 0.794742 0
M  V30 23 N -3.869253 -0.422527 -0.155698 0
M  V30 24 C -4.877857 -1.332121 -0.548131 0
M  V30 25 C -5.978142 -1.021997 -1.514152 0
M  V30 26 O -4.758210 -2.471989 0.013668 0
M  V30 27 C -0.664678 0.012844 0.659358 0
M  V30 28 C 1.930880 -1.832452 2.198347 0
M  V30 29 C 1.698405 -3.163368 2.556586 0
M  V30 30 H 1.984279 -5.348007 3.932465 0
M  V30 31 H 0.210450 -5.495097 3.608464 0
M  V30 32 H 1.329819 -6.938023 3.411220 0
M  V30 33 H 1.721961 -4.584689 -0.504424 0
M  V30 34 H 2.123026 -2.315088 -1.177203 0
M  V30 35 H 4.236099 -0.494898 -0.623247 0
M  V30 36 H 4.469927 4.269957 -2.163391 0
M  V30 37 H 0.868280 3.625700 -0.013703 0
M  V30 38 H 0.730730 2.326372 2.625233 0
M  V30 39 H -1.449819 2.104824 3.749590 0
M  V30 40 H -3.133178 0.528791 2.880724 0
M  V30 41 H -2.505493 -1.934083 0.263501 0
M  V30 42 H -3.533866 -1.518061 1.641400 0
M  V30 43 H -3.889508 0.544498 -0.570086 0
M  V30 44 H -5.554190 -0.725211 -2.482161 0
M  V30 45 H -6.680216 -0.259469 -1.098121 0
M  V30 46 H -6.511772 -1.986205 -1.699305 0
M  V30 47 H -0.478171 -0.596734 -0.214219 0
M  V30 48 H 2.000337 -1.017354 2.898536 0
M  V30 49 H 1.583545 -3.372069 3.607746 0
M  V30 END ATOM
M  V30 BEGIN BOND
M  V30 1 1 1 2
M  V30 2 1 2 3
M  V30 3 2 3 4
M  V30 4 1 4 5
M  V30 5 2 5 6
M  V30 6 1 6 7
M  V30 7 1 7 8
M  V30 8 1 8 9
M  V30 9 2 9 10
M  V30 10 1 10 11
M  V30 11 2 11 12
M  V30 12 1 12 13
M  V30 13 1 12 14
M  V30 14 2 14 15
M  V30 15 1 15 16
M  V30 16 1 16 17
M  V30 17 2 17 18
M  V30 18 1 18 19
M  V30 19 2 19 20
M  V30 20 1 20 21
M  V30 21 1 21 22
M  V30 22 1 22 23
M  V30 23 1 23 24
M  V30 24 1 24 25
M  V30 25 2 24 26
M  V30 26 2 21 27
M  V30 27 1 6 28
M  V30 28 2 28 29
M  V30 29 1 29 3
M  V30 30 2 16 7
M  V30 31 1 27 17
M  V30 32 1 15 9
M  V30 33 1 1 30
M  V30 34 1 1 31
M  V30 35 1 1 32
M  V30 36 1 4 33
M  V30 37 1 5 34
M  V30 38 1 8 35
M  V30 39 1 11 36
M  V30 40 1 14 37
M  V30 41 1 18 38
M  V30 42 1 19 39
M  V30 43 1 20 40
M  V30 44 1 22 41
M  V30 45 1 22 42
M  V30 46 1 23 43
M  V30 47 1 25 44
M  V30 48 1 25 45
M  V30 49 1 25 46
M  V30 50 1 27 47
M  V30 51 1 28 48
M  V30 52 1 29 49
M  V30 END BOND
M  V30 END CTAB
M  END
>  <Dataset>  (261) 
ChEMBL_Kinases

>  <Ligand_Instance>  (261) 
nan

>  <PDB_ID>  (261) 
nan

>  <Standardized_SMILES>  (261) 
COc1ccc(-c2[nH]c3ncc(Cl)cc3c2-c2cccc(CNC(C)=O)c2)cc1

>  <Name>  (261) 
nan

>  <Pocket>  (261) 
nan

>  <ATP_Site>  (261) 
nan

>  <Peripheral>  (261) 
nan

>  <Num_H_Atoms_ProtBoundConf>  (261) 
nan

>  <Num_Resolved_Atoms>  (261) 
nan

>  <Num_Not_Resolved_Atoms>  (261) 
nan

$$$$
CHEMBL3685229
     RDKit          3D

  0  0  0  0  0  0  0  0  0  0999 V3000
M  V30 BEGIN CTAB
M  V30 COUNTS 74 77 0 0 0
M  V30 BEGIN ATOM
M  V30 1 C 1.458821 -3.133826 4.207577 0
M  V30 2 C 2.611661 -4.075089 4.228595 0
M  V30 3 N 2.925852 -4.706609 2.975138 0
M  V30 4 C 1.871078 -5.622905 2.628903 0
M  V30 5 C 2.112017 -6.341687 1.316854 0
M  V30 6 C 3.090639 -3.730575 1.894129 0
M  V30 7 C 4.322481 -2.940608 2.176090 0
M  V30 8 O 4.649315 -1.970436 1.272446 0
M  V30 9 C 3.680098 -0.991449 1.124923 0
M  V30 10 C 3.111106 -0.972591 -0.225942 0
M  V30 11 C 2.890367 -0.078855 -1.173635 0
M  V30 12 C 3.319708 1.262720 -0.804177 0
M  V30 13 C 3.155149 2.388203 -1.751833 0
M  V30 14 O 3.548928 3.555555 -1.056259 0
M  V30 15 N 1.830734 2.589217 -2.228474 0
M  V30 16 C 0.682814 2.913727 -1.496417 0
M  V30 17 C 0.648319 3.113950 -0.137730 0
M  V30 18 C -0.481592 3.425734 0.583723 0
M  V30 19 C -1.666952 3.547072 -0.104543 0
M  V30 20 C -1.735419 3.362353 -1.486919 0
M  V30 21 C -2.951119 3.452045 -2.323528 0
M  V30 22 N -3.604609 2.206311 -2.578288 0
M  V30 23 C -4.174539 1.326067 -1.618349 0
M  V30 24 N -4.134351 1.643870 -0.316457 0
M  V30 25 C -4.660318 0.851504 0.628381 0
M  V30 26 N -5.264174 -0.321093 0.310027 0
M  V30 27 C -5.335422 -0.695237 -0.982002 0
M  V30 28 C -5.933319 -1.873576 -1.374611 0
M  V30 29 C -6.495796 -2.712399 -0.331475 0
M  V30 30 N -6.470762 -2.391388 1.053492 0
M  V30 31 O -7.075386 -3.805711 -0.415267 0
M  V30 32 C -6.033016 -2.304111 -2.678703 0
M  V30 33 C -5.473030 -1.450957 -3.635135 0
M  V30 34 C -4.875385 -0.272850 -3.242459 0
M  V30 35 C -4.789759 0.133023 -1.931676 0
M  V30 36 C -0.542820 3.052055 -2.116450 0
M  V30 37 C 3.844486 1.315823 0.403485 0
M  V30 38 C 4.124344 0.378960 1.506425 0
M  V30 39 H 0.868297 -3.184226 5.169067 0
M  V30 40 H 0.741675 -3.249718 3.399593 0
M  V30 41 H 1.890298 -2.095345 4.094998 0
M  V30 42 H 3.509097 -3.614052 4.706922 0
M  V30 43 H 2.333335 -4.911488 4.924554 0
M  V30 44 H 0.917073 -5.080327 2.565959 0
M  V30 45 H 1.732292 -6.383675 3.431194 0
M  V30 46 H 1.395498 -7.211159 1.292706 0
M  V30 47 H 1.816153 -5.684969 0.470855 0
M  V30 48 H 3.116339 -6.752587 1.206576 0
M  V30 49 H 3.250511 -4.307506 0.955373 0
M  V30 50 H 2.145838 -3.154601 1.893707 0
M  V30 51 H 5.174871 -3.678307 2.171257 0
M  V30 52 H 4.249421 -2.451635 3.188822 0
M  V30 53 H 2.847455 -1.257497 1.811420 0
M  V30 54 H 2.806759 -1.996036 -0.459083 0
M  V30 55 H 2.442116 -0.338235 -2.104958 0
M  V30 56 H 3.895209 2.209403 -2.565776 0
M  V30 57 H 4.051082 4.150695 -1.667996 0
M  V30 58 H 1.724751 2.471798 -3.280990 0
M  V30 59 H 1.553831 3.032147 0.441550 0
M  V30 60 H -0.495969 3.579998 1.646410 0
M  V30 61 H -2.584888 3.798447 0.405123 0
M  V30 62 H -2.633496 3.904126 -3.279667 0
M  V30 63 H -3.665106 4.216573 -1.885348 0
M  V30 64 H -3.654142 1.941351 -3.579211 0
M  V30 65 H -4.650796 1.065245 1.675061 0
M  V30 66 H -5.560059 -2.331927 1.558620 0
M  V30 67 H -7.170993 -2.174064 1.793535 0
M  V30 68 H -6.504432 -3.227219 -2.958746 0
M  V30 69 H -5.552824 -1.792518 -4.658901 0
M  V30 70 H -4.487953 0.285149 -4.079529 0
M  V30 71 H -0.562480 2.900723 -3.207326 0
M  V30 72 H 4.187274 2.310304 0.733607 0
M  V30 73 H 3.684519 0.734461 2.463018 0
M  V30 74 H 5.245505 0.335232 1.619210 0
M  V30 END ATOM
M  V30 BEGIN BOND
M  V30 1 1 1 2
M  V30 2 1 2 3
M  V30 3 1 3 4
M  V30 4 1 4 5
M  V30 5 1 3 6
M  V30 6 1 6 7
M  V30 7 1 7 8
M  V30 8 1 8 9
M  V30 9 1 9 10
M  V30 10 2 10 11
M  V30 11 1 11 12
M  V30 12 1 12 13
M  V30 13 1 13 14
M  V30 14 1 13 15
M  V30 15 1 15 16
M  V30 16 2 16 17
M  V30 17 1 17 18
M  V30 18 2 18 19
M  V30 19 1 19 20
M  V30 20 1 20 21
M  V30 21 1 21 22
M  V30 22 1 22 23
M  V30 23 2 23 24
M  V30 24 1 24 25
M  V30 25 2 25 26
M  V30 26 1 26 27
M  V30 27 2 27 28
M  V30 28 1 28 29
M  V30 29 1 29 30
M  V30 30 2 29 31
M  V30 31 1 28 32
M  V30 32 2 32 33
M  V30 33 1 33 34
M  V30 34 2 34 35
M  V30 35 2 20 36
M  V30 36 2 12 37
M  V30 37 1 37 38
M  V30 38 1 38 9
M  V30 39 1 36 16
M  V30 40 1 35 23
M  V30 41 1 35 27
M  V30 42 1 1 39
M  V30 43 1 1 40
M  V30 44 1 1 41
M  V30 45 1 2 42
M  V30 46 1 2 43
M  V30 47 1 4 44
M  V30 48 1 4 45
M  V30 49 1 5 46
M  V30 50 1 5 47
M  V30 51 1 5 48
M  V30 52 1 6 49
M  V30 53 1 6 50
M  V30 54 1 7 51
M  V30 55 1 7 52
M  V30 56 1 9 53
M  V30 57 1 10 54
M  V30 58 1 11 55
M  V30 59 1 13 56
M  V30 60 1 14 57
M  V30 61 1 15 58
M  V30 62 1 17 59
M  V30 63 1 18 60
M  V30 64 1 19 61
M  V30 65 1 21 62
M  V30 66 1 21 63
M  V30 67 1 22 64
M  V30 68 1 25 65
M  V30 69 1 30 66
M  V30 70 1 30 67
M  V30 71 1 32 68
M  V30 72 1 33 69
M  V30 73 1 34 70
M  V30 74 1 36 71
M  V30 75 1 37 72
M  V30 76 1 38 73
M  V30 77 1 38 74
M  V30 END BOND
M  V30 END CTAB
M  END
>  <Dataset>  (262) 
ChEMBL_Kinases

>  <Ligand_Instance>  (262) 
nan

>  <PDB_ID>  (262) 
nan

>  <Standardized_SMILES>  (262) 
CCN(CC)CCOC1C=CC(C(O)Nc2cccc(CNc3ncnc4c(C(N)=O)cccc34)c2)=CC1

>  <Name>  (262) 
nan

>  <Pocket>  (262) 
nan

>  <ATP_Site>  (262) 
nan

>  <Peripheral>  (262) 
nan

>  <Num_H_Atoms_ProtBoundConf>  (262) 
nan

>  <Num_Resolved_Atoms>  (262) 
nan

>  <Num_Not_Resolved_Atoms>  (262) 
nan

$$$$
CHEMBL2326020
     RDKit          3D

  0  0  0  0  0  0  0  0  0  0999 V3000
M  V30 BEGIN CTAB
M  V30 COUNTS 47 51 0 0 0
M  V30 BEGIN ATOM
M  V30 1 C -0.871531 -6.398010 1.199138 0
M  V30 2 C -1.030314 -5.444866 0.212712 0
M  V30 3 C -0.785934 -4.122596 0.522012 0
M  V30 4 C -0.387962 -3.668215 1.762089 0
M  V30 5 C -0.116963 -2.289589 2.150205 0 CFG=2
M  V30 6 C -0.039751 -1.287364 1.043380 0
M  V30 7 N 1.348050 -1.032946 0.649709 0
M  V30 8 C 1.774793 0.264708 0.245647 0
M  V30 9 C 3.062787 0.619700 -0.097166 0
M  V30 10 C 3.432058 1.889990 -0.485694 0
M  V30 11 C 2.401352 2.806651 -0.509631 0
M  V30 12 C 1.100737 2.492703 -0.174557 0
M  V30 13 C 0.087519 3.541151 -0.237204 0
M  V30 14 N 0.292448 4.834891 -0.596141 0
M  V30 15 N -0.835548 5.502625 -0.543769 0
M  V30 16 C -1.852343 4.710097 -0.152265 0
M  V30 17 N -3.166158 4.947946 0.041688 0
M  V30 18 C -3.974969 3.930377 0.448284 0
M  V30 19 C -3.411155 2.683916 0.647397 0
M  V30 20 C -2.069896 2.451749 0.446765 0
M  V30 21 C -1.262137 3.475729 0.038845 0
M  V30 22 N 0.863964 1.232002 0.185442 0
M  V30 23 C 2.192482 -2.208139 0.715703 0
M  V30 24 C 2.257037 -2.643618 2.162000 0
M  V30 25 N 1.109145 -2.178024 2.916485 0
M  V30 26 C -0.235820 -4.638112 2.731948 0
M  V30 27 C -0.472558 -5.972567 2.455415 0
M  V30 28 H -1.065877 -7.431773 0.945229 0
M  V30 29 H -1.344795 -5.732541 -0.798024 0
M  V30 30 H -0.912125 -3.397747 -0.248503 0
M  V30 31 H -0.930369 -2.005914 2.882750 0
M  V30 32 H -0.719193 -1.428754 0.207379 0
M  V30 33 H -0.360320 -0.306796 1.509542 0
M  V30 34 H 3.823683 -0.145873 -0.057202 0
M  V30 35 H 4.457130 2.117802 -0.744880 0
M  V30 36 H 2.622506 3.837726 -0.809447 0
M  V30 37 H -0.932129 6.534527 -0.779971 0
M  V30 38 H -5.014744 4.189792 0.584189 0
M  V30 39 H -4.112229 1.928708 0.968616 0
M  V30 40 H -1.657707 1.484160 0.605600 0
M  V30 41 H 3.241842 -2.018455 0.412194 0
M  V30 42 H 1.843667 -3.015271 0.044705 0
M  V30 43 H 3.152173 -2.226305 2.675446 0
M  V30 44 H 2.375121 -3.759905 2.242329 0
M  V30 45 H 1.029447 -2.742302 3.783416 0
M  V30 46 H 0.062304 -4.522714 3.761806 0
M  V30 47 H -0.377632 -6.802825 3.157988 0
M  V30 END ATOM
M  V30 BEGIN BOND
M  V30 1 2 1 2
M  V30 2 1 2 3
M  V30 3 2 3 4
M  V30 4 1 4 5
M  V30 5 1 5 6
M  V30 6 1 6 7
M  V30 7 1 7 8
M  V30 8 2 8 9
M  V30 9 1 9 10
M  V30 10 2 10 11
M  V30 11 1 11 12
M  V30 12 1 12 13
M  V30 13 2 13 14
M  V30 14 1 14 15
M  V30 15 1 15 16
M  V30 16 2 16 17
M  V30 17 1 17 18
M  V30 18 2 18 19
M  V30 19 1 19 20
M  V30 20 2 20 21
M  V30 21 2 12 22
M  V30 22 1 7 23
M  V30 23 1 23 24
M  V30 24 1 24 25
M  V30 25 1 4 26
M  V30 26 2 26 27
M  V30 27 1 27 1
M  V30 28 1 25 5
M  V30 29 1 22 8
M  V30 30 1 21 13
M  V30 31 1 21 16
M  V30 32 1 1 28
M  V30 33 1 2 29
M  V30 34 1 3 30
M  V30 35 1 5 31 CFG=1
M  V30 36 1 6 32
M  V30 37 1 6 33
M  V30 38 1 9 34
M  V30 39 1 10 35
M  V30 40 1 11 36
M  V30 41 1 15 37
M  V30 42 1 18 38
M  V30 43 1 19 39
M  V30 44 1 20 40
M  V30 45 1 23 41
M  V30 46 1 23 42
M  V30 47 1 24 43
M  V30 48 1 24 44
M  V30 49 1 25 45
M  V30 50 1 26 46
M  V30 51 1 27 47
M  V30 END BOND
M  V30 END CTAB
M  END
>  <Dataset>  (263) 
ChEMBL_Kinases

>  <Ligand_Instance>  (263) 
nan

>  <PDB_ID>  (263) 
nan

>  <Standardized_SMILES>  (263) 
c1ccc([C@@H]2CN(c3cccc(-c4n[nH]c5ncccc45)n3)CCN2)cc1

>  <Name>  (263) 
nan

>  <Pocket>  (263) 
nan

>  <ATP_Site>  (263) 
nan

>  <Peripheral>  (263) 
nan

>  <Num_H_Atoms_ProtBoundConf>  (263) 
nan

>  <Num_Resolved_Atoms>  (263) 
nan

>  <Num_Not_Resolved_Atoms>  (263) 
nan

$$$$
CHEMBL2326021
     RDKit          3D

  0  0  0  0  0  0  0  0  0  0999 V3000
M  V30 BEGIN CTAB
M  V30 COUNTS 49 52 0 0 0
M  V30 BEGIN ATOM
M  V30 1 C 0.771336 -5.650084 -1.084283 0
M  V30 2 C 1.905313 -4.768732 -1.553769 0
M  V30 3 C 1.583289 -4.185177 -2.907281 0
M  V30 4 C 2.317093 -3.729833 -0.553080 0
M  V30 5 C 1.258604 -2.762196 -0.156118 0 CFG=2
M  V30 6 C 1.905693 -1.809706 0.861499 0
M  V30 7 N 0.934244 -0.823673 1.196725 0
M  V30 8 C 1.035406 0.582990 1.044428 0
M  V30 9 C 2.135359 1.238267 0.549027 0
M  V30 10 C 2.230987 2.606023 0.401367 0
M  V30 11 C 1.158184 3.379193 0.771826 0
M  V30 12 F 1.178339 4.729493 0.656069 0
M  V30 13 C 0.056104 2.718637 1.268484 0
M  V30 14 C -1.099524 3.521751 1.668809 0
M  V30 15 N -1.238500 4.854242 1.619034 0
M  V30 16 N -2.409180 5.250870 2.056859 0
M  V30 17 C -3.123983 4.161034 2.429662 0
M  V30 18 N -4.377849 4.018950 2.943280 0
M  V30 19 C -4.764094 2.746371 3.198583 0
M  V30 20 C -4.035524 1.591343 2.997907 0
M  V30 21 C -2.775063 1.800255 2.476395 0
M  V30 22 C -2.301202 3.063704 2.186705 0
M  V30 23 N 0.021772 1.382682 1.388954 0
M  V30 24 C -0.280254 -1.382058 1.757103 0
M  V30 25 C -0.218707 -2.886282 1.732286 0
M  V30 26 N 0.096406 -3.402846 0.417571 0
M  V30 27 H 0.968986 -6.672471 -1.465542 0
M  V30 28 H 0.787157 -5.649786 0.024443 0
M  V30 29 H -0.197392 -5.324851 -1.517581 0
M  V30 30 H 2.790536 -5.419457 -1.706833 0
M  V30 31 H 0.807729 -4.844060 -3.388696 0
M  V30 32 H 1.127678 -3.184695 -2.866053 0
M  V30 33 H 2.460033 -4.134604 -3.580316 0
M  V30 34 H 2.608352 -4.306432 0.373566 0
M  V30 35 H 3.216655 -3.228881 -0.903311 0
M  V30 36 H 0.966960 -2.108153 -1.010415 0
M  V30 37 H 2.736319 -1.327236 0.314032 0
M  V30 38 H 2.296430 -2.374602 1.730460 0
M  V30 39 H 3.002647 0.677166 0.244714 0
M  V30 40 H 3.140418 3.074906 -0.002389 0
M  V30 41 H -2.790590 6.230381 2.132242 0
M  V30 42 H -5.771346 2.628111 3.611180 0
M  V30 43 H -4.472612 0.641967 3.248089 0
M  V30 44 H -2.155431 0.924183 2.297366 0
M  V30 45 H -1.156936 -0.980827 1.233654 0
M  V30 46 H -0.278454 -1.063823 2.828793 0
M  V30 47 H -1.221936 -3.269430 2.009965 0
M  V30 48 H 0.491178 -3.257590 2.493214 0
M  V30 49 H -0.727731 -3.382488 -0.223027 0
M  V30 END ATOM
M  V30 BEGIN BOND
M  V30 1 1 1 2
M  V30 2 1 2 3
M  V30 3 1 2 4
M  V30 4 1 4 5
M  V30 5 1 5 6
M  V30 6 1 6 7
M  V30 7 1 7 8
M  V30 8 2 8 9
M  V30 9 1 9 10
M  V30 10 2 10 11
M  V30 11 1 11 12
M  V30 12 1 11 13
M  V30 13 1 13 14
M  V30 14 2 14 15
M  V30 15 1 15 16
M  V30 16 1 16 17
M  V30 17 2 17 18
M  V30 18 1 18 19
M  V30 19 2 19 20
M  V30 20 1 20 21
M  V30 21 2 21 22
M  V30 22 2 13 23
M  V30 23 1 7 24
M  V30 24 1 24 25
M  V30 25 1 25 26
M  V30 26 1 26 5
M  V30 27 1 23 8
M  V30 28 1 22 14
M  V30 29 1 22 17
M  V30 30 1 1 27
M  V30 31 1 1 28
M  V30 32 1 1 29
M  V30 33 1 2 30
M  V30 34 1 3 31
M  V30 35 1 3 32
M  V30 36 1 3 33
M  V30 37 1 4 34
M  V30 38 1 4 35
M  V30 39 1 5 36 CFG=3
M  V30 40 1 6 37
M  V30 41 1 6 38
M  V30 42 1 9 39
M  V30 43 1 10 40
M  V30 44 1 16 41
M  V30 45 1 19 42
M  V30 46 1 20 43
M  V30 47 1 21 44
M  V30 48 1 24 45
M  V30 49 1 24 46
M  V30 50 1 25 47
M  V30 51 1 25 48
M  V30 52 1 26 49
M  V30 END BOND
M  V30 END CTAB
M  END
>  <Dataset>  (264) 
ChEMBL_Kinases

>  <Ligand_Instance>  (264) 
nan

>  <PDB_ID>  (264) 
nan

>  <Standardized_SMILES>  (264) 
CC(C)C[C@@H]1CN(c2ccc(F)c(-c3n[nH]c4ncccc34)n2)CCN1

>  <Name>  (264) 
nan

>  <Pocket>  (264) 
nan

>  <ATP_Site>  (264) 
nan

>  <Peripheral>  (264) 
nan

>  <Num_H_Atoms_ProtBoundConf>  (264) 
nan

>  <Num_Resolved_Atoms>  (264) 
nan

>  <Num_Not_Resolved_Atoms>  (264) 
nan

$$$$
CHEMBL3699674
     RDKit          3D

  0  0  0  0  0  0  0  0  0  0999 V3000
M  V30 BEGIN CTAB
M  V30 COUNTS 54 59 0 0 0
M  V30 BEGIN ATOM
M  V30 1 N -2.513894 -5.883459 0.030909 0
M  V30 2 C -1.253836 -5.704676 -0.683162 0
M  V30 3 C -0.697962 -4.341764 -0.583299 0
M  V30 4 C -0.036373 -3.575877 -1.519742 0
M  V30 5 C 0.400394 -2.307936 -1.196683 0
M  V30 6 C 0.199306 -1.758940 0.053113 0
M  V30 7 C 0.654362 -0.419772 0.411590 0
M  V30 8 N 1.902949 0.112069 0.449376 0
M  V30 9 C 1.831981 1.398149 0.843416 0
M  V30 10 C 2.815208 2.352201 1.034225 0
M  V30 11 C 2.525500 3.636255 1.449105 0
M  V30 12 N 3.566300 4.589588 1.633935 0
M  V30 13 C 3.399996 5.692252 2.411568 0
M  V30 14 C 4.592542 6.384116 2.365675 0
M  V30 15 C 5.465382 5.683999 1.556085 0
M  V30 16 N 4.772731 4.601878 1.145220 0
M  V30 17 C 1.200150 3.947356 1.672628 0
M  V30 18 C 0.249765 2.965021 1.470069 0
M  V30 19 N 0.524173 1.709104 1.065152 0
M  V30 20 C -0.185930 0.602971 0.801763 0
M  V30 21 C -1.648051 0.628500 0.952601 0
M  V30 22 C -2.414658 0.865606 2.081164 0
M  V30 23 C -3.772379 0.838872 1.983429 0
M  V30 24 C -4.415836 0.583194 0.796434 0
M  V30 25 C -3.657307 0.343720 -0.343081 0
M  V30 26 C -2.265767 0.367548 -0.259664 0
M  V30 27 C -0.461020 -2.510259 1.003844 0
M  V30 28 C -0.905544 -3.790954 0.687185 0
M  V30 29 C -0.327603 -6.839400 -0.309935 0
M  V30 30 C -1.019247 -7.653818 -1.411591 0
M  V30 31 C -1.370779 -6.306505 -2.044704 0
M  V30 32 H -2.947320 -4.960344 0.253461 0
M  V30 33 H -2.399991 -6.491127 0.874134 0
M  V30 34 H 0.079523 -4.065799 -2.454341 0
M  V30 35 H 0.914215 -1.742692 -1.960719 0
M  V30 36 H 3.829424 2.090405 0.855880 0
M  V30 37 H 2.552859 6.059060 2.996183 0
M  V30 38 H 4.849498 7.328912 2.867478 0
M  V30 39 H 6.500082 5.952585 1.302993 0
M  V30 40 H 0.921315 4.925155 1.994251 0
M  V30 41 H -0.797503 3.235994 1.654256 0
M  V30 42 H -1.793309 1.053869 2.952259 0
M  V30 43 H -4.292578 1.034781 2.912819 0
M  V30 44 H -5.508817 0.570260 0.758337 0
M  V30 45 H -4.235252 0.149925 -1.241320 0
M  V30 46 H -1.810194 0.165482 -1.217634 0
M  V30 47 H -0.614681 -2.072911 1.981042 0
M  V30 48 H -1.415407 -4.289173 1.522280 0
M  V30 49 H -0.541953 -7.319582 0.666792 0
M  V30 50 H 0.737106 -6.675219 -0.499847 0
M  V30 51 H -1.936657 -8.166487 -1.090409 0
M  V30 52 H -0.331042 -8.262762 -2.030284 0
M  V30 53 H -2.416453 -6.300562 -2.471291 0
M  V30 54 H -0.606459 -5.952262 -2.764242 0
M  V30 END ATOM
M  V30 BEGIN BOND
M  V30 1 1 1 2
M  V30 2 1 2 3
M  V30 3 2 3 4
M  V30 4 1 4 5
M  V30 5 2 5 6
M  V30 6 1 6 7
M  V30 7 1 7 8
M  V30 8 2 8 9
M  V30 9 1 9 10
M  V30 10 2 10 11
M  V30 11 1 11 12
M  V30 12 1 12 13
M  V30 13 2 13 14
M  V30 14 1 14 15
M  V30 15 2 15 16
M  V30 16 1 11 17
M  V30 17 2 17 18
M  V30 18 1 18 19
M  V30 19 1 19 20
M  V30 20 1 20 21
M  V30 21 2 21 22
M  V30 22 1 22 23
M  V30 23 2 23 24
M  V30 24 1 24 25
M  V30 25 2 25 26
M  V30 26 1 6 27
M  V30 27 2 27 28
M  V30 28 1 2 29
M  V30 29 1 29 30
M  V30 30 1 30 31
M  V30 31 1 31 2
M  V30 32 1 28 3
M  V30 33 2 20 7
M  V30 34 1 26 21
M  V30 35 1 19 9
M  V30 36 1 16 12
M  V30 37 1 1 32
M  V30 38 1 1 33
M  V30 39 1 4 34
M  V30 40 1 5 35
M  V30 41 1 10 36
M  V30 42 1 13 37
M  V30 43 1 14 38
M  V30 44 1 15 39
M  V30 45 1 17 40
M  V30 46 1 18 41
M  V30 47 1 22 42
M  V30 48 1 23 43
M  V30 49 1 24 44
M  V30 50 1 25 45
M  V30 51 1 26 46
M  V30 52 1 27 47
M  V30 53 1 28 48
M  V30 54 1 29 49
M  V30 55 1 29 50
M  V30 56 1 30 51
M  V30 57 1 30 52
M  V30 58 1 31 53
M  V30 59 1 31 54
M  V30 END BOND
M  V30 END CTAB
M  END
>  <Dataset>  (265) 
ChEMBL_Kinases

>  <Ligand_Instance>  (265) 
nan

>  <PDB_ID>  (265) 
nan

>  <Standardized_SMILES>  (265) 
NC1(c2ccc(-c3nc4cc(-n5cccn5)ccn4c3-c3ccccc3)cc2)CCC1

>  <Name>  (265) 
nan

>  <Pocket>  (265) 
nan

>  <ATP_Site>  (265) 
nan

>  <Peripheral>  (265) 
nan

>  <Num_H_Atoms_ProtBoundConf>  (265) 
nan

>  <Num_Resolved_Atoms>  (265) 
nan

>  <Num_Not_Resolved_Atoms>  (265) 
nan

$$$$
CHEMBL3699673
     RDKit          3D

  0  0  0  0  0  0  0  0  0  0999 V3000
M  V30 BEGIN CTAB
M  V30 COUNTS 48 52 0 0 0
M  V30 BEGIN ATOM
M  V30 1 N -1.888933 -7.973857 2.942384 0
M  V30 2 C -1.133709 -7.140998 2.595329 0
M  V30 3 C -0.199911 -6.125615 2.145265 0
M  V30 4 C 1.144525 -6.358257 2.039093 0
M  V30 5 C 1.959531 -5.317624 1.596864 0
M  V30 6 C 1.376868 -4.105994 1.287876 0
M  V30 7 N 1.976248 -2.998898 0.853316 0
M  V30 8 C 1.040648 -2.041198 0.673173 0
M  V30 9 C 1.108736 -0.672138 0.225750 0
M  V30 10 C 0.614745 -0.088221 -0.924449 0
M  V30 11 C 0.780287 1.261986 -1.164165 0
M  V30 12 C 1.444473 2.082773 -0.268175 0
M  V30 13 C 1.501509 3.483268 -0.724704 0
M  V30 14 N 1.700260 3.626906 -2.142372 0
M  V30 15 C 2.195275 4.447018 0.181905 0
M  V30 16 C 0.894624 4.576547 0.940386 0
M  V30 17 C 0.181880 4.173687 -0.351710 0
M  V30 18 C 1.946574 1.509158 0.891774 0
M  V30 19 C 1.779054 0.164500 1.126178 0
M  V30 20 C -0.204248 -2.570532 1.009691 0
M  V30 21 C -1.572456 -2.081546 1.037472 0
M  V30 22 C -2.399814 -1.690763 0.023637 0
M  V30 23 C -3.676607 -1.243225 0.215584 0
M  V30 24 C -4.183024 -1.174535 1.523049 0
M  V30 25 C -3.364499 -1.565030 2.565456 0
M  V30 26 C -2.066234 -2.018326 2.349112 0
M  V30 27 N 0.049322 -3.859495 1.387459 0
M  V30 28 C -0.727287 -4.894703 1.822698 0
M  V30 29 H 1.428197 -7.346271 2.316597 0
M  V30 30 H 2.997201 -5.536467 1.526068 0
M  V30 31 H 0.113229 -0.789989 -1.574756 0
M  V30 32 H 0.322259 1.542617 -2.124100 0
M  V30 33 H 2.492346 4.240211 -2.414521 0
M  V30 34 H 0.827955 3.804640 -2.669775 0
M  V30 35 H 2.437096 5.402918 -0.327435 0
M  V30 36 H 3.053055 4.094760 0.744480 0
M  V30 37 H 0.673773 3.817107 1.699777 0
M  V30 38 H 0.670536 5.585324 1.312431 0
M  V30 39 H -0.667461 3.499443 -0.237721 0
M  V30 40 H 0.013983 5.108664 -0.949914 0
M  V30 41 H 2.444576 2.212053 1.527317 0
M  V30 42 H 2.218783 -0.145550 2.062603 0
M  V30 43 H -1.964130 -1.767176 -0.937094 0
M  V30 44 H -4.239734 -0.958129 -0.680321 0
M  V30 45 H -5.197540 -0.815863 1.648743 0
M  V30 46 H -3.827845 -1.484340 3.545035 0
M  V30 47 H -1.514776 -2.298999 3.252017 0
M  V30 48 H -1.815318 -4.737053 1.917417 0
M  V30 END ATOM
M  V30 BEGIN BOND
M  V30 1 3 1 2
M  V30 2 1 2 3
M  V30 3 1 3 4
M  V30 4 2 4 5
M  V30 5 1 5 6
M  V30 6 2 6 7
M  V30 7 1 7 8
M  V30 8 1 8 9
M  V30 9 2 9 10
M  V30 10 1 10 11
M  V30 11 2 11 12
M  V30 12 1 12 13
M  V30 13 1 13 14
M  V30 14 1 13 15
M  V30 15 1 15 16
M  V30 16 1 16 17
M  V30 17 1 12 18
M  V30 18 2 18 19
M  V30 19 2 8 20
M  V30 20 1 20 21
M  V30 21 2 21 22
M  V30 22 1 22 23
M  V30 23 2 23 24
M  V30 24 1 24 25
M  V30 25 2 25 26
M  V30 26 1 20 27
M  V30 27 1 27 28
M  V30 28 2 28 3
M  V30 29 1 27 6
M  V30 30 1 19 9
M  V30 31 1 26 21
M  V30 32 1 17 13
M  V30 33 1 4 29
M  V30 34 1 5 30
M  V30 35 1 10 31
M  V30 36 1 11 32
M  V30 37 1 14 33
M  V30 38 1 14 34
M  V30 39 1 15 35
M  V30 40 1 15 36
M  V30 41 1 16 37
M  V30 42 1 16 38
M  V30 43 1 17 39
M  V30 44 1 17 40
M  V30 45 1 18 41
M  V30 46 1 19 42
M  V30 47 1 22 43
M  V30 48 1 23 44
M  V30 49 1 24 45
M  V30 50 1 25 46
M  V30 51 1 26 47
M  V30 52 1 28 48
M  V30 END BOND
M  V30 END CTAB
M  END
>  <Dataset>  (266) 
ChEMBL_Kinases

>  <Ligand_Instance>  (266) 
nan

>  <PDB_ID>  (266) 
nan

>  <Standardized_SMILES>  (266) 
N#Cc1ccc2nc(-c3ccc(C4(N)CCC4)cc3)c(-c3ccccc3)n2c1

>  <Name>  (266) 
nan

>  <Pocket>  (266) 
nan

>  <ATP_Site>  (266) 
nan

>  <Peripheral>  (266) 
nan

>  <Num_H_Atoms_ProtBoundConf>  (266) 
nan

>  <Num_Resolved_Atoms>  (266) 
nan

>  <Num_Not_Resolved_Atoms>  (266) 
nan

$$$$
CHEMBL3699672
     RDKit          3D

  0  0  0  0  0  0  0  0  0  0999 V3000
M  V30 BEGIN CTAB
M  V30 COUNTS 56 61 0 0 0
M  V30 BEGIN ATOM
M  V30 1 N -2.779462 -3.815282 -4.201219 0
M  V30 2 C -1.622639 -4.442853 -3.595373 0
M  V30 3 C -0.900084 -3.624608 -2.611211 0
M  V30 4 C -0.657250 -2.312023 -2.995964 0
M  V30 5 C 0.024641 -1.464099 -2.116800 0
M  V30 6 C 0.446222 -1.946027 -0.878426 0
M  V30 7 C 1.141415 -0.932373 -0.093076 0
M  V30 8 N 2.427446 -0.473924 -0.099428 0
M  V30 9 C 2.558530 0.483556 0.836711 0
M  V30 10 N 3.647862 1.211833 1.180234 0
M  V30 11 C 3.575092 2.146919 2.168297 0
M  V30 12 C 2.375661 2.344088 2.816767 0
M  V30 13 C 2.121240 3.298576 3.890768 0
M  V30 14 C 1.243467 3.205773 4.934608 0
M  V30 15 C 1.142536 4.223083 5.861323 0
M  V30 16 C 1.916662 5.366176 5.773047 0
M  V30 17 C 2.807750 5.474826 4.724409 0
M  V30 18 C 2.902387 4.443490 3.795237 0
M  V30 19 C 1.260548 1.590080 2.457157 0
M  V30 20 N 1.360976 0.662555 1.466377 0
M  V30 21 C 0.492195 -0.201576 0.900616 0
M  V30 22 C -0.891931 -0.289357 1.326550 0
M  V30 23 C -1.032425 -0.633656 2.666974 0
M  V30 24 C -2.268842 -0.768155 3.261662 0
M  V30 25 C -3.403668 -0.554010 2.501193 0
M  V30 26 C -3.270890 -0.212536 1.172616 0
M  V30 27 C -2.026689 -0.080883 0.588320 0
M  V30 28 C 0.201037 -3.254346 -0.502049 0
M  V30 29 C -0.472934 -4.076337 -1.381832 0
M  V30 30 C -1.897406 -5.875334 -3.225990 0
M  V30 31 C -1.658678 -6.202133 -4.706612 0
M  V30 32 C -0.728015 -4.981535 -4.702590 0
M  V30 33 H -3.428560 -3.561065 -3.450539 0
M  V30 34 H -2.500218 -3.040253 -4.837334 0
M  V30 35 H -0.978380 -1.923520 -3.955512 0
M  V30 36 H 0.189449 -0.445045 -2.469128 0
M  V30 37 H 4.369845 2.768530 2.512835 0
M  V30 38 H 0.670217 2.287843 4.944829 0
M  V30 39 H 0.420374 4.089927 6.675695 0
M  V30 40 H 1.827438 6.166783 6.515895 0
M  V30 41 H 3.387281 6.379324 4.693031 0
M  V30 42 H 3.636633 4.650571 3.024701 0
M  V30 43 H 0.297815 1.700122 2.928658 0
M  V30 44 H -0.199575 -0.822525 3.347543 0
M  V30 45 H -2.391604 -1.034932 4.305064 0
M  V30 46 H -4.402209 -0.646673 2.919431 0
M  V30 47 H -4.132916 -0.037165 0.546047 0
M  V30 48 H -1.837097 0.183387 -0.442214 0
M  V30 49 H 0.562461 -3.542225 0.472775 0
M  V30 50 H -0.666210 -5.083075 -1.101865 0
M  V30 51 H -2.951372 -5.992342 -2.910414 0
M  V30 52 H -1.143189 -6.372531 -2.609414 0
M  V30 53 H -2.543202 -5.968368 -5.349020 0
M  V30 54 H -1.145989 -7.147380 -4.885595 0
M  V30 55 H -0.727760 -4.386135 -5.614187 0
M  V30 56 H 0.275520 -5.339026 -4.350734 0
M  V30 END ATOM
M  V30 BEGIN BOND
M  V30 1 1 1 2
M  V30 2 1 2 3
M  V30 3 2 3 4
M  V30 4 1 4 5
M  V30 5 2 5 6
M  V30 6 1 6 7
M  V30 7 1 7 8
M  V30 8 2 8 9
M  V30 9 1 9 10
M  V30 10 2 10 11
M  V30 11 1 11 12
M  V30 12 1 12 13
M  V30 13 2 13 14
M  V30 14 1 14 15
M  V30 15 2 15 16
M  V30 16 1 16 17
M  V30 17 2 17 18
M  V30 18 2 12 19
M  V30 19 1 19 20
M  V30 20 1 20 21
M  V30 21 1 21 22
M  V30 22 2 22 23
M  V30 23 1 23 24
M  V30 24 2 24 25
M  V30 25 1 25 26
M  V30 26 2 26 27
M  V30 27 1 6 28
M  V30 28 2 28 29
M  V30 29 1 2 30
M  V30 30 1 30 31
M  V30 31 1 31 32
M  V30 32 1 32 2
M  V30 33 1 29 3
M  V30 34 2 21 7
M  V30 35 1 27 22
M  V30 36 1 20 9
M  V30 37 1 18 13
M  V30 38 1 1 33
M  V30 39 1 1 34
M  V30 40 1 4 35
M  V30 41 1 5 36
M  V30 42 1 11 37
M  V30 43 1 14 38
M  V30 44 1 15 39
M  V30 45 1 16 40
M  V30 46 1 17 41
M  V30 47 1 18 42
M  V30 48 1 19 43
M  V30 49 1 23 44
M  V30 50 1 24 45
M  V30 51 1 25 46
M  V30 52 1 26 47
M  V30 53 1 27 48
M  V30 54 1 28 49
M  V30 55 1 29 50
M  V30 56 1 30 51
M  V30 57 1 30 52
M  V30 58 1 31 53
M  V30 59 1 31 54
M  V30 60 1 32 55
M  V30 61 1 32 56
M  V30 END BOND
M  V30 END CTAB
M  END
>  <Dataset>  (267) 
ChEMBL_Kinases

>  <Ligand_Instance>  (267) 
nan

>  <PDB_ID>  (267) 
nan

>  <Standardized_SMILES>  (267) 
NC1(c2ccc(-c3nc4ncc(-c5ccccc5)cn4c3-c3ccccc3)cc2)CCC1

>  <Name>  (267) 
nan

>  <Pocket>  (267) 
nan

>  <ATP_Site>  (267) 
nan

>  <Peripheral>  (267) 
nan

>  <Num_H_Atoms_ProtBoundConf>  (267) 
nan

>  <Num_Resolved_Atoms>  (267) 
nan

>  <Num_Not_Resolved_Atoms>  (267) 
nan

$$$$
CHEMBL3699671
     RDKit          3D

  0  0  0  0  0  0  0  0  0  0999 V3000
M  V30 BEGIN CTAB
M  V30 COUNTS 53 57 0 0 0
M  V30 BEGIN ATOM
M  V30 1 C 0.296646 -6.152077 6.107055 0
M  V30 2 C 0.988440 -6.672043 4.881365 0
M  V30 3 O 0.559396 -5.939453 3.752958 0
M  V30 4 C 0.768377 -4.576233 3.674204 0
M  V30 5 C 1.361776 -3.666250 4.522322 0
M  V30 6 N 1.421851 -2.369944 4.174375 0
M  V30 7 C 0.922285 -1.903852 3.016149 0
M  V30 8 N 0.896039 -0.647665 2.511327 0
M  V30 9 C 0.284027 -0.681503 1.310016 0
M  V30 10 C 0.076236 0.494779 0.474196 0
M  V30 11 C 1.226081 1.147788 0.054055 0
M  V30 12 C 1.126892 2.272138 -0.741152 0
M  V30 13 C -0.077540 2.779638 -1.140127 0
M  V30 14 C -0.357652 3.954100 -1.976762 0
M  V30 15 N -1.353157 3.703278 -2.999523 0
M  V30 16 C 0.829673 4.732274 -2.486118 0
M  V30 17 C 0.667597 5.708218 -1.322920 0
M  V30 18 C -0.753972 5.203890 -1.207239 0
M  V30 19 C -1.236730 2.124176 -0.718617 0
M  V30 20 C -1.162140 0.995476 0.078794 0
M  V30 21 C -0.056067 -1.998940 1.110563 0
M  V30 22 C -0.741417 -2.501153 -0.067207 0
M  V30 23 C 0.017108 -2.314861 -1.227507 0
M  V30 24 C -0.445148 -2.721233 -2.473419 0
M  V30 25 C -1.696020 -3.323915 -2.530455 0
M  V30 26 C -2.449767 -3.511498 -1.393971 0
M  V30 27 C -1.980289 -3.102587 -0.153995 0
M  V30 28 N 0.325731 -2.770043 2.145558 0
M  V30 29 C 0.251999 -4.079650 2.471402 0
M  V30 30 H 1.029586 -5.896379 6.869898 0
M  V30 31 H -0.326829 -5.236293 5.918866 0
M  V30 32 H -0.458279 -6.901873 6.466858 0
M  V30 33 H 2.097551 -6.566016 5.036202 0
M  V30 34 H 0.827280 -7.766109 4.749316 0
M  V30 35 H 1.729851 -4.139997 5.415171 0
M  V30 36 H 2.220620 0.817596 0.320906 0
M  V30 37 H 1.979239 2.812766 -1.092420 0
M  V30 38 H -1.455478 4.589437 -3.574086 0
M  V30 39 H -2.277735 3.591126 -2.531737 0
M  V30 40 H 1.785213 4.215833 -2.558306 0
M  V30 41 H 0.578477 5.277553 -3.428492 0
M  V30 42 H 1.335919 5.478900 -0.461006 0
M  V30 43 H 0.771000 6.774821 -1.588321 0
M  V30 44 H -1.063284 5.044235 -0.161116 0
M  V30 45 H -1.460333 5.882370 -1.714703 0
M  V30 46 H -2.294612 2.349906 -0.914103 0
M  V30 47 H -1.972270 0.411094 0.462390 0
M  V30 48 H 0.998652 -1.856287 -1.277884 0
M  V30 49 H 0.113654 -2.592637 -3.385497 0
M  V30 50 H -2.139461 -3.673625 -3.458444 0
M  V30 51 H -3.422052 -3.969616 -1.369774 0
M  V30 52 H -2.476613 -3.194455 0.805989 0
M  V30 53 H -0.244287 -4.649189 1.692571 0
M  V30 END ATOM
M  V30 BEGIN BOND
M  V30 1 1 1 2
M  V30 2 1 2 3
M  V30 3 1 3 4
M  V30 4 1 4 5
M  V30 5 2 5 6
M  V30 6 1 6 7
M  V30 7 2 7 8
M  V30 8 1 8 9
M  V30 9 1 9 10
M  V30 10 2 10 11
M  V30 11 1 11 12
M  V30 12 2 12 13
M  V30 13 1 13 14
M  V30 14 1 14 15
M  V30 15 1 14 16
M  V30 16 1 16 17
M  V30 17 1 17 18
M  V30 18 1 13 19
M  V30 19 2 19 20
M  V30 20 2 9 21
M  V30 21 1 21 22
M  V30 22 2 22 23
M  V30 23 1 23 24
M  V30 24 2 24 25
M  V30 25 1 25 26
M  V30 26 2 26 27
M  V30 27 1 21 28
M  V30 28 1 28 29
M  V30 29 2 29 4
M  V30 30 1 28 7
M  V30 31 1 20 10
M  V30 32 1 27 22
M  V30 33 1 18 14
M  V30 34 1 1 30
M  V30 35 1 1 31
M  V30 36 1 1 32
M  V30 37 1 2 33
M  V30 38 1 2 34
M  V30 39 1 5 35
M  V30 40 1 11 36
M  V30 41 1 12 37
M  V30 42 1 15 38
M  V30 43 1 15 39
M  V30 44 1 16 40
M  V30 45 1 16 41
M  V30 46 1 17 42
M  V30 47 1 17 43
M  V30 48 1 18 44
M  V30 49 1 18 45
M  V30 50 1 19 46
M  V30 51 1 20 47
M  V30 52 1 23 48
M  V30 53 1 24 49
M  V30 54 1 25 50
M  V30 55 1 26 51
M  V30 56 1 27 52
M  V30 57 1 29 53
M  V30 END BOND
M  V30 END CTAB
M  END
>  <Dataset>  (268) 
ChEMBL_Kinases

>  <Ligand_Instance>  (268) 
nan

>  <PDB_ID>  (268) 
nan

>  <Standardized_SMILES>  (268) 
CCOc1cnc2nc(-c3ccc(C4(N)CCC4)cc3)c(-c3ccccc3)n2c1

>  <Name>  (268) 
nan

>  <Pocket>  (268) 
nan

>  <ATP_Site>  (268) 
nan

>  <Peripheral>  (268) 
nan

>  <Num_H_Atoms_ProtBoundConf>  (268) 
nan

>  <Num_Resolved_Atoms>  (268) 
nan

>  <Num_Not_Resolved_Atoms>  (268) 
nan

$$$$
CHEMBL4522901
     RDKit          3D

  0  0  0  0  0  0  0  0  0  0999 V3000
M  V30 BEGIN CTAB
M  V30 COUNTS 64 67 0 0 0
M  V30 BEGIN ATOM
M  V30 1 C 2.704168 -1.360664 3.529056 0
M  V30 2 C 3.853316 -0.869892 2.759323 0
M  V30 3 C 4.173932 -0.875671 1.414412 0
M  V30 4 C 5.410405 -0.262054 1.262534 0
M  V30 5 N 5.827961 -0.218210 -0.104719 0
M  V30 6 C 5.266050 0.911223 -0.809916 0
M  V30 7 N 4.458039 1.791936 -0.226458 0
M  V30 8 C 3.879379 2.854251 -0.804197 0
M  V30 9 N 3.092430 3.567005 0.140426 0
M  V30 10 C 1.873355 2.913576 0.475982 0
M  V30 11 C 1.509938 1.719225 -0.107572 0
M  V30 12 C 0.347947 0.996962 0.180679 0
M  V30 13 C -0.482350 1.570430 1.144213 0
M  V30 14 C -1.722412 0.927930 1.565308 0
M  V30 15 O -2.468295 1.393704 2.460966 0
M  V30 16 N -2.162072 -0.269107 0.986398 0
M  V30 17 C -3.366617 -1.060742 1.283562 0
M  V30 18 C -4.301557 -0.927038 0.145928 0
M  V30 19 C -4.457561 -2.089649 -0.755337 0
M  V30 20 C -3.774043 -1.849322 -2.096065 0
M  V30 21 C -5.957550 -2.188686 -1.111818 0
M  V30 22 N -4.097116 -3.362377 -0.282794 0
M  V30 23 O -4.085465 -4.263209 -1.263786 0 RAD=2 VAL=1
M  V30 24 C -3.084891 -3.500629 0.686108 0
M  V30 25 C -1.764884 -3.715035 -0.041907 0
M  V30 26 C -3.331767 -4.834112 1.412612 0
M  V30 27 C -2.919571 -2.416554 1.662203 0
M  V30 28 C -0.145305 2.766549 1.744778 0
M  V30 29 C 1.012284 3.451215 1.433548 0
M  V30 30 N 4.184349 3.001876 -2.128682 0
M  V30 31 C 4.987484 2.149634 -2.758654 0
M  V30 32 C 5.561568 1.079443 -2.148902 0
M  V30 33 F 6.375060 0.224229 -2.802396 0
M  V30 34 N 5.780236 0.084077 2.508615 0
M  V30 35 O 4.867866 -0.275768 3.356677 0
M  V30 36 H 1.937514 -1.769216 2.829009 0
M  V30 37 H 3.048354 -2.111284 4.251324 0
M  V30 38 H 2.252212 -0.500870 4.082382 0
M  V30 39 H 3.426402 -1.336348 0.778482 0
M  V30 40 H 6.454802 -0.877347 -0.612079 0
M  V30 41 H 3.314990 4.481635 0.586547 0
M  V30 42 H 2.140625 1.237109 -0.874173 0
M  V30 43 H 0.107620 0.066535 -0.301145 0
M  V30 44 H -1.656027 -0.769020 0.226499 0
M  V30 45 H -3.865788 -0.538273 2.160696 0
M  V30 46 H -3.968732 -0.063793 -0.513319 0
M  V30 47 H -5.319002 -0.555833 0.491714 0
M  V30 48 H -3.340221 -2.769527 -2.513959 0
M  V30 49 H -4.480659 -1.474347 -2.871540 0
M  V30 50 H -3.007964 -1.034301 -1.992432 0
M  V30 51 H -6.416607 -2.754033 -0.273395 0
M  V30 52 H -6.357742 -1.172342 -1.147922 0
M  V30 53 H -6.048143 -2.763143 -2.061402 0
M  V30 54 H -0.885795 -3.669176 0.654971 0
M  V30 55 H -1.660212 -2.928423 -0.816187 0
M  V30 56 H -1.810486 -4.726161 -0.500291 0
M  V30 57 H -4.184107 -4.771863 2.092899 0
M  V30 58 H -3.442074 -5.613693 0.636309 0
M  V30 59 H -2.360032 -5.074969 1.921413 0
M  V30 60 H -1.844274 -2.421448 2.009264 0
M  V30 61 H -3.496443 -2.719885 2.586251 0
M  V30 62 H -0.802927 3.214911 2.502744 0
M  V30 63 H 1.286700 4.382077 1.892411 0
M  V30 64 H 5.144169 2.383104 -3.801478 0
M  V30 END ATOM
M  V30 BEGIN BOND
M  V30 1 1 1 2
M  V30 2 2 2 3
M  V30 3 1 3 4
M  V30 4 1 4 5
M  V30 5 1 5 6
M  V30 6 2 6 7
M  V30 7 1 7 8
M  V30 8 1 8 9
M  V30 9 1 9 10
M  V30 10 2 10 11
M  V30 11 1 11 12
M  V30 12 2 12 13
M  V30 13 1 13 14
M  V30 14 2 14 15
M  V30 15 1 14 16
M  V30 16 1 16 17
M  V30 17 1 17 18
M  V30 18 1 18 19
M  V30 19 1 19 20
M  V30 20 1 19 21
M  V30 21 1 19 22
M  V30 22 1 22 23
M  V30 23 1 22 24
M  V30 24 1 24 25
M  V30 25 1 24 26
M  V30 26 1 24 27
M  V30 27 1 13 28
M  V30 28 2 28 29
M  V30 29 2 8 30
M  V30 30 1 30 31
M  V30 31 2 31 32
M  V30 32 1 32 33
M  V30 33 2 4 34
M  V30 34 1 34 35
M  V30 35 1 35 2
M  V30 36 1 32 6
M  V30 37 1 29 10
M  V30 38 1 27 17
M  V30 39 1 1 36
M  V30 40 1 1 37
M  V30 41 1 1 38
M  V30 42 1 3 39
M  V30 43 1 5 40
M  V30 44 1 9 41
M  V30 45 1 11 42
M  V30 46 1 12 43
M  V30 47 1 16 44
M  V30 48 1 17 45
M  V30 49 1 18 46
M  V30 50 1 18 47
M  V30 51 1 20 48
M  V30 52 1 20 49
M  V30 53 1 20 50
M  V30 54 1 21 51
M  V30 55 1 21 52
M  V30 56 1 21 53
M  V30 57 1 25 54
M  V30 58 1 25 55
M  V30 59 1 25 56
M  V30 60 1 26 57
M  V30 61 1 26 58
M  V30 62 1 26 59
M  V30 63 1 27 60
M  V30 64 1 27 61
M  V30 65 1 28 62
M  V30 66 1 29 63
M  V30 67 1 31 64
M  V30 END BOND
M  V30 END CTAB
M  END
>  <Dataset>  (269) 
ChEMBL_Kinases

>  <Ligand_Instance>  (269) 
nan

>  <PDB_ID>  (269) 
nan

>  <Standardized_SMILES>  (269) 
Cc1cc(Nc2nc(Nc3ccc(C(=O)NC4CC(C)(C)N([O])C(C)(C)C4)cc3)ncc2F)no1

>  <Name>  (269) 
nan

>  <Pocket>  (269) 
nan

>  <ATP_Site>  (269) 
nan

>  <Peripheral>  (269) 
nan

>  <Num_H_Atoms_ProtBoundConf>  (269) 
nan

>  <Num_Resolved_Atoms>  (269) 
nan

>  <Num_Not_Resolved_Atoms>  (269) 
nan

$$$$
CHEMBL4522631
     RDKit          3D

  0  0  0  0  0  0  0  0  0  0999 V3000
M  V30 BEGIN CTAB
M  V30 COUNTS 25 26 0 0 0
M  V30 BEGIN ATOM
M  V30 1 N 0.700544 -3.226194 4.576228 0
M  V30 2 C 1.026740 -3.205580 3.205979 0
M  V30 3 O 1.570469 -4.253728 2.784119 0
M  V30 4 C 0.744636 -2.049165 2.369384 0
M  V30 5 C 1.137880 -2.161871 1.053489 0
M  V30 6 C 0.933823 -1.137032 0.136564 0
M  V30 7 C 0.311244 0.008308 0.617657 0
M  V30 8 C 0.074944 1.114013 -0.336327 0
M  V30 9 C -0.166224 0.685518 -1.648173 0
M  V30 10 C -0.406160 1.611158 -2.670285 0
M  V30 11 C -0.376639 2.924572 -2.244209 0
M  V30 12 N -0.147726 3.344720 -0.996436 0
M  V30 13 C 0.088352 2.448658 0.011136 0
M  V30 14 C -0.086783 0.133998 1.931268 0
M  V30 15 C 0.130931 -0.912247 2.832974 0
M  V30 16 H 1.011776 -2.485029 5.240672 0
M  V30 17 H 0.429098 -3.302582 5.556202 0
M  V30 18 H 1.618912 -3.074639 0.724160 0
M  V30 19 H 1.267512 -1.290779 -0.877221 0
M  V30 20 H -0.183843 -0.356858 -1.946085 0
M  V30 21 H -0.600676 1.368445 -3.702130 0
M  V30 22 H -0.561266 3.668848 -3.020257 0
M  V30 23 H 0.283541 2.632509 1.042087 0
M  V30 24 H -0.571518 1.018254 2.314885 0
M  V30 25 H -0.144120 -0.907932 3.874282 0
M  V30 END ATOM
M  V30 BEGIN BOND
M  V30 1 1 1 2
M  V30 2 2 2 3
M  V30 3 1 2 4
M  V30 4 2 4 5
M  V30 5 1 5 6
M  V30 6 2 6 7
M  V30 7 1 7 8
M  V30 8 2 8 9
M  V30 9 1 9 10
M  V30 10 2 10 11
M  V30 11 1 11 12
M  V30 12 2 12 13
M  V30 13 1 7 14
M  V30 14 2 14 15
M  V30 15 1 15 4
M  V30 16 1 13 8
M  V30 17 1 1 16
M  V30 18 1 1 17
M  V30 19 1 5 18
M  V30 20 1 6 19
M  V30 21 1 9 20
M  V30 22 1 10 21
M  V30 23 1 11 22
M  V30 24 1 13 23
M  V30 25 1 14 24
M  V30 26 1 15 25
M  V30 END BOND
M  V30 END CTAB
M  END
>  <Dataset>  (270) 
ChEMBL_Kinases

>  <Ligand_Instance>  (270) 
nan

>  <PDB_ID>  (270) 
nan

>  <Standardized_SMILES>  (270) 
NC(=O)c1ccc(-c2cccnc2)cc1

>  <Name>  (270) 
nan

>  <Pocket>  (270) 
nan

>  <ATP_Site>  (270) 
nan

>  <Peripheral>  (270) 
nan

>  <Num_H_Atoms_ProtBoundConf>  (270) 
nan

>  <Num_Resolved_Atoms>  (270) 
nan

>  <Num_Not_Resolved_Atoms>  (270) 
nan

$$$$
CHEMBL4456062
     RDKit          3D

  0  0  0  0  0  0  0  0  0  0999 V3000
M  V30 BEGIN CTAB
M  V30 COUNTS 65 69 0 0 0
M  V30 BEGIN ATOM
M  V30 1 O 2.190726 -0.923873 4.959976 0
M  V30 2 C 2.514467 -0.331895 3.925985 0
M  V30 3 N 3.800038 -0.640145 3.482512 0
M  V30 4 C 4.958170 -1.425624 3.765928 0
M  V30 5 C 4.807311 -2.906861 3.728437 0
M  V30 6 C 3.904749 -3.683440 4.600111 0
M  V30 7 C 3.549611 -3.502668 3.176017 0
M  V30 8 C 1.571925 0.579119 3.310574 0
M  V30 9 C 0.425215 0.799794 4.038687 0
M  V30 10 C -0.572931 1.657898 3.555657 0
M  V30 11 C -0.366433 2.268843 2.331830 0
M  V30 12 N -1.141942 3.134247 1.620177 0
M  V30 13 C -0.492340 3.450164 0.462917 0
M  V30 14 N -1.136116 4.354532 -0.429524 0
M  V30 15 C -2.158424 3.821571 -1.299308 0
M  V30 16 C -2.501542 2.494314 -1.248438 0
M  V30 17 C -3.483969 1.911369 -2.053281 0
M  V30 18 C -3.724175 0.459327 -1.853913 0
M  V30 19 N -2.953084 -0.405181 -2.676380 0
M  V30 20 C -1.537740 -0.286741 -2.558568 0
M  V30 21 C -0.980214 -0.952897 -1.323544 0
M  V30 22 N -1.381358 -2.338195 -1.227638 0
M  V30 23 C -0.436937 -3.391873 -1.102648 0
M  V30 24 O 0.674280 -2.772914 -1.115166 0
M  V30 25 C -0.906041 -4.795830 -1.000114 0
M  V30 26 C 0.249819 -5.757845 -0.924355 0
M  V30 27 F 1.053864 -5.664428 -2.062319 0
M  V30 28 F -0.271421 -7.029841 -0.874281 0
M  V30 29 F 0.991718 -5.571309 0.209797 0
M  V30 30 C -2.805938 -2.448798 -1.285198 0
M  V30 31 C -3.402797 -1.748913 -2.459717 0
M  V30 32 C -4.120402 2.756682 -2.936560 0
M  V30 33 C -3.778244 4.094217 -2.992008 0
M  V30 34 N -2.812581 4.601689 -2.181211 0
M  V30 35 N 0.674215 2.772252 0.483349 0
M  V30 36 C 0.764520 2.052021 1.610862 0
M  V30 37 C 1.738693 1.205478 2.098787 0
M  V30 38 H 3.966713 -0.063660 2.591316 0
M  V30 39 H 5.337934 -1.131055 4.815803 0
M  V30 40 H 5.834609 -1.137169 3.135130 0
M  V30 41 H 5.730161 -3.482351 3.416262 0
M  V30 42 H 3.274515 -3.251891 5.392738 0
M  V30 43 H 4.257654 -4.716663 4.944207 0
M  V30 44 H 2.678790 -2.871399 2.926916 0
M  V30 45 H 3.616883 -4.404892 2.544265 0
M  V30 46 H 0.187639 0.353676 5.015883 0
M  V30 47 H -1.471647 1.829313 4.129718 0
M  V30 48 H -0.938517 5.390359 -0.520788 0
M  V30 49 H -1.969987 1.900195 -0.542013 0
M  V30 50 H -3.499613 0.188388 -0.781040 0
M  V30 51 H -4.795676 0.175324 -1.976222 0
M  V30 52 H -1.103613 -0.821953 -3.450238 0
M  V30 53 H -1.193282 0.745661 -2.583331 0
M  V30 54 H 0.125614 -0.935637 -1.404127 0
M  V30 55 H -1.242437 -0.377768 -0.411319 0
M  V30 56 H -1.525335 -5.047150 -1.887573 0
M  V30 57 H -1.502108 -4.889145 -0.071712 0
M  V30 58 H -3.042196 -3.545686 -1.426834 0
M  V30 59 H -3.312239 -2.208824 -0.315776 0
M  V30 60 H -3.248703 -2.355593 -3.373981 0
M  V30 61 H -4.515172 -1.705901 -2.299552 0
M  V30 62 H -4.876523 2.286433 -3.549963 0
M  V30 63 H -4.308590 4.736503 -3.710840 0
M  V30 64 H 1.324836 2.866460 -0.300839 0
M  V30 65 H 2.624533 1.032368 1.541267 0
M  V30 END ATOM
M  V30 BEGIN BOND
M  V30 1 2 1 2
M  V30 2 1 2 3
M  V30 3 1 3 4
M  V30 4 1 4 5
M  V30 5 1 5 6
M  V30 6 1 6 7
M  V30 7 1 2 8
M  V30 8 2 8 9
M  V30 9 1 9 10
M  V30 10 2 10 11
M  V30 11 1 11 12
M  V30 12 2 12 13
M  V30 13 1 13 14
M  V30 14 1 14 15
M  V30 15 2 15 16
M  V30 16 1 16 17
M  V30 17 1 17 18
M  V30 18 1 18 19
M  V30 19 1 19 20
M  V30 20 1 20 21
M  V30 21 1 21 22
M  V30 22 1 22 23
M  V30 23 2 23 24
M  V30 24 1 23 25
M  V30 25 1 25 26
M  V30 26 1 26 27
M  V30 27 1 26 28
M  V30 28 1 26 29
M  V30 29 1 22 30
M  V30 30 1 30 31
M  V30 31 2 17 32
M  V30 32 1 32 33
M  V30 33 2 33 34
M  V30 34 1 13 35
M  V30 35 1 35 36
M  V30 36 2 36 37
M  V30 37 1 7 5
M  V30 38 1 37 8
M  V30 39 1 36 11
M  V30 40 1 34 15
M  V30 41 1 31 19
M  V30 42 1 3 38
M  V30 43 1 4 39
M  V30 44 1 4 40
M  V30 45 1 5 41
M  V30 46 1 6 42
M  V30 47 1 6 43
M  V30 48 1 7 44
M  V30 49 1 7 45
M  V30 50 1 9 46
M  V30 51 1 10 47
M  V30 52 1 14 48
M  V30 53 1 16 49
M  V30 54 1 18 50
M  V30 55 1 18 51
M  V30 56 1 20 52
M  V30 57 1 20 53
M  V30 58 1 21 54
M  V30 59 1 21 55
M  V30 60 1 25 56
M  V30 61 1 25 57
M  V30 62 1 30 58
M  V30 63 1 30 59
M  V30 64 1 31 60
M  V30 65 1 31 61
M  V30 66 1 32 62
M  V30 67 1 33 63
M  V30 68 1 35 64
M  V30 69 1 37 65
M  V30 END BOND
M  V30 END CTAB
M  END
>  <Dataset>  (271) 
ChEMBL_Kinases

>  <Ligand_Instance>  (271) 
nan

>  <PDB_ID>  (271) 
nan

>  <Standardized_SMILES>  (271) 
O=C(NCC1CC1)c1ccc2nc(Nc3cc(CN4CCN(C(=O)CC(F)(F)F)CC4)ccn3)[nH]c2c1

>  <Name>  (271) 
nan

>  <Pocket>  (271) 
nan

>  <ATP_Site>  (271) 
nan

>  <Peripheral>  (271) 
nan

>  <Num_H_Atoms_ProtBoundConf>  (271) 
nan

>  <Num_Resolved_Atoms>  (271) 
nan

>  <Num_Not_Resolved_Atoms>  (271) 
nan

$$$$
CHEMBL3699670
     RDKit          3D

  0  0  0  0  0  0  0  0  0  0999 V3000
M  V30 BEGIN CTAB
M  V30 COUNTS 50 54 0 0 0
M  V30 BEGIN ATOM
M  V30 1 C 0.023175 -7.808706 0.907405 0
M  V30 2 O 0.975213 -7.293764 -0.003135 0
M  V30 3 C 1.174557 -5.940927 -0.224682 0
M  V30 4 C 2.179868 -5.741292 -1.177796 0
M  V30 5 N 2.521019 -4.469650 -1.531360 0
M  V30 6 C 1.892729 -3.420971 -0.965058 0
M  V30 7 N 2.013876 -2.087965 -1.113229 0
M  V30 8 C 1.129268 -1.443364 -0.295399 0
M  V30 9 C 1.002844 0.007931 -0.212850 0
M  V30 10 C 2.033586 0.838021 0.186819 0
M  V30 11 C 1.900325 2.210775 0.260958 0
M  V30 12 C 0.698569 2.816740 -0.071214 0
M  V30 13 C 0.611233 4.290885 0.026832 0
M  V30 14 N 1.742375 4.977242 -0.595147 0
M  V30 15 C -0.673556 4.936979 -0.331933 0
M  V30 16 C -1.068690 4.938903 1.126922 0
M  V30 17 C 0.405712 4.768530 1.467560 0
M  V30 18 C -0.323556 1.986178 -0.468202 0
M  V30 19 C -0.202985 0.613543 -0.546416 0
M  V30 20 C 0.433428 -2.420045 0.385688 0
M  V30 21 C -0.600506 -2.192258 1.353383 0
M  V30 22 C -0.552005 -1.544609 2.573009 0
M  V30 23 C -1.666705 -1.426922 3.372527 0
M  V30 24 C -2.877521 -1.967248 2.956961 0
M  V30 25 C -2.963408 -2.620283 1.746018 0
M  V30 26 C -1.826785 -2.730687 0.949400 0
M  V30 27 N 0.923240 -3.600479 -0.046184 0
M  V30 28 C 0.556757 -4.840304 0.330439 0
M  V30 29 H 0.542268 -8.165523 1.822456 0
M  V30 30 H -0.531096 -8.644964 0.408602 0
M  V30 31 H -0.749351 -7.068975 1.192421 0
M  V30 32 H 2.747253 -6.518452 -1.693442 0
M  V30 33 H 2.990441 0.371898 0.452605 0
M  V30 34 H 2.794702 2.757391 0.593194 0
M  V30 35 H 2.664106 4.584149 -0.305514 0
M  V30 36 H 1.733071 5.955708 -0.181585 0
M  V30 37 H -1.358678 4.437698 -1.024975 0
M  V30 38 H -0.527978 6.004105 -0.644127 0
M  V30 39 H -1.468754 5.907354 1.500658 0
M  V30 40 H -1.708241 4.088764 1.414558 0
M  V30 41 H 0.634761 4.017877 2.239269 0
M  V30 42 H 0.913941 5.726690 1.691808 0
M  V30 43 H -1.254271 2.422620 -0.728278 0
M  V30 44 H -1.005209 -0.011677 -0.855789 0
M  V30 45 H 0.426229 -1.161276 2.805934 0
M  V30 46 H -1.530332 -0.903290 4.308374 0
M  V30 47 H -3.742181 -1.864830 3.598477 0
M  V30 48 H -3.924954 -3.029061 1.455709 0
M  V30 49 H -2.005868 -3.269897 0.005604 0
M  V30 50 H -0.200396 -5.113999 1.051992 0
M  V30 END ATOM
M  V30 BEGIN BOND
M  V30 1 1 1 2
M  V30 2 1 2 3
M  V30 3 1 3 4
M  V30 4 2 4 5
M  V30 5 1 5 6
M  V30 6 2 6 7
M  V30 7 1 7 8
M  V30 8 1 8 9
M  V30 9 2 9 10
M  V30 10 1 10 11
M  V30 11 2 11 12
M  V30 12 1 12 13
M  V30 13 1 13 14
M  V30 14 1 13 15
M  V30 15 1 15 16
M  V30 16 1 16 17
M  V30 17 1 12 18
M  V30 18 2 18 19
M  V30 19 2 8 20
M  V30 20 1 20 21
M  V30 21 2 21 22
M  V30 22 1 22 23
M  V30 23 2 23 24
M  V30 24 1 24 25
M  V30 25 2 25 26
M  V30 26 1 20 27
M  V30 27 1 27 28
M  V30 28 2 28 3
M  V30 29 1 27 6
M  V30 30 1 19 9
M  V30 31 1 26 21
M  V30 32 1 17 13
M  V30 33 1 1 29
M  V30 34 1 1 30
M  V30 35 1 1 31
M  V30 36 1 4 32
M  V30 37 1 10 33
M  V30 38 1 11 34
M  V30 39 1 14 35
M  V30 40 1 14 36
M  V30 41 1 15 37
M  V30 42 1 15 38
M  V30 43 1 16 39
M  V30 44 1 16 40
M  V30 45 1 17 41
M  V30 46 1 17 42
M  V30 47 1 18 43
M  V30 48 1 19 44
M  V30 49 1 22 45
M  V30 50 1 23 46
M  V30 51 1 24 47
M  V30 52 1 25 48
M  V30 53 1 26 49
M  V30 54 1 28 50
M  V30 END BOND
M  V30 END CTAB
M  END
>  <Dataset>  (272) 
ChEMBL_Kinases

>  <Ligand_Instance>  (272) 
nan

>  <PDB_ID>  (272) 
nan

>  <Standardized_SMILES>  (272) 
COc1cnc2nc(-c3ccc(C4(N)CCC4)cc3)c(-c3ccccc3)n2c1

>  <Name>  (272) 
nan

>  <Pocket>  (272) 
nan

>  <ATP_Site>  (272) 
nan

>  <Peripheral>  (272) 
nan

>  <Num_H_Atoms_ProtBoundConf>  (272) 
nan

>  <Num_Resolved_Atoms>  (272) 
nan

>  <Num_Not_Resolved_Atoms>  (272) 
nan

$$$$
CHEMBL4522042
     RDKit          3D

  0  0  0  0  0  0  0  0  0  0999 V3000
M  V30 BEGIN CTAB
M  V30 COUNTS 44 47 0 0 0
M  V30 BEGIN ATOM
M  V30 1 O 0.685365 -0.579539 3.652588 0
M  V30 2 C 0.606055 -0.766704 2.409772 0
M  V30 3 N 1.833623 -0.700989 1.711903 0
M  V30 4 C 3.015223 -0.431048 2.491875 0
M  V30 5 C 4.147461 -0.413749 1.499780 0
M  V30 6 C 5.073032 -1.417393 1.316011 0
M  V30 7 C 6.061897 -1.234048 0.346079 0
M  V30 8 C 6.156768 -0.093719 -0.438740 0
M  V30 9 C 5.191138 0.868317 -0.194784 0
M  V30 10 C 4.194313 0.751265 0.741370 0
M  V30 11 O 3.309048 1.780887 0.874062 0
M  V30 12 C 3.176113 2.846584 -0.046224 0
M  V30 13 C 4.385987 3.106442 -0.876176 0
M  V30 14 O 5.276980 2.021325 -0.979538 0
M  V30 15 C -0.712017 -1.025895 1.829250 0
M  V30 16 C -1.779385 -1.047174 2.704243 0
M  V30 17 C -3.023067 -1.293887 2.136372 0
M  V30 18 C -3.244889 -1.511779 0.793191 0
M  V30 19 C -4.619522 -1.754681 0.365413 0
M  V30 20 C -5.625385 -1.124272 1.074428 0
M  V30 21 C -6.933298 -1.373012 0.651716 0
M  V30 22 N -7.204864 -2.179133 -0.385643 0
M  V30 23 C -6.184327 -2.764298 -1.036713 0
M  V30 24 C -4.836433 -2.593302 -0.708477 0
M  V30 25 C -2.134287 -1.481816 -0.058788 0
M  V30 26 C -0.881498 -1.238288 0.476099 0
M  V30 27 H 1.778962 -0.858149 0.663612 0
M  V30 28 H 3.246620 -1.252283 3.188725 0
M  V30 29 H 3.014354 0.509056 3.036570 0
M  V30 30 H 4.971460 -2.279793 1.934952 0
M  V30 31 H 6.784493 -2.042098 0.217035 0
M  V30 32 H 6.942344 -0.016970 -1.165828 0
M  V30 33 H 2.975054 3.790069 0.542754 0
M  V30 34 H 2.314416 2.667710 -0.722381 0
M  V30 35 H 4.939427 4.019524 -0.533151 0
M  V30 36 H 4.076705 3.362789 -1.921866 0
M  V30 37 H -1.681788 -0.886088 3.766533 0
M  V30 38 H -3.858009 -1.306598 2.851959 0
M  V30 39 H -5.455081 -0.465629 1.914984 0
M  V30 40 H -7.752398 -0.885200 1.196868 0
M  V30 41 H -6.402777 -3.424243 -1.886894 0
M  V30 42 H -4.044543 -3.075823 -1.250526 0
M  V30 43 H -2.337366 -1.655450 -1.102821 0
M  V30 44 H -0.048017 -1.221736 -0.202009 0
M  V30 END ATOM
M  V30 BEGIN BOND
M  V30 1 2 1 2
M  V30 2 1 2 3
M  V30 3 1 3 4
M  V30 4 1 4 5
M  V30 5 2 5 6
M  V30 6 1 6 7
M  V30 7 2 7 8
M  V30 8 1 8 9
M  V30 9 2 9 10
M  V30 10 1 10 11
M  V30 11 1 11 12
M  V30 12 1 12 13
M  V30 13 1 13 14
M  V30 14 1 2 15
M  V30 15 2 15 16
M  V30 16 1 16 17
M  V30 17 2 17 18
M  V30 18 1 18 19
M  V30 19 2 19 20
M  V30 20 1 20 21
M  V30 21 2 21 22
M  V30 22 1 22 23
M  V30 23 2 23 24
M  V30 24 1 18 25
M  V30 25 2 25 26
M  V30 26 1 10 5
M  V30 27 1 26 15
M  V30 28 1 14 9
M  V30 29 1 24 19
M  V30 30 1 3 27
M  V30 31 1 4 28
M  V30 32 1 4 29
M  V30 33 1 6 30
M  V30 34 1 7 31
M  V30 35 1 8 32
M  V30 36 1 12 33
M  V30 37 1 12 34
M  V30 38 1 13 35
M  V30 39 1 13 36
M  V30 40 1 16 37
M  V30 41 1 17 38
M  V30 42 1 20 39
M  V30 43 1 21 40
M  V30 44 1 23 41
M  V30 45 1 24 42
M  V30 46 1 25 43
M  V30 47 1 26 44
M  V30 END BOND
M  V30 END CTAB
M  END
>  <Dataset>  (273) 
ChEMBL_Kinases

>  <Ligand_Instance>  (273) 
nan

>  <PDB_ID>  (273) 
nan

>  <Standardized_SMILES>  (273) 
O=C(NCc1cccc2c1OCCO2)c1ccc(-c2ccncc2)cc1

>  <Name>  (273) 
nan

>  <Pocket>  (273) 
nan

>  <ATP_Site>  (273) 
nan

>  <Peripheral>  (273) 
nan

>  <Num_H_Atoms_ProtBoundConf>  (273) 
nan

>  <Num_Resolved_Atoms>  (273) 
nan

>  <Num_Not_Resolved_Atoms>  (273) 
nan

$$$$
CHEMBL4522021
     RDKit          3D

  0  0  0  0  0  0  0  0  0  0999 V3000
M  V30 BEGIN CTAB
M  V30 COUNTS 41 44 0 0 0
M  V30 BEGIN ATOM
M  V30 1 F 3.366022 -3.819732 2.573662 0
M  V30 2 C 2.181530 -4.554767 2.666780 0
M  V30 3 F 2.247061 -5.275968 3.818142 0
M  V30 4 F 2.036312 -5.398353 1.576410 0
M  V30 5 C 1.048460 -3.554572 2.650535 0
M  V30 6 C 1.105146 -2.788064 1.380490 0
M  V30 7 N 0.749485 -1.399716 1.586640 0
M  V30 8 C -0.088291 -0.601922 0.727466 0
M  V30 9 N 0.515060 0.482202 0.158760 0
M  V30 10 C -0.126138 1.323971 -0.672180 0
M  V30 11 C 0.569399 2.467637 -1.251413 0
M  V30 12 C 1.894855 2.684722 -0.942551 0
M  V30 13 C 2.540472 3.769207 -1.496648 0
M  V30 14 N 1.913504 4.618232 -2.327821 0
M  V30 15 C 0.615439 4.447823 -2.660673 0
M  V30 16 C -0.048519 3.354254 -2.106476 0
M  V30 17 N -1.438851 1.136394 -0.997706 0
M  V30 18 C -2.048147 0.081622 -0.452035 0
M  V30 19 C -3.378029 -0.246137 -0.681116 0
M  V30 20 N -3.979095 -1.310975 -0.123878 0
M  V30 21 C -3.322464 -2.156815 0.715612 0
M  V30 22 C -1.996413 -1.894727 0.990637 0
M  V30 23 C -1.413453 -0.794140 0.401133 0
M  V30 24 C 1.177516 -0.581993 2.685159 0
M  V30 25 C 1.777423 -1.526716 3.712612 0
M  V30 26 N 0.989457 -2.738886 3.811804 0
M  V30 27 H 0.095975 -4.158349 2.622402 0
M  V30 28 H 2.172339 -2.753316 1.006718 0
M  V30 29 H 0.540863 -3.239840 0.548933 0
M  V30 30 H 2.416048 2.019932 -0.281079 0
M  V30 31 H 3.580763 4.006232 -1.302225 0
M  V30 32 H 0.053802 5.095173 -3.323783 0
M  V30 33 H -1.100328 3.178261 -2.348914 0
M  V30 34 H -3.969235 0.380948 -1.339960 0
M  V30 35 H -3.855869 -3.000010 1.136831 0
M  V30 36 H -1.469074 -2.560764 1.657160 0
M  V30 37 H 2.022735 0.086528 2.364516 0
M  V30 38 H 0.407361 0.068891 3.118500 0
M  V30 39 H 2.858014 -1.708541 3.563239 0
M  V30 40 H 1.681922 -1.011747 4.705226 0
M  V30 41 H 1.229776 -3.222026 4.684171 0
M  V30 END ATOM
M  V30 BEGIN BOND
M  V30 1 1 1 2
M  V30 2 1 2 3
M  V30 3 1 2 4
M  V30 4 1 2 5
M  V30 5 1 5 6
M  V30 6 1 6 7
M  V30 7 1 7 8
M  V30 8 2 8 9
M  V30 9 1 9 10
M  V30 10 1 10 11
M  V30 11 2 11 12
M  V30 12 1 12 13
M  V30 13 2 13 14
M  V30 14 1 14 15
M  V30 15 2 15 16
M  V30 16 2 10 17
M  V30 17 1 17 18
M  V30 18 2 18 19
M  V30 19 1 19 20
M  V30 20 2 20 21
M  V30 21 1 21 22
M  V30 22 2 22 23
M  V30 23 1 7 24
M  V30 24 1 24 25
M  V30 25 1 25 26
M  V30 26 1 26 5
M  V30 27 1 23 8
M  V30 28 1 16 11
M  V30 29 1 23 18
M  V30 30 1 5 27
M  V30 31 1 6 28
M  V30 32 1 6 29
M  V30 33 1 12 30
M  V30 34 1 13 31
M  V30 35 1 15 32
M  V30 36 1 16 33
M  V30 37 1 19 34
M  V30 38 1 21 35
M  V30 39 1 22 36
M  V30 40 1 24 37
M  V30 41 1 24 38
M  V30 42 1 25 39
M  V30 43 1 25 40
M  V30 44 1 26 41
M  V30 END BOND
M  V30 END CTAB
M  END
>  <Dataset>  (274) 
ChEMBL_Kinases

>  <Ligand_Instance>  (274) 
nan

>  <PDB_ID>  (274) 
nan

>  <Standardized_SMILES>  (274) 
FC(F)(F)C1CN(c2nc(-c3ccncc3)nc3cnccc23)CCN1

>  <Name>  (274) 
nan

>  <Pocket>  (274) 
nan

>  <ATP_Site>  (274) 
nan

>  <Peripheral>  (274) 
nan

>  <Num_H_Atoms_ProtBoundConf>  (274) 
nan

>  <Num_Resolved_Atoms>  (274) 
nan

>  <Num_Not_Resolved_Atoms>  (274) 
nan

$$$$
CHEMBL4521871
     RDKit          3D

  0  0  0  0  0  0  0  0  0  0999 V3000
M  V30 BEGIN CTAB
M  V30 COUNTS 56 59 0 0 0
M  V30 BEGIN ATOM
M  V30 1 O 0.370717 1.931149 -0.890334 0
M  V30 2 C -0.204598 0.820140 -0.632301 0
M  V30 3 N -0.138962 0.363990 0.713809 0
M  V30 4 C 0.511495 1.024566 1.810249 0 CFG=2
M  V30 5 C 1.697299 0.205136 2.238551 0
M  V30 6 C 1.325127 -1.171630 2.691035 0
M  V30 7 N 2.446264 -1.989690 3.096820 0
M  V30 8 C 3.099685 -1.562995 4.289359 0
M  V30 9 C 4.577511 -1.841627 4.138227 0
M  V30 10 C 4.783256 -2.161815 2.684827 0
M  V30 11 C 3.401965 -2.261355 2.076292 0
M  V30 12 C -0.398666 1.380549 2.925130 0
M  V30 13 C -0.337993 2.601025 3.591493 0
M  V30 14 C -1.196865 2.930171 4.635455 0
M  V30 15 C -2.160613 2.004491 5.035915 0
M  V30 16 C -2.240220 0.786165 4.389212 0
M  V30 17 F -3.197996 -0.107934 4.802237 0
M  V30 18 C -1.369427 0.500742 3.359559 0
M  V30 19 C -0.891508 0.063699 -1.675651 0
M  V30 20 C -1.543159 -1.136969 -1.476146 0
M  V30 21 C -2.175529 -1.820264 -2.510662 0
M  V30 22 C -2.152273 -1.280496 -3.783034 0
M  V30 23 C -2.845019 -2.086385 -4.786803 0
M  V30 24 C -3.943063 -2.834530 -4.401883 0
M  V30 25 C -4.608159 -3.605579 -5.334962 0
M  V30 26 N -4.241809 -3.674103 -6.630695 0
M  V30 27 C -3.176251 -2.953548 -7.024235 0
M  V30 28 F -2.655109 -2.896582 -8.296702 0
M  V30 29 C -2.479483 -2.164251 -6.114574 0
M  V30 30 C -1.511911 -0.079665 -4.029980 0
M  V30 31 C -0.889083 0.573162 -2.960694 0
M  V30 32 H -0.585588 -0.524517 0.992758 0
M  V30 33 H 0.924402 1.982514 1.368281 0
M  V30 34 H 2.203901 0.778526 3.030757 0
M  V30 35 H 2.336404 0.097489 1.324100 0
M  V30 36 H 0.750594 -1.721256 1.950475 0
M  V30 37 H 0.669886 -1.109169 3.612407 0
M  V30 38 H 2.903865 -0.487375 4.509238 0
M  V30 39 H 2.727803 -2.135315 5.168903 0
M  V30 40 H 5.211668 -0.975267 4.457992 0
M  V30 41 H 4.918474 -2.722570 4.735227 0
M  V30 42 H 5.359831 -3.098428 2.539984 0
M  V30 43 H 5.378166 -1.351547 2.187244 0
M  V30 44 H 3.260187 -3.333376 1.757316 0
M  V30 45 H 3.312461 -1.676989 1.158453 0
M  V30 46 H 0.406603 3.333942 3.292475 0
M  V30 47 H -1.110120 3.908472 5.131669 0
M  V30 48 H -2.834806 2.266804 5.857281 0
M  V30 49 H -1.516149 -0.474333 2.918552 0
M  V30 50 H -1.554901 -1.548270 -0.478404 0
M  V30 51 H -2.653218 -2.750166 -2.240767 0
M  V30 52 H -4.341468 -2.867603 -3.388411 0
M  V30 53 H -5.469904 -4.204825 -5.075655 0
M  V30 54 H -1.611206 -1.562503 -6.383204 0
M  V30 55 H -1.525879 0.292394 -5.035794 0
M  V30 56 H -0.393125 1.521937 -3.197545 0
M  V30 END ATOM
M  V30 BEGIN BOND
M  V30 1 2 1 2
M  V30 2 1 2 3
M  V30 3 1 3 4
M  V30 4 1 4 5
M  V30 5 1 5 6
M  V30 6 1 6 7
M  V30 7 1 7 8
M  V30 8 1 8 9
M  V30 9 1 9 10
M  V30 10 1 10 11
M  V30 11 1 4 12
M  V30 12 2 12 13
M  V30 13 1 13 14
M  V30 14 2 14 15
M  V30 15 1 15 16
M  V30 16 1 16 17
M  V30 17 2 16 18
M  V30 18 1 2 19
M  V30 19 2 19 20
M  V30 20 1 20 21
M  V30 21 2 21 22
M  V30 22 1 22 23
M  V30 23 2 23 24
M  V30 24 1 24 25
M  V30 25 2 25 26
M  V30 26 1 26 27
M  V30 27 1 27 28
M  V30 28 2 27 29
M  V30 29 1 22 30
M  V30 30 2 30 31
M  V30 31 1 11 7
M  V30 32 1 18 12
M  V30 33 1 31 19
M  V30 34 1 29 23
M  V30 35 1 3 32
M  V30 36 1 4 33 CFG=3
M  V30 37 1 5 34
M  V30 38 1 5 35
M  V30 39 1 6 36
M  V30 40 1 6 37
M  V30 41 1 8 38
M  V30 42 1 8 39
M  V30 43 1 9 40
M  V30 44 1 9 41
M  V30 45 1 10 42
M  V30 46 1 10 43
M  V30 47 1 11 44
M  V30 48 1 11 45
M  V30 49 1 13 46
M  V30 50 1 14 47
M  V30 51 1 15 48
M  V30 52 1 18 49
M  V30 53 1 20 50
M  V30 54 1 21 51
M  V30 55 1 24 52
M  V30 56 1 25 53
M  V30 57 1 29 54
M  V30 58 1 30 55
M  V30 59 1 31 56
M  V30 END BOND
M  V30 END CTAB
M  END
>  <Dataset>  (275) 
ChEMBL_Kinases

>  <Ligand_Instance>  (275) 
nan

>  <PDB_ID>  (275) 
nan

>  <Standardized_SMILES>  (275) 
O=C(N[C@H](CCN1CCCC1)c1cccc(F)c1)c1ccc(-c2ccnc(F)c2)cc1

>  <Name>  (275) 
nan

>  <Pocket>  (275) 
nan

>  <ATP_Site>  (275) 
nan

>  <Peripheral>  (275) 
nan

>  <Num_H_Atoms_ProtBoundConf>  (275) 
nan

>  <Num_Resolved_Atoms>  (275) 
nan

>  <Num_Not_Resolved_Atoms>  (275) 
nan

$$$$
CHEMBL3702157
     RDKit          3D

  0  0  0  0  0  0  0  0  0  0999 V3000
M  V30 BEGIN CTAB
M  V30 COUNTS 55 60 0 0 0
M  V30 BEGIN ATOM
M  V30 1 C -0.917206 -4.614101 3.607924 0
M  V30 2 C -0.238835 -5.067867 2.566753 0
M  V30 3 C 0.514982 -4.195804 1.708281 0
M  V30 4 C 0.635244 -2.854610 1.875729 0
M  V30 5 C 1.362603 -2.080383 0.994770 0
M  V30 6 C 1.998626 -2.634683 -0.093812 0
M  V30 7 N 2.749461 -1.851843 -1.037871 0
M  V30 8 C 2.783640 -0.456907 -0.733151 0
M  V30 9 N 3.822718 0.278757 -0.290649 0
M  V30 10 C 3.664271 1.608116 -0.033685 0
M  V30 11 C 2.405906 2.173859 -0.241542 0
M  V30 12 C 1.934269 3.458814 -0.077153 0
M  V30 13 C 2.594540 4.575618 0.349098 0
M  V30 14 C 1.798138 5.727868 0.396123 0
M  V30 15 N 0.500187 5.700767 0.045810 0
M  V30 16 C -0.104238 4.560396 -0.370377 0
M  V30 17 C 0.607180 3.383554 -0.445971 0
M  V30 18 N 0.230175 2.164398 -0.820788 0
M  V30 19 C -1.024465 1.638722 -1.261029 0
M  V30 20 C -2.142312 1.853778 -0.268868 0
M  V30 21 C -3.379957 2.114564 -1.095584 0
M  V30 22 C -3.011855 1.921427 -2.536368 0
M  V30 23 C -1.530752 2.238906 -2.554898 0
M  V30 24 C 1.358530 1.410872 -0.692031 0
M  V30 25 N 1.576796 0.101399 -0.929100 0
M  V30 26 N 1.852591 -3.953688 -0.216245 0
M  V30 27 N 1.155033 -4.685676 0.631862 0
M  V30 28 C -0.310586 -6.535471 2.350773 0
M  V30 29 C -1.739541 -7.036715 2.451453 0
M  V30 30 N -2.521784 -6.314693 3.428450 0
M  V30 31 C -1.634241 -5.690643 4.368516 0
M  V30 32 H -0.948596 -3.586973 3.874575 0
M  V30 33 H 0.163090 -2.356444 2.702840 0
M  V30 34 H 1.432487 -1.007715 1.168131 0
M  V30 35 H 3.179953 -2.359954 -1.826689 0
M  V30 36 H 4.503710 2.153456 0.312689 0
M  V30 37 H 3.621515 4.537616 0.612937 0
M  V30 38 H 2.261051 6.660385 0.726807 0
M  V30 39 H -1.141087 4.579678 -0.642509 0
M  V30 40 H -0.975544 0.536618 -1.441557 0
M  V30 41 H -2.344796 0.909232 0.314842 0
M  V30 42 H -1.930129 2.632383 0.482879 0
M  V30 43 H -4.232924 1.452752 -0.775135 0
M  V30 44 H -3.757622 3.141065 -0.990961 0
M  V30 45 H -3.540225 2.577689 -3.239032 0
M  V30 46 H -3.127362 0.845590 -2.800078 0
M  V30 47 H -1.120807 1.686022 -3.442998 0
M  V30 48 H -1.326718 3.304049 -2.673552 0
M  V30 49 H 0.281370 -7.005619 3.176738 0
M  V30 50 H 0.162453 -6.860607 1.411191 0
M  V30 51 H -1.734959 -8.114292 2.765389 0
M  V30 52 H -2.193701 -6.940418 1.429213 0
M  V30 53 H -3.180046 -6.956451 3.914774 0
M  V30 54 H -2.173407 -5.261005 5.243187 0
M  V30 55 H -0.921744 -6.446725 4.727146 0
M  V30 END ATOM
M  V30 BEGIN BOND
M  V30 1 2 1 2
M  V30 2 1 2 3
M  V30 3 2 3 4
M  V30 4 1 4 5
M  V30 5 2 5 6
M  V30 6 1 6 7
M  V30 7 1 7 8
M  V30 8 2 8 9
M  V30 9 1 9 10
M  V30 10 2 10 11
M  V30 11 1 11 12
M  V30 12 2 12 13
M  V30 13 1 13 14
M  V30 14 2 14 15
M  V30 15 1 15 16
M  V30 16 2 16 17
M  V30 17 1 17 18
M  V30 18 1 18 19
M  V30 19 1 19 20
M  V30 20 1 20 21
M  V30 21 1 21 22
M  V30 22 1 22 23
M  V30 23 1 18 24
M  V30 24 2 24 25
M  V30 25 1 6 26
M  V30 26 2 26 27
M  V30 27 1 2 28
M  V30 28 1 28 29
M  V30 29 1 29 30
M  V30 30 1 30 31
M  V30 31 1 31 1
M  V30 32 1 27 3
M  V30 33 1 25 8
M  V30 34 1 24 11
M  V30 35 1 17 12
M  V30 36 1 23 19
M  V30 37 1 1 32
M  V30 38 1 4 33
M  V30 39 1 5 34
M  V30 40 1 7 35
M  V30 41 1 10 36
M  V30 42 1 13 37
M  V30 43 1 14 38
M  V30 44 1 16 39
M  V30 45 1 19 40
M  V30 46 1 20 41
M  V30 47 1 20 42
M  V30 48 1 21 43
M  V30 49 1 21 44
M  V30 50 1 22 45
M  V30 51 1 22 46
M  V30 52 1 23 47
M  V30 53 1 23 48
M  V30 54 1 28 49
M  V30 55 1 28 50
M  V30 56 1 29 51
M  V30 57 1 29 52
M  V30 58 1 30 53
M  V30 59 1 31 54
M  V30 60 1 31 55
M  V30 END BOND
M  V30 END CTAB
M  END
>  <Dataset>  (276) 
ChEMBL_Kinases

>  <Ligand_Instance>  (276) 
nan

>  <PDB_ID>  (276) 
nan

>  <Standardized_SMILES>  (276) 
C1=C(c2ccc(Nc3ncc4c5ccncc5n(C5CCCC5)c4n3)nn2)CCNC1

>  <Name>  (276) 
nan

>  <Pocket>  (276) 
nan

>  <ATP_Site>  (276) 
nan

>  <Peripheral>  (276) 
nan

>  <Num_H_Atoms_ProtBoundConf>  (276) 
nan

>  <Num_Resolved_Atoms>  (276) 
nan

>  <Num_Not_Resolved_Atoms>  (276) 
nan

$$$$
CHEMBL233001
     RDKit          3D

  0  0  0  0  0  0  0  0  0  0999 V3000
M  V30 BEGIN CTAB
M  V30 COUNTS 40 43 0 0 0
M  V30 BEGIN ATOM
M  V30 1 N 1.041502 -3.490474 3.928818 0
M  V30 2 C 0.307218 -2.996748 3.189167 0
M  V30 3 C -0.596550 -2.387876 2.261521 0
M  V30 4 C -0.208133 -1.777011 1.014899 0
M  V30 5 N 1.154791 -1.731978 0.580834 0
M  V30 6 C 1.410453 -0.931525 -0.517294 0
M  V30 7 O 0.358592 -0.336695 -0.994939 0
M  V30 8 C 2.429769 -0.438823 -1.414648 0
M  V30 9 C 3.057271 -1.085744 -2.465352 0
M  V30 10 C 4.008133 -0.464298 -3.229754 0
M  V30 11 C 4.319317 0.850810 -2.907011 0
M  V30 12 C 3.765630 1.593558 -1.890888 0
M  V30 13 C 4.109693 2.891208 -1.604002 0
M  V30 14 C 3.491470 3.538746 -0.551735 0
M  V30 15 C 2.544215 2.924549 0.216576 0
M  V30 16 C 2.228218 1.618346 -0.108054 0
M  V30 17 C 2.800275 0.886872 -1.153948 0
M  V30 18 S -1.711821 -1.182531 0.288503 0
M  V30 19 C -2.797461 -1.692922 1.532274 0
M  V30 20 C -1.945489 -2.310868 2.471947 0
M  V30 21 C -2.821970 -2.746668 3.618581 0
M  V30 22 C -3.478862 -1.483778 4.199375 0
M  V30 23 C -4.328459 -0.824400 3.143840 0
M  V30 24 C -4.259649 -1.630675 1.827950 0
M  V30 25 H 2.025073 -2.149769 0.868094 0
M  V30 26 H 2.730596 -2.096377 -2.623617 0
M  V30 27 H 4.493029 -0.976490 -4.034414 0
M  V30 28 H 5.067540 1.383001 -3.502887 0
M  V30 29 H 4.872440 3.382803 -2.219013 0
M  V30 30 H 3.759517 4.568799 -0.307949 0
M  V30 31 H 2.063357 3.423022 1.041750 0
M  V30 32 H 1.479598 1.160079 0.510524 0
M  V30 33 H -2.185428 -3.180475 4.402798 0
M  V30 34 H -3.544456 -3.494609 3.281515 0
M  V30 35 H -4.120837 -1.800656 5.023719 0
M  V30 36 H -2.712923 -0.796349 4.560613 0
M  V30 37 H -3.817882 0.143473 2.879180 0
M  V30 38 H -5.357405 -0.615323 3.434529 0
M  V30 39 H -4.680566 -0.984486 1.030973 0
M  V30 40 H -4.746324 -2.606161 1.923357 0
M  V30 END ATOM
M  V30 BEGIN BOND
M  V30 1 3 1 2
M  V30 2 1 2 3
M  V30 3 2 3 4
M  V30 4 1 4 5
M  V30 5 1 5 6
M  V30 6 2 6 7
M  V30 7 1 6 8
M  V30 8 2 8 9
M  V30 9 1 9 10
M  V30 10 2 10 11
M  V30 11 1 11 12
M  V30 12 2 12 13
M  V30 13 1 13 14
M  V30 14 2 14 15
M  V30 15 1 15 16
M  V30 16 2 16 17
M  V30 17 1 4 18
M  V30 18 1 18 19
M  V30 19 2 19 20
M  V30 20 1 20 21
M  V30 21 1 21 22
M  V30 22 1 22 23
M  V30 23 1 23 24
M  V30 24 1 20 3
M  V30 25 1 17 8
M  V30 26 1 24 19
M  V30 27 1 17 12
M  V30 28 1 5 25
M  V30 29 1 9 26
M  V30 30 1 10 27
M  V30 31 1 11 28
M  V30 32 1 13 29
M  V30 33 1 14 30
M  V30 34 1 15 31
M  V30 35 1 16 32
M  V30 36 1 21 33
M  V30 37 1 21 34
M  V30 38 1 22 35
M  V30 39 1 22 36
M  V30 40 1 23 37
M  V30 41 1 23 38
M  V30 42 1 24 39
M  V30 43 1 24 40
M  V30 END BOND
M  V30 END CTAB
M  END
>  <Dataset>  (277) 
ChEMBL_Kinases

>  <Ligand_Instance>  (277) 
nan

>  <PDB_ID>  (277) 
nan

>  <Standardized_SMILES>  (277) 
N#Cc1c(NC(=O)c2cccc3ccccc23)sc2c1CCCC2

>  <Name>  (277) 
GW620972X

>  <Pocket>  (277) 
nan

>  <ATP_Site>  (277) 
nan

>  <Peripheral>  (277) 
nan

>  <Num_H_Atoms_ProtBoundConf>  (277) 
nan

>  <Num_Resolved_Atoms>  (277) 
nan

>  <Num_Not_Resolved_Atoms>  (277) 
nan

$$$$
CHEMBL4521642
     RDKit          3D

  0  0  0  0  0  0  0  0  0  0999 V3000
M  V30 BEGIN CTAB
M  V30 COUNTS 58 61 0 0 0
M  V30 BEGIN ATOM
M  V30 1 C 0.370747 -0.733136 4.630737 0
M  V30 2 N 0.719040 -0.997913 3.276308 0
M  V30 3 C 0.512374 -2.329332 2.841283 0
M  V30 4 C 1.911320 -0.367112 2.797616 0
M  V30 5 C 2.256800 -0.655250 1.386910 0
M  V30 6 O 1.352002 -0.302238 0.414566 0
M  V30 7 C 0.820286 0.879357 0.034292 0
M  V30 8 C 0.975720 2.180743 0.463167 0
M  V30 9 C 0.298647 3.237120 -0.108092 0
M  V30 10 C 0.564548 4.562943 0.451932 0
M  V30 11 C 0.471103 5.615640 -0.441324 0
M  V30 12 C 0.730227 6.868550 0.121978 0
M  V30 13 N 1.046896 7.065209 1.422523 0
M  V30 14 C 1.131337 6.031760 2.267414 0
M  V30 15 C 0.886524 4.745280 1.782339 0
M  V30 16 C -0.576700 3.016837 -1.152649 0
M  V30 17 C -0.768370 1.732078 -1.619979 0
M  V30 18 C -0.072753 0.667808 -1.028953 0
M  V30 19 N -0.399460 -0.595456 -1.646851 0
M  V30 20 C -1.472854 -1.405605 -1.179874 0
M  V30 21 O -2.280521 -1.199988 -0.218998 0
M  V30 22 C -1.830842 -2.699854 -1.789817 0
M  V30 23 C -3.001349 -3.279412 -1.053358 0
M  V30 24 O -3.164999 -4.667272 -1.298680 0
M  V30 25 C -2.079136 -5.524156 -1.082589 0
M  V30 26 C -2.206984 -6.806672 -0.579721 0
M  V30 27 C -1.051550 -7.572750 -0.405434 0
M  V30 28 C 0.151865 -7.011325 -0.743023 0
M  V30 29 C 0.284672 -5.732732 -1.244898 0
M  V30 30 C -0.861434 -4.972681 -1.417841 0
M  V30 31 C -0.665832 -3.619407 -1.954733 0
M  V30 32 H -0.237960 0.162669 4.807518 0
M  V30 33 H -0.101609 -1.626091 5.095835 0
M  V30 34 H 1.321221 -0.589357 5.216821 0
M  V30 35 H 0.356448 -2.470627 1.775547 0
M  V30 36 H -0.434231 -2.690426 3.332552 0
M  V30 37 H 1.323127 -2.972618 3.271903 0
M  V30 38 H 2.750736 -0.795890 3.423589 0
M  V30 39 H 1.911625 0.707435 3.033011 0
M  V30 40 H 3.284531 -0.213952 1.214096 0
M  V30 41 H 2.460998 -1.764045 1.292932 0
M  V30 42 H 1.664876 2.261896 1.262989 0
M  V30 43 H 0.223333 5.515206 -1.483533 0
M  V30 44 H 0.669119 7.723031 -0.538331 0
M  V30 45 H 1.387356 6.203138 3.313154 0
M  V30 46 H 0.944774 3.893983 2.428659 0
M  V30 47 H -1.098209 3.846053 -1.589653 0
M  V30 48 H -1.464609 1.620873 -2.438566 0
M  V30 49 H 0.140624 -0.976863 -2.471663 0
M  V30 50 H -2.213299 -2.460541 -2.822740 0
M  V30 51 H -2.975032 -3.081242 0.046257 0
M  V30 52 H -3.944224 -2.786844 -1.399648 0
M  V30 53 H -3.214736 -7.171860 -0.337092 0
M  V30 54 H -1.201228 -8.563128 -0.011904 0
M  V30 55 H 0.985570 -7.689442 -0.569410 0
M  V30 56 H 1.279127 -5.391846 -1.476933 0
M  V30 57 H -0.327336 -3.683916 -3.017847 0
M  V30 58 H 0.202293 -3.174479 -1.394528 0
M  V30 END ATOM
M  V30 BEGIN BOND
M  V30 1 1 1 2
M  V30 2 1 2 3
M  V30 3 1 2 4
M  V30 4 1 4 5
M  V30 5 1 5 6
M  V30 6 1 6 7
M  V30 7 2 7 8
M  V30 8 1 8 9
M  V30 9 1 9 10
M  V30 10 2 10 11
M  V30 11 1 11 12
M  V30 12 2 12 13
M  V30 13 1 13 14
M  V30 14 2 14 15
M  V30 15 2 9 16
M  V30 16 1 16 17
M  V30 17 2 17 18
M  V30 18 1 18 19
M  V30 19 1 19 20
M  V30 20 2 20 21
M  V30 21 1 20 22
M  V30 22 1 22 23
M  V30 23 1 23 24
M  V30 24 1 24 25
M  V30 25 2 25 26
M  V30 26 1 26 27
M  V30 27 2 27 28
M  V30 28 1 28 29
M  V30 29 2 29 30
M  V30 30 1 30 31
M  V30 31 1 18 7
M  V30 32 1 31 22
M  V30 33 1 15 10
M  V30 34 1 30 25
M  V30 35 1 1 32
M  V30 36 1 1 33
M  V30 37 1 1 34
M  V30 38 1 3 35
M  V30 39 1 3 36
M  V30 40 1 3 37
M  V30 41 1 4 38
M  V30 42 1 4 39
M  V30 43 1 5 40
M  V30 44 1 5 41
M  V30 45 1 8 42
M  V30 46 1 11 43
M  V30 47 1 12 44
M  V30 48 1 14 45
M  V30 49 1 15 46
M  V30 50 1 16 47
M  V30 51 1 17 48
M  V30 52 1 19 49
M  V30 53 1 22 50
M  V30 54 1 23 51
M  V30 55 1 23 52
M  V30 56 1 26 53
M  V30 57 1 27 54
M  V30 58 1 28 55
M  V30 59 1 29 56
M  V30 60 1 31 57
M  V30 61 1 31 58
M  V30 END BOND
M  V30 END CTAB
M  END
>  <Dataset>  (278) 
ChEMBL_Kinases

>  <Ligand_Instance>  (278) 
nan

>  <PDB_ID>  (278) 
nan

>  <Standardized_SMILES>  (278) 
CN(C)CCOc1cc(-c2ccncc2)ccc1NC(=O)C1COc2ccccc2C1

>  <Name>  (278) 
nan

>  <Pocket>  (278) 
nan

>  <ATP_Site>  (278) 
nan

>  <Peripheral>  (278) 
nan

>  <Num_H_Atoms_ProtBoundConf>  (278) 
nan

>  <Num_Resolved_Atoms>  (278) 
nan

>  <Num_Not_Resolved_Atoms>  (278) 
nan

$$$$
CHEMBL3699669
     RDKit          3D

  0  0  0  0  0  0  0  0  0  0999 V3000
M  V30 BEGIN CTAB
M  V30 COUNTS 49 53 0 0 0
M  V30 BEGIN ATOM
M  V30 1 C -1.662863 -7.404505 1.136816 0
M  V30 2 C -0.843273 -6.180223 1.300314 0
M  V30 3 C 0.404086 -6.314792 1.871655 0
M  V30 4 N 1.185820 -5.236119 2.039776 0
M  V30 5 C 0.760713 -3.996202 1.650216 0
M  V30 6 N 1.342018 -2.771871 1.703353 0
M  V30 7 C 0.476857 -1.868186 1.172921 0
M  V30 8 C 0.824920 -0.452070 1.075469 0
M  V30 9 C 1.150494 0.035090 -0.185838 0
M  V30 10 C 1.496127 1.368195 -0.440078 0
M  V30 11 C 1.503684 2.213457 0.642398 0
M  V30 12 C 1.888281 3.627927 0.295898 0
M  V30 13 N 1.410583 4.051774 -0.980250 0
M  V30 14 C 1.868449 4.584600 1.430006 0
M  V30 15 C 3.304992 4.306512 1.730048 0
M  V30 16 C 3.420894 3.735172 0.313098 0
M  V30 17 C 1.188559 1.769483 1.900068 0
M  V30 18 C 0.851272 0.448486 2.119270 0
M  V30 19 C -0.674875 -2.562017 0.781752 0
M  V30 20 C -1.818763 -1.920743 0.182463 0
M  V30 21 C -1.981810 -1.269264 -1.022191 0
M  V30 22 C -3.187024 -0.714607 -1.389167 0
M  V30 23 C -4.253185 -0.816476 -0.526398 0
M  V30 24 C -4.158185 -1.458239 0.700592 0
M  V30 25 C -2.929271 -2.002811 1.032572 0
M  V30 26 N -0.457064 -3.856715 1.091431 0
M  V30 27 C -1.280388 -4.927020 0.903396 0
M  V30 28 H -1.116849 -8.099712 0.444929 0
M  V30 29 H -2.674036 -7.162273 0.774509 0
M  V30 30 H -1.775353 -7.920319 2.124965 0
M  V30 31 H 0.808864 -7.261810 2.201631 0
M  V30 32 H 1.152584 -0.627193 -1.048903 0
M  V30 33 H 1.735953 1.675942 -1.453140 0
M  V30 34 H 0.391644 4.103613 -1.103008 0
M  V30 35 H 1.983353 4.778960 -1.421980 0
M  V30 36 H 1.785382 5.633358 1.016658 0
M  V30 37 H 1.132475 4.447146 2.237761 0
M  V30 38 H 3.557757 3.593141 2.517947 0
M  V30 39 H 3.973909 5.200404 1.798618 0
M  V30 40 H 3.937956 2.754643 0.285979 0
M  V30 41 H 3.806746 4.485542 -0.422422 0
M  V30 42 H 1.212432 2.472823 2.705872 0
M  V30 43 H 0.599063 0.072319 3.100699 0
M  V30 44 H -1.066588 -1.265968 -1.602967 0
M  V30 45 H -3.230392 -0.223075 -2.350047 0
M  V30 46 H -5.172530 -0.354206 -0.886711 0
M  V30 47 H -5.039701 -1.496208 1.324541 0
M  V30 48 H -2.964396 -2.486369 2.023161 0
M  V30 49 H -2.276420 -4.817048 0.447918 0
M  V30 END ATOM
M  V30 BEGIN BOND
M  V30 1 1 1 2
M  V30 2 1 2 3
M  V30 3 2 3 4
M  V30 4 1 4 5
M  V30 5 2 5 6
M  V30 6 1 6 7
M  V30 7 1 7 8
M  V30 8 2 8 9
M  V30 9 1 9 10
M  V30 10 2 10 11
M  V30 11 1 11 12
M  V30 12 1 12 13
M  V30 13 1 12 14
M  V30 14 1 14 15
M  V30 15 1 15 16
M  V30 16 1 11 17
M  V30 17 2 17 18
M  V30 18 2 7 19
M  V30 19 1 19 20
M  V30 20 2 20 21
M  V30 21 1 21 22
M  V30 22 2 22 23
M  V30 23 1 23 24
M  V30 24 2 24 25
M  V30 25 1 19 26
M  V30 26 1 26 27
M  V30 27 2 27 2
M  V30 28 1 26 5
M  V30 29 1 18 8
M  V30 30 1 25 20
M  V30 31 1 16 12
M  V30 32 1 1 28
M  V30 33 1 1 29
M  V30 34 1 1 30
M  V30 35 1 3 31
M  V30 36 1 9 32
M  V30 37 1 10 33
M  V30 38 1 13 34
M  V30 39 1 13 35
M  V30 40 1 14 36
M  V30 41 1 14 37
M  V30 42 1 15 38
M  V30 43 1 15 39
M  V30 44 1 16 40
M  V30 45 1 16 41
M  V30 46 1 17 42
M  V30 47 1 18 43
M  V30 48 1 21 44
M  V30 49 1 22 45
M  V30 50 1 23 46
M  V30 51 1 24 47
M  V30 52 1 25 48
M  V30 53 1 27 49
M  V30 END BOND
M  V30 END CTAB
M  END
>  <Dataset>  (279) 
ChEMBL_Kinases

>  <Ligand_Instance>  (279) 
nan

>  <PDB_ID>  (279) 
nan

>  <Standardized_SMILES>  (279) 
Cc1cnc2nc(-c3ccc(C4(N)CCC4)cc3)c(-c3ccccc3)n2c1

>  <Name>  (279) 
nan

>  <Pocket>  (279) 
nan

>  <ATP_Site>  (279) 
nan

>  <Peripheral>  (279) 
nan

>  <Num_H_Atoms_ProtBoundConf>  (279) 
nan

>  <Num_Resolved_Atoms>  (279) 
nan

>  <Num_Not_Resolved_Atoms>  (279) 
nan

$$$$
CHEMBL2331562
     RDKit          3D

  0  0  0  0  0  0  0  0  0  0999 V3000
M  V30 BEGIN CTAB
M  V30 COUNTS 45 47 0 0 0
M  V30 BEGIN ATOM
M  V30 1 O 1.096099 0.247330 1.406857 0
M  V30 2 C 0.252495 -0.610536 1.805970 0
M  V30 3 N 0.341111 -1.857930 1.117701 0
M  V30 4 C 1.404826 -1.650391 0.186443 0
M  V30 5 C 2.634124 -2.000131 0.696571 0
M  V30 6 C 3.720902 -1.813574 -0.173258 0
M  V30 7 C 3.494852 -1.309958 -1.437846 0
M  V30 8 C 4.630201 -1.118486 -2.332534 0
M  V30 9 C 5.876795 -0.790999 -1.816510 0
M  V30 10 N 6.674141 -0.689646 -2.918783 0
M  V30 11 N 5.938760 -0.941138 -3.992705 0
M  V30 12 C 4.657558 -1.216401 -3.710675 0
M  V30 13 C 2.210424 -0.975957 -1.888214 0
M  V30 14 C 1.120380 -1.144363 -1.065359 0
M  V30 15 N -0.537452 -0.025641 2.854498 0
M  V30 16 C -0.065250 1.321911 3.097316 0
M  V30 17 C -0.721767 2.300290 2.188882 0
M  V30 18 O -2.074625 2.306061 2.363328 0
M  V30 19 C -1.523986 -0.906936 3.378808 0
M  V30 20 C -2.881133 -0.836668 2.816064 0
M  V30 21 C -3.851121 -0.044201 3.440283 0
M  V30 22 C -5.169517 0.085898 2.987816 0
M  V30 23 C -5.508579 -0.617903 1.857212 0
M  V30 24 C -4.621230 -1.431605 1.164907 0
M  V30 25 C -3.342899 -1.488809 1.698653 0
M  V30 26 H -0.386357 -2.490315 1.524075 0
M  V30 27 H 2.804159 -2.388834 1.674748 0
M  V30 28 H 4.729450 -2.045100 0.101546 0
M  V30 29 H 6.297424 -0.620950 -0.853625 0
M  V30 30 H 6.373992 -0.913436 -4.960343 0
M  V30 31 H 3.839923 -1.455436 -4.370314 0
M  V30 32 H 2.032525 -0.578707 -2.887019 0
M  V30 33 H 0.087962 -0.920769 -1.308069 0
M  V30 34 H -0.209582 1.599650 4.178498 0
M  V30 35 H 1.041820 1.326424 2.977742 0
M  V30 36 H -0.538587 2.080545 1.106473 0
M  V30 37 H -0.247853 3.298065 2.342496 0
M  V30 38 H -2.496605 3.019960 1.796232 0
M  V30 39 H -1.649266 -0.719074 4.496634 0
M  V30 40 H -1.147729 -1.956380 3.355930 0
M  V30 41 H -3.519655 0.496183 4.339380 0
M  V30 42 H -5.834881 0.725209 3.547789 0
M  V30 43 H -6.543235 -0.515693 1.501182 0
M  V30 44 H -4.891125 -1.981824 0.278888 0
M  V30 45 H -2.668653 -2.122740 1.152480 0
M  V30 END ATOM
M  V30 BEGIN BOND
M  V30 1 2 1 2
M  V30 2 1 2 3
M  V30 3 1 3 4
M  V30 4 2 4 5
M  V30 5 1 5 6
M  V30 6 2 6 7
M  V30 7 1 7 8
M  V30 8 1 8 9
M  V30 9 2 9 10
M  V30 10 1 10 11
M  V30 11 1 11 12
M  V30 12 1 7 13
M  V30 13 2 13 14
M  V30 14 1 2 15
M  V30 15 1 15 16
M  V30 16 1 16 17
M  V30 17 1 17 18
M  V30 18 1 15 19
M  V30 19 1 19 20
M  V30 20 2 20 21
M  V30 21 1 21 22
M  V30 22 2 22 23
M  V30 23 1 23 24
M  V30 24 2 24 25
M  V30 25 1 14 4
M  V30 26 1 25 20
M  V30 27 2 12 8
M  V30 28 1 3 26
M  V30 29 1 5 27
M  V30 30 1 6 28
M  V30 31 1 9 29
M  V30 32 1 11 30
M  V30 33 1 12 31
M  V30 34 1 13 32
M  V30 35 1 14 33
M  V30 36 1 16 34
M  V30 37 1 16 35
M  V30 38 1 17 36
M  V30 39 1 17 37
M  V30 40 1 18 38
M  V30 41 1 19 39
M  V30 42 1 19 40
M  V30 43 1 21 41
M  V30 44 1 22 42
M  V30 45 1 23 43
M  V30 46 1 24 44
M  V30 47 1 25 45
M  V30 END BOND
M  V30 END CTAB
M  END
>  <Dataset>  (280) 
ChEMBL_Kinases

>  <Ligand_Instance>  (280) 
nan

>  <PDB_ID>  (280) 
nan

>  <Standardized_SMILES>  (280) 
O=C(Nc1ccc(-c2cn[nH]c2)cc1)N(CCO)Cc1ccccc1

>  <Name>  (280) 
nan

>  <Pocket>  (280) 
nan

>  <ATP_Site>  (280) 
nan

>  <Peripheral>  (280) 
nan

>  <Num_H_Atoms_ProtBoundConf>  (280) 
nan

>  <Num_Resolved_Atoms>  (280) 
nan

>  <Num_Not_Resolved_Atoms>  (280) 
nan

$$$$
CHEMBL4522524
     RDKit          3D

  0  0  0  0  0  0  0  0  0  0999 V3000
M  V30 BEGIN CTAB
M  V30 COUNTS 50 53 0 0 0
M  V30 BEGIN ATOM
M  V30 1 C 2.314950 -4.729528 1.551635 0
M  V30 2 C 1.771878 -3.663776 0.638878 0
M  V30 3 C 1.090563 -2.580687 1.212879 0
M  V30 4 N 0.931332 -2.515439 2.624802 0
M  V30 5 C 0.259125 -1.465995 3.334442 0
M  V30 6 C -1.176785 -1.302567 2.958841 0
M  V30 7 C 0.983059 -0.144154 3.052278 0
M  V30 8 C 0.348267 -1.713646 4.826554 0
M  V30 9 N 0.647835 -1.687938 0.309673 0
M  V30 10 C 0.829031 -1.802570 -1.014921 0
M  V30 11 C 0.345402 -0.844985 -1.879002 0
M  V30 12 C -0.382627 0.337736 -1.446446 0
M  V30 13 C -0.872446 1.306395 -2.299013 0
M  V30 14 C -1.514493 2.301186 -1.596021 0
M  V30 15 C -1.424589 1.946213 -0.268113 0
M  V30 16 N -0.755642 0.795481 -0.243109 0
M  V30 17 C -2.092594 2.964618 0.560423 0 CFG=1
M  V30 18 C -1.134678 3.591144 1.551289 0
M  V30 19 N -2.564969 3.926361 -0.413983 0
M  V30 20 C -2.232556 3.558149 -1.755849 0
M  V30 21 O -2.524888 4.214421 -2.778454 0
M  V30 22 C 0.575684 -1.039279 -3.229151 0
M  V30 23 C 1.254361 -2.128682 -3.729626 0
M  V30 24 C 1.728401 -3.073129 -2.843463 0
M  V30 25 N 1.487807 -2.855536 -1.531455 0
M  V30 26 C 1.973410 -3.808987 -0.715099 0
M  V30 27 O 2.604846 -4.828628 -1.140506 0
M  V30 28 H 3.125463 -4.239831 2.130886 0
M  V30 29 H 2.617855 -5.599569 0.972327 0
M  V30 30 H 1.507408 -5.105731 2.244792 0
M  V30 31 H 1.340243 -3.299606 3.179323 0
M  V30 32 H -1.471818 -1.878401 2.050102 0
M  V30 33 H -1.814488 -1.689719 3.779343 0
M  V30 34 H -1.458967 -0.228020 2.842970 0
M  V30 35 H 0.253377 0.710504 3.132311 0
M  V30 36 H 1.781683 -0.051601 3.805068 0
M  V30 37 H 1.406776 -0.210755 2.045157 0
M  V30 38 H -0.480305 -2.392069 5.121718 0
M  V30 39 H 1.343440 -2.153961 5.014571 0
M  V30 40 H 0.270862 -0.772737 5.397190 0
M  V30 41 H -0.780921 1.314259 -3.393105 0
M  V30 42 H -0.545551 0.300408 0.648724 0
M  V30 43 H -2.955007 2.465528 1.073354 0
M  V30 44 H -0.904317 4.649489 1.285498 0
M  V30 45 H -1.523791 3.500214 2.584412 0
M  V30 46 H -0.132999 3.084213 1.548490 0
M  V30 47 H -3.077295 4.752791 -0.044648 0
M  V30 48 H 0.236477 -0.342693 -3.999721 0
M  V30 49 H 1.428207 -2.269279 -4.787118 0
M  V30 50 H 2.265508 -3.941050 -3.199865 0
M  V30 END ATOM
M  V30 BEGIN BOND
M  V30 1 1 1 2
M  V30 2 2 2 3
M  V30 3 1 3 4
M  V30 4 1 4 5
M  V30 5 1 5 6
M  V30 6 1 5 7
M  V30 7 1 5 8
M  V30 8 1 3 9
M  V30 9 2 9 10
M  V30 10 1 10 11
M  V30 11 1 11 12
M  V30 12 2 12 13
M  V30 13 1 13 14
M  V30 14 2 14 15
M  V30 15 1 15 16
M  V30 16 1 15 17
M  V30 17 1 17 18
M  V30 18 1 17 19
M  V30 19 1 19 20
M  V30 20 2 20 21
M  V30 21 2 11 22
M  V30 22 1 22 23
M  V30 23 2 23 24
M  V30 24 1 24 25
M  V30 25 1 25 26
M  V30 26 2 26 27
M  V30 27 1 26 2
M  V30 28 1 25 10
M  V30 29 1 16 12
M  V30 30 1 20 14
M  V30 31 1 1 28
M  V30 32 1 1 29
M  V30 33 1 1 30
M  V30 34 1 4 31
M  V30 35 1 6 32
M  V30 36 1 6 33
M  V30 37 1 6 34
M  V30 38 1 7 35
M  V30 39 1 7 36
M  V30 40 1 7 37
M  V30 41 1 8 38
M  V30 42 1 8 39
M  V30 43 1 8 40
M  V30 44 1 13 41
M  V30 45 1 16 42
M  V30 46 1 17 43 CFG=1
M  V30 47 1 18 44
M  V30 48 1 18 45
M  V30 49 1 18 46
M  V30 50 1 19 47
M  V30 51 1 22 48
M  V30 52 1 23 49
M  V30 53 1 24 50
M  V30 END BOND
M  V30 END CTAB
M  END
>  <Dataset>  (281) 
ChEMBL_Kinases

>  <Ligand_Instance>  (281) 
nan

>  <PDB_ID>  (281) 
nan

>  <Standardized_SMILES>  (281) 
Cc1c(NC(C)(C)C)nc2c(-c3cc4c([nH]3)[C@@H](C)NC4=O)cccn2c1=O

>  <Name>  (281) 
nan

>  <Pocket>  (281) 
nan

>  <ATP_Site>  (281) 
nan

>  <Peripheral>  (281) 
nan

>  <Num_H_Atoms_ProtBoundConf>  (281) 
nan

>  <Num_Resolved_Atoms>  (281) 
nan

>  <Num_Not_Resolved_Atoms>  (281) 
nan

$$$$
CHEMBL2326003
     RDKit          3D

  0  0  0  0  0  0  0  0  0  0999 V3000
M  V30 BEGIN CTAB
M  V30 COUNTS 49 52 0 0 0
M  V30 BEGIN ATOM
M  V30 1 C -0.715843 -4.037071 -1.574254 0
M  V30 2 C 0.492600 -3.277756 -2.042504 0
M  V30 3 C -0.020956 -2.184725 -2.988977 0
M  V30 4 C 1.193013 -2.546793 -0.936014 0
M  V30 5 C 1.700109 -3.417231 0.172889 0 CFG=1
M  V30 6 C 2.367867 -2.458379 1.170158 0
M  V30 7 N 1.382090 -1.435891 1.423984 0
M  V30 8 C 1.525739 -0.051973 1.142105 0
M  V30 9 C 2.653578 0.502408 0.578005 0
M  V30 10 C 2.774555 1.850585 0.311326 0
M  V30 11 C 1.679645 2.653355 0.644426 0
M  V30 12 F 1.681595 3.987571 0.430168 0
M  V30 13 C 0.549379 2.099876 1.209400 0
M  V30 14 C -0.583650 2.959653 1.549483 0
M  V30 15 N -0.663445 4.290708 1.370101 0
M  V30 16 N -1.852003 4.735591 1.800167 0
M  V30 17 C -2.566017 3.673350 2.271325 0
M  V30 18 N -3.810634 3.678416 2.795525 0
M  V30 19 C -4.304514 2.479057 3.195900 0
M  V30 20 C -3.560137 1.309527 3.069149 0
M  V30 21 C -2.286682 1.344796 2.526309 0
M  V30 22 C -1.771078 2.542470 2.117057 0
M  V30 23 N 0.510103 0.776614 1.437640 0
M  V30 24 C 0.180758 -1.954200 2.015402 0
M  V30 25 C 0.289935 -3.437527 2.120698 0
M  V30 26 N 0.677238 -4.107498 0.908724 0
M  V30 27 H -1.449742 -4.048872 -2.407280 0
M  V30 28 H -0.519313 -5.074150 -1.306614 0
M  V30 29 H -1.179433 -3.427165 -0.768416 0
M  V30 30 H 1.212811 -3.897238 -2.600259 0
M  V30 31 H -0.727287 -2.607409 -3.716979 0
M  V30 32 H 0.826505 -1.636297 -3.413104 0
M  V30 33 H -0.624061 -1.509999 -2.315220 0
M  V30 34 H 0.568117 -1.695311 -0.573273 0
M  V30 35 H 2.084665 -2.066946 -1.391218 0
M  V30 36 H 2.407317 -4.136174 -0.237743 0
M  V30 37 H 2.587883 -2.988887 2.131099 0
M  V30 38 H 3.279993 -2.115344 0.680675 0
M  V30 39 H 3.492449 -0.126355 0.325003 0
M  V30 40 H 3.652819 2.294352 -0.129867 0
M  V30 41 H -2.189698 5.729139 1.783543 0
M  V30 42 H -5.280832 2.266995 3.641677 0
M  V30 43 H -3.890812 0.329725 3.365567 0
M  V30 44 H -1.682451 0.451091 2.414535 0
M  V30 45 H 0.067615 -1.533475 3.016818 0
M  V30 46 H -0.734897 -1.689073 1.452870 0
M  V30 47 H 0.892638 -3.708735 3.007372 0
M  V30 48 H -0.743419 -3.822952 2.362004 0
M  V30 49 H 1.018788 -5.069305 1.206218 0
M  V30 END ATOM
M  V30 BEGIN BOND
M  V30 1 1 1 2
M  V30 2 1 2 3
M  V30 3 1 2 4
M  V30 4 1 4 5
M  V30 5 1 5 6
M  V30 6 1 6 7
M  V30 7 1 7 8
M  V30 8 2 8 9
M  V30 9 1 9 10
M  V30 10 2 10 11
M  V30 11 1 11 12
M  V30 12 1 11 13
M  V30 13 1 13 14
M  V30 14 2 14 15
M  V30 15 1 15 16
M  V30 16 1 16 17
M  V30 17 2 17 18
M  V30 18 1 18 19
M  V30 19 2 19 20
M  V30 20 1 20 21
M  V30 21 2 21 22
M  V30 22 2 13 23
M  V30 23 1 7 24
M  V30 24 1 24 25
M  V30 25 1 25 26
M  V30 26 1 26 5
M  V30 27 1 23 8
M  V30 28 1 22 14
M  V30 29 1 22 17
M  V30 30 1 1 27
M  V30 31 1 1 28
M  V30 32 1 1 29
M  V30 33 1 2 30
M  V30 34 1 3 31
M  V30 35 1 3 32
M  V30 36 1 3 33
M  V30 37 1 4 34
M  V30 38 1 4 35
M  V30 39 1 5 36 CFG=3
M  V30 40 1 6 37
M  V30 41 1 6 38
M  V30 42 1 9 39
M  V30 43 1 10 40
M  V30 44 1 16 41
M  V30 45 1 19 42
M  V30 46 1 20 43
M  V30 47 1 21 44
M  V30 48 1 24 45
M  V30 49 1 24 46
M  V30 50 1 25 47
M  V30 51 1 25 48
M  V30 52 1 26 49
M  V30 END BOND
M  V30 END CTAB
M  END
>  <Dataset>  (282) 
ChEMBL_Kinases

>  <Ligand_Instance>  (282) 
nan

>  <PDB_ID>  (282) 
nan

>  <Standardized_SMILES>  (282) 
CC(C)C[C@H]1CN(c2ccc(F)c(-c3n[nH]c4ncccc34)n2)CCN1

>  <Name>  (282) 
nan

>  <Pocket>  (282) 
nan

>  <ATP_Site>  (282) 
nan

>  <Peripheral>  (282) 
nan

>  <Num_H_Atoms_ProtBoundConf>  (282) 
nan

>  <Num_Resolved_Atoms>  (282) 
nan

>  <Num_Not_Resolved_Atoms>  (282) 
nan

$$$$
CHEMBL3699680
     RDKit          3D

  0  0  0  0  0  0  0  0  0  0999 V3000
M  V30 BEGIN CTAB
M  V30 COUNTS 50 54 0 0 0
M  V30 BEGIN ATOM
M  V30 1 C 3.176978 -2.659985 7.186068 0
M  V30 2 O 3.813080 -1.565082 6.519500 0
M  V30 3 C 3.375455 -1.102170 5.288128 0
M  V30 4 C 3.966054 -0.040691 4.607082 0
M  V30 5 C 3.510960 0.402154 3.379970 0
M  V30 6 N 2.454150 -0.215391 2.817546 0
M  V30 7 C 1.789776 -0.026203 1.661697 0
M  V30 8 C 2.042881 0.964138 0.626240 0
M  V30 9 C 2.403853 0.682344 -0.674083 0
M  V30 10 C 2.610963 1.730415 -1.548721 0
M  V30 11 C 2.460918 3.041765 -1.134179 0
M  V30 12 C 2.095260 3.342063 0.182288 0
M  V30 13 C 1.889386 2.269925 1.054243 0
M  V30 14 C 0.771404 -0.972296 1.607157 0
M  V30 15 C -0.228444 -1.190320 0.564518 0
M  V30 16 C -1.083367 -0.131661 0.331689 0
M  V30 17 C -2.071372 -0.213054 -0.626089 0
M  V30 18 C -2.268933 -1.333483 -1.400482 0
M  V30 19 C -3.260773 -1.610472 -2.463978 0
M  V30 20 N -2.756989 -2.520072 -3.482727 0
M  V30 21 C -4.560545 -2.232688 -1.930319 0
M  V30 22 C -5.313107 -1.367689 -2.891002 0
M  V30 23 C -4.068948 -0.470643 -2.978197 0
M  V30 24 C -1.393057 -2.398754 -1.151631 0
M  V30 25 C -0.399778 -2.329258 -0.195091 0
M  V30 26 N 0.865223 -1.701551 2.746599 0
M  V30 27 C 1.888547 -1.248787 3.493097 0
M  V30 28 N 2.315276 -1.697622 4.690354 0
M  V30 29 H 2.617788 -2.332779 8.067822 0
M  V30 30 H 2.417574 -3.069450 6.458833 0
M  V30 31 H 3.877246 -3.477568 7.386321 0
M  V30 32 H 4.803893 0.453855 5.045637 0
M  V30 33 H 3.982016 1.228211 2.865780 0
M  V30 34 H 2.508217 -0.362907 -0.948503 0
M  V30 35 H 2.893474 1.444802 -2.560540 0
M  V30 36 H 2.650697 3.769965 -1.911401 0
M  V30 37 H 1.993833 4.385678 0.446346 0
M  V30 38 H 1.611732 2.615761 2.043800 0
M  V30 39 H -1.034944 0.816066 0.876920 0
M  V30 40 H -2.752593 0.594292 -0.830485 0
M  V30 41 H -1.773663 -2.346422 -3.746118 0
M  V30 42 H -2.883626 -3.491637 -3.101745 0
M  V30 43 H -4.630653 -3.312155 -2.047589 0
M  V30 44 H -4.706744 -1.886030 -0.869815 0
M  V30 45 H -6.186258 -0.855856 -2.432739 0
M  V30 46 H -5.481120 -1.875607 -3.855231 0
M  V30 47 H -4.088573 0.380892 -2.298040 0
M  V30 48 H -3.800788 -0.248847 -4.034154 0
M  V30 49 H -1.427908 -3.339432 -1.680915 0
M  V30 50 H 0.287071 -3.137201 0.015401 0
M  V30 END ATOM
M  V30 BEGIN BOND
M  V30 1 1 1 2
M  V30 2 1 2 3
M  V30 3 1 3 4
M  V30 4 2 4 5
M  V30 5 1 5 6
M  V30 6 1 6 7
M  V30 7 1 7 8
M  V30 8 2 8 9
M  V30 9 1 9 10
M  V30 10 2 10 11
M  V30 11 1 11 12
M  V30 12 2 12 13
M  V30 13 2 7 14
M  V30 14 1 14 15
M  V30 15 2 15 16
M  V30 16 1 16 17
M  V30 17 2 17 18
M  V30 18 1 18 19
M  V30 19 1 19 20
M  V30 20 1 19 21
M  V30 21 1 21 22
M  V30 22 1 22 23
M  V30 23 1 18 24
M  V30 24 2 24 25
M  V30 25 1 14 26
M  V30 26 2 26 27
M  V30 27 1 27 28
M  V30 28 2 28 3
M  V30 29 1 27 6
M  V30 30 1 13 8
M  V30 31 1 25 15
M  V30 32 1 23 19
M  V30 33 1 1 29
M  V30 34 1 1 30
M  V30 35 1 1 31
M  V30 36 1 4 32
M  V30 37 1 5 33
M  V30 38 1 9 34
M  V30 39 1 10 35
M  V30 40 1 11 36
M  V30 41 1 12 37
M  V30 42 1 13 38
M  V30 43 1 16 39
M  V30 44 1 17 40
M  V30 45 1 20 41
M  V30 46 1 20 42
M  V30 47 1 21 43
M  V30 48 1 21 44
M  V30 49 1 22 45
M  V30 50 1 22 46
M  V30 51 1 23 47
M  V30 52 1 23 48
M  V30 53 1 24 49
M  V30 54 1 25 50
M  V30 END BOND
M  V30 END CTAB
M  END
>  <Dataset>  (283) 
ChEMBL_Kinases

>  <Ligand_Instance>  (283) 
nan

>  <PDB_ID>  (283) 
nan

>  <Standardized_SMILES>  (283) 
COc1ccn2c(-c3ccccc3)c(-c3ccc(C4(N)CCC4)cc3)nc2n1

>  <Name>  (283) 
nan

>  <Pocket>  (283) 
nan

>  <ATP_Site>  (283) 
nan

>  <Peripheral>  (283) 
nan

>  <Num_H_Atoms_ProtBoundConf>  (283) 
nan

>  <Num_Resolved_Atoms>  (283) 
nan

>  <Num_Not_Resolved_Atoms>  (283) 
nan

$$$$
CHEMBL2326004
     RDKit          3D

  0  0  0  0  0  0  0  0  0  0999 V3000
M  V30 BEGIN CTAB
M  V30 COUNTS 52 55 0 0 0
M  V30 BEGIN ATOM
M  V30 1 C 0.666140 -3.653589 3.579446 0
M  V30 2 C -0.202230 -3.046346 2.472541 0
M  V30 3 C -1.617136 -3.494972 2.679881 0
M  V30 4 C 0.404158 -3.515858 1.191357 0
M  V30 5 C -0.338982 -3.002727 -0.048633 0 CFG=1
M  V30 6 C -0.284383 -1.510874 -0.001673 0
M  V30 7 N 0.081303 -0.909670 -1.293790 0
M  V30 8 C 0.246588 0.506141 -1.292947 0
M  V30 9 C 0.590166 1.213530 -2.425219 0
M  V30 10 C 0.757401 2.582046 -2.457381 0
M  V30 11 C 0.576795 3.313822 -1.303037 0
M  V30 12 F 0.722543 4.656395 -1.255232 0
M  V30 13 C 0.233114 2.606008 -0.170489 0
M  V30 14 C 0.025564 3.314754 1.089017 0
M  V30 15 N 0.135565 4.647150 1.287345 0
M  V30 16 N -0.126058 4.925471 2.562354 0
M  V30 17 C -0.413119 3.792192 3.232345 0
M  V30 18 N -0.743611 3.503815 4.518456 0
M  V30 19 C -0.980756 2.237099 4.904306 0
M  V30 20 C -0.906820 1.150606 4.033397 0
M  V30 21 C -0.565623 1.467295 2.715195 0
M  V30 22 C -0.319603 2.752324 2.300136 0
M  V30 23 N 0.088596 1.272178 -0.219265 0
M  V30 24 C 0.292455 -1.600455 -2.571297 0
M  V30 25 C 0.018024 -3.073059 -2.445878 0 CFG=1
M  V30 26 C 0.953843 -3.775681 -3.440604 0
M  V30 27 N 0.320484 -3.610375 -1.161685 0
M  V30 28 H 0.433773 -4.739592 3.597822 0
M  V30 29 H 0.499394 -3.176743 4.557627 0
M  V30 30 H 1.717507 -3.553914 3.224479 0
M  V30 31 H -0.167334 -1.944199 2.594098 0
M  V30 32 H -1.923946 -4.348548 2.061122 0
M  V30 33 H -1.786137 -3.798848 3.747863 0
M  V30 34 H -2.334892 -2.644875 2.536062 0
M  V30 35 H 1.456427 -3.165248 1.172695 0
M  V30 36 H 0.434007 -4.628298 1.221759 0
M  V30 37 H -1.394261 -3.379261 0.056630 0
M  V30 38 H -1.325335 -1.135919 0.222310 0
M  V30 39 H 0.434669 -1.144888 0.736796 0
M  V30 40 H 0.748095 0.693914 -3.373530 0
M  V30 41 H 1.031363 3.111639 -3.377486 0
M  V30 42 H -0.136944 5.840227 3.072738 0
M  V30 43 H -1.249755 1.982142 5.940820 0
M  V30 44 H -1.092834 0.138966 4.326952 0
M  V30 45 H -0.500396 0.655545 2.021561 0
M  V30 46 H -0.292903 -1.122482 -3.370722 0
M  V30 47 H 1.372512 -1.439306 -2.805107 0
M  V30 48 H -1.028605 -3.268822 -2.757218 0
M  V30 49 H 1.974511 -3.587843 -3.025966 0
M  V30 50 H 0.679487 -4.836458 -3.429870 0
M  V30 51 H 0.895542 -3.317550 -4.448610 0
M  V30 52 H 1.305976 -3.833407 -0.997780 0
M  V30 END ATOM
M  V30 BEGIN BOND
M  V30 1 1 1 2
M  V30 2 1 2 3
M  V30 3 1 2 4
M  V30 4 1 4 5
M  V30 5 1 5 6
M  V30 6 1 6 7
M  V30 7 1 7 8
M  V30 8 2 8 9
M  V30 9 1 9 10
M  V30 10 2 10 11
M  V30 11 1 11 12
M  V30 12 1 11 13
M  V30 13 1 13 14
M  V30 14 2 14 15
M  V30 15 1 15 16
M  V30 16 1 16 17
M  V30 17 2 17 18
M  V30 18 1 18 19
M  V30 19 2 19 20
M  V30 20 1 20 21
M  V30 21 2 21 22
M  V30 22 2 13 23
M  V30 23 1 7 24
M  V30 24 1 24 25
M  V30 25 1 25 26
M  V30 26 1 25 27
M  V30 27 1 27 5
M  V30 28 1 23 8
M  V30 29 1 22 14
M  V30 30 1 22 17
M  V30 31 1 1 28
M  V30 32 1 1 29
M  V30 33 1 1 30
M  V30 34 1 2 31
M  V30 35 1 3 32
M  V30 36 1 3 33
M  V30 37 1 3 34
M  V30 38 1 4 35
M  V30 39 1 4 36
M  V30 40 1 5 37 CFG=1
M  V30 41 1 6 38
M  V30 42 1 6 39
M  V30 43 1 9 40
M  V30 44 1 10 41
M  V30 45 1 16 42
M  V30 46 1 19 43
M  V30 47 1 20 44
M  V30 48 1 21 45
M  V30 49 1 24 46
M  V30 50 1 24 47
M  V30 51 1 25 48 CFG=3
M  V30 52 1 26 49
M  V30 53 1 26 50
M  V30 54 1 26 51
M  V30 55 1 27 52
M  V30 END BOND
M  V30 END CTAB
M  END
>  <Dataset>  (284) 
ChEMBL_Kinases

>  <Ligand_Instance>  (284) 
nan

>  <PDB_ID>  (284) 
nan

>  <Standardized_SMILES>  (284) 
CC(C)C[C@H]1CN(c2ccc(F)c(-c3n[nH]c4ncccc34)n2)C[C@@H](C)N1

>  <Name>  (284) 
nan

>  <Pocket>  (284) 
nan

>  <ATP_Site>  (284) 
nan

>  <Peripheral>  (284) 
nan

>  <Num_H_Atoms_ProtBoundConf>  (284) 
nan

>  <Num_Resolved_Atoms>  (284) 
nan

>  <Num_Not_Resolved_Atoms>  (284) 
nan

$$$$
CHEMBL3699679
     RDKit          3D

  0  0  0  0  0  0  0  0  0  0999 V3000
M  V30 BEGIN CTAB
M  V30 COUNTS 54 59 0 0 0
M  V30 BEGIN ATOM
M  V30 1 N -2.233026 -5.398632 -2.562863 0
M  V30 2 C -1.572315 -5.584844 -1.260123 0
M  V30 3 C -1.018683 -4.355484 -0.715067 0
M  V30 4 C -0.441959 -3.563686 -1.693814 0
M  V30 5 C 0.155270 -2.338942 -1.428180 0
M  V30 6 C 0.198910 -1.847688 -0.138889 0
M  V30 7 C 0.805624 -0.580350 0.205735 0
M  V30 8 N 2.118505 -0.400796 -0.034396 0
M  V30 9 C 2.489834 0.840919 0.356062 0
M  V30 10 C 3.700990 1.511344 0.329178 0
M  V30 11 C 3.741257 2.809826 0.819785 0
M  V30 12 C 2.573953 3.364192 1.308092 0
M  V30 13 N 2.648550 4.698195 1.804770 0
M  V30 14 C 3.295005 5.171503 2.885796 0
M  V30 15 C 3.050474 6.542812 2.927842 0
M  V30 16 C 2.247665 6.849722 1.845690 0
M  V30 17 N 2.034852 5.688201 1.197261 0
M  V30 18 C 1.356589 2.681091 1.331578 0
M  V30 19 N 1.380091 1.427409 0.843155 0
M  V30 20 C 0.330282 0.586450 0.766810 0
M  V30 21 C -1.048186 0.722474 1.144093 0
M  V30 22 C -1.357666 0.964561 2.487981 0
M  V30 23 C -2.686621 1.101976 2.890331 0
M  V30 24 C -3.684051 0.995345 1.943770 0
M  V30 25 C -3.368574 0.756760 0.622417 0
M  V30 26 C -2.058567 0.616842 0.199509 0
M  V30 27 C -0.372401 -2.624720 0.853938 0
M  V30 28 C -0.958036 -3.836330 0.559714 0
M  V30 29 C -0.677479 -6.795055 -1.348843 0
M  V30 30 C -1.785945 -7.666207 -0.739344 0
M  V30 31 C -2.425331 -6.351716 -0.278783 0
M  V30 32 H -1.463804 -5.440344 -3.272629 0
M  V30 33 H -2.550963 -4.401022 -2.556661 0
M  V30 34 H -0.384367 -3.788659 -2.753341 0
M  V30 35 H 0.614998 -1.692899 -2.161915 0
M  V30 36 H 4.579848 1.051795 -0.054524 0
M  V30 37 H 4.667714 3.364802 0.815462 0
M  V30 38 H 3.878121 4.540918 3.553482 0
M  V30 39 H 3.483464 7.150953 3.736460 0
M  V30 40 H 1.958348 7.869092 1.720103 0
M  V30 41 H 0.463174 3.153300 1.723721 0
M  V30 42 H -0.559975 1.045538 3.219524 0
M  V30 43 H -2.914578 1.288869 3.931177 0
M  V30 44 H -4.694957 1.110735 2.313746 0
M  V30 45 H -4.210404 0.683573 -0.076418 0
M  V30 46 H -1.822453 0.432277 -0.825667 0
M  V30 47 H -0.364176 -2.289413 1.863327 0
M  V30 48 H -1.413501 -4.470154 1.305522 0
M  V30 49 H 0.192888 -6.837267 -0.692016 0
M  V30 50 H -0.464326 -7.148090 -2.378871 0
M  V30 51 H -1.461045 -8.338595 0.062414 0
M  V30 52 H -2.383223 -8.230950 -1.474552 0
M  V30 53 H -2.189687 -6.232959 0.792667 0
M  V30 54 H -3.509147 -6.330124 -0.505515 0
M  V30 END ATOM
M  V30 BEGIN BOND
M  V30 1 1 1 2
M  V30 2 1 2 3
M  V30 3 2 3 4
M  V30 4 1 4 5
M  V30 5 2 5 6
M  V30 6 1 6 7
M  V30 7 1 7 8
M  V30 8 2 8 9
M  V30 9 1 9 10
M  V30 10 2 10 11
M  V30 11 1 11 12
M  V30 12 1 12 13
M  V30 13 1 13 14
M  V30 14 2 14 15
M  V30 15 1 15 16
M  V30 16 2 16 17
M  V30 17 2 12 18
M  V30 18 1 18 19
M  V30 19 1 19 20
M  V30 20 1 20 21
M  V30 21 2 21 22
M  V30 22 1 22 23
M  V30 23 2 23 24
M  V30 24 1 24 25
M  V30 25 2 25 26
M  V30 26 1 6 27
M  V30 27 2 27 28
M  V30 28 1 2 29
M  V30 29 1 29 30
M  V30 30 1 30 31
M  V30 31 1 31 2
M  V30 32 1 28 3
M  V30 33 2 20 7
M  V30 34 1 26 21
M  V30 35 1 19 9
M  V30 36 1 17 13
M  V30 37 1 1 32
M  V30 38 1 1 33
M  V30 39 1 4 34
M  V30 40 1 5 35
M  V30 41 1 10 36
M  V30 42 1 11 37
M  V30 43 1 14 38
M  V30 44 1 15 39
M  V30 45 1 16 40
M  V30 46 1 18 41
M  V30 47 1 22 42
M  V30 48 1 23 43
M  V30 49 1 24 44
M  V30 50 1 25 45
M  V30 51 1 26 46
M  V30 52 1 27 47
M  V30 53 1 28 48
M  V30 54 1 29 49
M  V30 55 1 29 50
M  V30 56 1 30 51
M  V30 57 1 30 52
M  V30 58 1 31 53
M  V30 59 1 31 54
M  V30 END BOND
M  V30 END CTAB
M  END
>  <Dataset>  (285) 
ChEMBL_Kinases

>  <Ligand_Instance>  (285) 
nan

>  <PDB_ID>  (285) 
nan

>  <Standardized_SMILES>  (285) 
NC1(c2ccc(-c3nc4ccc(-n5cccn5)cn4c3-c3ccccc3)cc2)CCC1

>  <Name>  (285) 
nan

>  <Pocket>  (285) 
nan

>  <ATP_Site>  (285) 
nan

>  <Peripheral>  (285) 
nan

>  <Num_H_Atoms_ProtBoundConf>  (285) 
nan

>  <Num_Resolved_Atoms>  (285) 
nan

>  <Num_Not_Resolved_Atoms>  (285) 
nan

$$$$
CHEMBL2326009
     RDKit          3D

  0  0  0  0  0  0  0  0  0  0999 V3000
M  V30 BEGIN CTAB
M  V30 COUNTS 53 56 0 0 0
M  V30 BEGIN ATOM
M  V30 1 C 1.961278 -2.860056 3.931182 0
M  V30 2 C 2.513313 -1.470140 3.860770 0
M  V30 3 C 1.901317 -0.687425 5.021363 0
M  V30 4 C 2.110882 -0.736721 2.597221 0 CFG=2
M  V30 5 C 2.751790 0.630756 2.700560 0
M  V30 6 O 0.749908 -0.568289 2.670583 0
M  V30 7 C 2.596507 -1.395739 1.356893 0 CFG=2
M  V30 8 C 2.481164 -0.461695 0.191147 0
M  V30 9 N 1.162375 -0.533584 -0.399316 0
M  V30 10 C 0.246342 0.537352 -0.560086 0
M  V30 11 C 0.589452 1.841061 -0.286067 0
M  V30 12 C -0.335854 2.850475 -0.449559 0
M  V30 13 C -1.577865 2.452659 -0.892015 0
M  V30 14 F -2.507929 3.451365 -1.058429 0
M  V30 15 C -1.947305 1.142687 -1.175240 0
M  V30 16 C -3.302215 0.876863 -1.634004 0
M  V30 17 N -4.269796 1.822973 -1.821121 0
M  V30 18 N -5.368676 1.225112 -2.239306 0
M  V30 19 C -5.222117 -0.106927 -2.357170 0
M  V30 20 N -5.993978 -1.124016 -2.724111 0
M  V30 21 C -5.529166 -2.387285 -2.733451 0
M  V30 22 C -4.217559 -2.692460 -2.359576 0
M  V30 23 C -3.450173 -1.606778 -1.985581 0
M  V30 24 C -3.897428 -0.307050 -1.966294 0
M  V30 25 N -0.991009 0.215260 -0.991545 0
M  V30 26 C 0.890503 -1.872311 -0.827536 0
M  V30 27 C 0.998890 -2.886842 0.271978 0
M  V30 28 N 2.094461 -2.716704 1.145320 0
M  V30 29 H 2.621035 -3.633746 3.491813 0
M  V30 30 H 1.916886 -3.111398 5.030734 0
M  V30 31 H 0.913786 -2.913021 3.594668 0
M  V30 32 H 3.594648 -1.468887 3.993218 0
M  V30 33 H 1.174412 0.082310 4.672309 0
M  V30 34 H 2.686931 -0.121606 5.586434 0
M  V30 35 H 1.313179 -1.344208 5.702279 0
M  V30 36 H 3.784443 0.647675 2.259707 0
M  V30 37 H 2.902807 0.922090 3.769956 0
M  V30 38 H 2.123666 1.435267 2.267542 0
M  V30 39 H 0.215309 -0.921541 1.945372 0
M  V30 40 H 3.706972 -1.540972 1.523477 0
M  V30 41 H 2.721860 0.545752 0.537903 0
M  V30 42 H 3.242064 -0.830099 -0.564367 0
M  V30 43 H 1.559111 2.124621 0.053102 0
M  V30 44 H -0.130843 3.891446 -0.252410 0
M  V30 45 H -6.277100 1.728060 -2.462398 0
M  V30 46 H -6.159816 -3.236712 -3.035598 0
M  V30 47 H -3.830966 -3.706157 -2.362789 0
M  V30 48 H -2.440973 -1.814226 -1.693927 0
M  V30 49 H -0.102900 -1.928248 -1.273493 0
M  V30 50 H 1.635897 -2.083964 -1.650418 0
M  V30 51 H 0.033348 -3.022505 0.801878 0
M  V30 52 H 1.142156 -3.877114 -0.256110 0
M  V30 53 H 2.803040 -3.469341 1.102110 0
M  V30 END ATOM
M  V30 BEGIN BOND
M  V30 1 1 1 2
M  V30 2 1 2 3
M  V30 3 1 2 4
M  V30 4 1 4 5
M  V30 5 1 4 6 CFG=3
M  V30 6 1 4 7
M  V30 7 1 7 8
M  V30 8 1 8 9
M  V30 9 1 9 10
M  V30 10 2 10 11
M  V30 11 1 11 12
M  V30 12 2 12 13
M  V30 13 1 13 14
M  V30 14 1 13 15
M  V30 15 1 15 16
M  V30 16 2 16 17
M  V30 17 1 17 18
M  V30 18 1 18 19
M  V30 19 2 19 20
M  V30 20 1 20 21
M  V30 21 2 21 22
M  V30 22 1 22 23
M  V30 23 2 23 24
M  V30 24 2 15 25
M  V30 25 1 9 26
M  V30 26 1 26 27
M  V30 27 1 27 28
M  V30 28 1 28 7
M  V30 29 1 25 10
M  V30 30 1 24 16
M  V30 31 1 24 19
M  V30 32 1 1 29
M  V30 33 1 1 30
M  V30 34 1 1 31
M  V30 35 1 2 32
M  V30 36 1 3 33
M  V30 37 1 3 34
M  V30 38 1 3 35
M  V30 39 1 5 36
M  V30 40 1 5 37
M  V30 41 1 5 38
M  V30 42 1 6 39
M  V30 43 1 7 40 CFG=1
M  V30 44 1 8 41
M  V30 45 1 8 42
M  V30 46 1 11 43
M  V30 47 1 12 44
M  V30 48 1 18 45
M  V30 49 1 21 46
M  V30 50 1 22 47
M  V30 51 1 23 48
M  V30 52 1 26 49
M  V30 53 1 26 50
M  V30 54 1 27 51
M  V30 55 1 27 52
M  V30 56 1 28 53
M  V30 END BOND
M  V30 END CTAB
M  END
>  <Dataset>  (286) 
ChEMBL_Kinases

>  <Ligand_Instance>  (286) 
nan

>  <PDB_ID>  (286) 
nan

>  <Standardized_SMILES>  (286) 
CC(C)[C@](C)(O)[C@@H]1CN(c2ccc(F)c(-c3n[nH]c4ncccc34)n2)CCN1

>  <Name>  (286) 
nan

>  <Pocket>  (286) 
nan

>  <ATP_Site>  (286) 
nan

>  <Peripheral>  (286) 
nan

>  <Num_H_Atoms_ProtBoundConf>  (286) 
nan

>  <Num_Resolved_Atoms>  (286) 
nan

>  <Num_Not_Resolved_Atoms>  (286) 
nan

$$$$
CHEMBL220547
     RDKit          3D

  0  0  0  0  0  0  0  0  0  0999 V3000
M  V30 BEGIN CTAB
M  V30 COUNTS 48 50 0 0 0
M  V30 BEGIN ATOM
M  V30 1 C 3.763761 -3.307997 -5.152190 0
M  V30 2 S 3.314218 -3.534208 -3.449750 0
M  V30 3 O 2.374406 -4.680724 -3.346943 0
M  V30 4 O 4.542122 -3.891377 -2.630564 0
M  V30 5 C 2.655236 -2.044381 -2.813492 0
M  V30 6 C 3.405423 -1.073921 -2.187339 0
M  V30 7 C 2.739827 0.064882 -1.730442 0
M  V30 8 C 1.381768 0.186009 -1.913393 0
M  V30 9 C 0.639543 1.387897 -1.429073 0
M  V30 10 N 0.142134 1.162989 -0.094403 0
M  V30 11 C 0.835330 1.174762 1.128712 0
M  V30 12 O 2.069116 1.409477 1.118546 0
M  V30 13 C 0.166424 0.922825 2.405222 0
M  V30 14 C 0.892817 0.937983 3.577146 0
M  V30 15 C 0.161134 0.689761 4.718214 0
M  V30 16 N 0.842660 0.687231 5.968889 0
M  V30 17 C -1.209022 0.434150 4.769834 0
M  V30 18 C -1.925501 0.184092 5.957943 0
M  V30 19 N -2.531212 -0.019421 6.926883 0
M  V30 20 C -1.856171 0.439785 3.535618 0
M  V30 21 C -3.309687 0.187234 3.422569 0
M  V30 22 C -4.221632 0.923413 4.138445 0
M  V30 23 C -5.553554 0.627218 3.972499 0
M  V30 24 S -5.538482 -0.767531 2.739273 0
M  V30 25 C -3.746140 -0.795983 2.585713 0
M  V30 26 C -3.025197 -1.707358 1.732027 0
M  V30 27 O -2.457313 -2.707387 2.500680 0
M  V30 28 N -1.156560 0.682324 2.391446 0
M  V30 29 C 0.632577 -0.792425 -2.543656 0
M  V30 30 C 1.282905 -1.939577 -3.007457 0
M  V30 31 H 2.883783 -3.640078 -5.761742 0
M  V30 32 H 4.612636 -3.967556 -5.429870 0
M  V30 33 H 3.975988 -2.234251 -5.384349 0
M  V30 34 H 4.473067 -1.237545 -2.078915 0
M  V30 35 H 3.328309 0.826386 -1.240789 0
M  V30 36 H -0.174889 1.583957 -2.124075 0
M  V30 37 H 1.326391 2.260903 -1.453319 0
M  V30 38 H -0.894974 0.958586 -0.002563 0
M  V30 39 H 1.943314 1.126635 3.609920 0
M  V30 40 H 0.515015 1.494864 6.544374 0
M  V30 41 H 1.576717 0.025440 6.353940 0
M  V30 42 H -3.986662 1.722272 4.825732 0
M  V30 43 H -6.437930 1.049526 4.407969 0
M  V30 44 H -3.723744 -2.165974 1.004470 0
M  V30 45 H -2.288063 -1.134403 1.137070 0
M  V30 46 H -1.910246 -3.340823 1.959027 0
M  V30 47 H -0.445917 -0.671409 -2.677031 0
M  V30 48 H 0.660302 -2.663487 -3.486080 0
M  V30 END ATOM
M  V30 BEGIN BOND
M  V30 1 1 1 2
M  V30 2 2 2 3
M  V30 3 2 2 4
M  V30 4 1 2 5
M  V30 5 2 5 6
M  V30 6 1 6 7
M  V30 7 2 7 8
M  V30 8 1 8 9
M  V30 9 1 9 10
M  V30 10 1 10 11
M  V30 11 2 11 12
M  V30 12 1 11 13
M  V30 13 2 13 14
M  V30 14 1 14 15
M  V30 15 1 15 16
M  V30 16 2 15 17
M  V30 17 1 17 18
M  V30 18 3 18 19
M  V30 19 1 17 20
M  V30 20 1 20 21
M  V30 21 1 21 22
M  V30 22 2 22 23
M  V30 23 1 23 24
M  V30 24 1 24 25
M  V30 25 1 25 26
M  V30 26 1 26 27
M  V30 27 2 20 28
M  V30 28 1 8 29
M  V30 29 2 29 30
M  V30 30 1 30 5
M  V30 31 1 28 13
M  V30 32 2 25 21
M  V30 33 1 1 31
M  V30 34 1 1 32
M  V30 35 1 1 33
M  V30 36 1 6 34
M  V30 37 1 7 35
M  V30 38 1 9 36
M  V30 39 1 9 37
M  V30 40 1 10 38
M  V30 41 1 14 39
M  V30 42 1 16 40
M  V30 43 1 16 41
M  V30 44 1 22 42
M  V30 45 1 23 43
M  V30 46 1 26 44
M  V30 47 1 26 45
M  V30 48 1 27 46
M  V30 49 1 29 47
M  V30 50 1 30 48
M  V30 END BOND
M  V30 END CTAB
M  END
>  <Dataset>  (287) 
ChEMBL_Kinases

>  <Ligand_Instance>  (287) 
nan

>  <PDB_ID>  (287) 
nan

>  <Standardized_SMILES>  (287) 
CS(=O)(=O)c1ccc(CNC(=O)c2cc(N)c(C#N)c(-c3ccsc3CO)n2)cc1

>  <Name>  (287) 
nan

>  <Pocket>  (287) 
nan

>  <ATP_Site>  (287) 
nan

>  <Peripheral>  (287) 
nan

>  <Num_H_Atoms_ProtBoundConf>  (287) 
nan

>  <Num_Resolved_Atoms>  (287) 
nan

>  <Num_Not_Resolved_Atoms>  (287) 
nan

$$$$
CHEMBL232601
     RDKit          3D

  0  0  0  0  0  0  0  0  0  0999 V3000
M  V30 BEGIN CTAB
M  V30 COUNTS 48 52 0 0 0
M  V30 BEGIN ATOM
M  V30 1 N 3.185136 -2.234528 3.168534 0
M  V30 2 C 2.167915 -2.109505 2.582937 0
M  V30 3 C 0.915556 -1.939282 1.850736 0
M  V30 4 C 0.930641 -1.356136 0.629648 0
M  V30 5 N 2.022606 -0.839454 -0.132382 0
M  V30 6 C 2.255270 0.552146 0.167394 0
M  V30 7 O 1.436773 0.969641 1.029803 0
M  V30 8 C 3.350643 1.247189 -0.534364 0
M  V30 9 C 4.673535 0.817591 -0.528892 0
M  V30 10 C 5.647689 1.531906 -1.217428 0
M  V30 11 C 5.272719 2.669455 -1.901711 0
M  V30 12 C 3.977083 3.129014 -1.933053 0
M  V30 13 C 3.731870 4.278525 -2.653490 0
M  V30 14 C 2.409181 4.695429 -2.651001 0
M  V30 15 C 1.381135 4.032649 -1.985855 0
M  V30 16 C 1.716513 2.885559 -1.286530 0
M  V30 17 C 3.024064 2.409114 -1.245293 0
M  V30 18 S -0.792200 -1.351739 0.109764 0
M  V30 19 C -1.394235 -2.163203 1.637107 0
M  V30 20 C -0.259447 -2.355192 2.377146 0
M  V30 21 C -0.642091 -3.016277 3.653420 0
M  V30 22 C -1.798391 -2.273065 4.321525 0
M  V30 23 C -3.038894 -2.525333 3.480161 0
M  V30 24 N -2.696057 -2.555163 2.076329 0
M  V30 25 C -3.563600 -2.954684 1.049885 0
M  V30 26 O -3.323920 -3.004419 -0.178117 0
M  V30 27 C -4.902834 -3.443525 0.675361 0
M  V30 28 C -5.776070 -4.131495 1.697301 0
M  V30 29 C -6.094759 -2.710314 1.369535 0
M  V30 30 H 2.597235 -1.377840 -0.825921 0
M  V30 31 H 4.901462 -0.089658 0.031623 0
M  V30 32 H 6.674579 1.180353 -1.201861 0
M  V30 33 H 6.094367 3.169654 -2.414087 0
M  V30 34 H 4.468671 4.836811 -3.185748 0
M  V30 35 H 2.082995 5.594217 -3.185404 0
M  V30 36 H 0.363823 4.398598 -2.014444 0
M  V30 37 H 0.921948 2.367096 -0.767631 0
M  V30 38 H 0.199344 -2.986142 4.397813 0
M  V30 39 H -0.967737 -4.051831 3.427638 0
M  V30 40 H -1.953291 -2.751269 5.294386 0
M  V30 41 H -1.564495 -1.204080 4.412646 0
M  V30 42 H -3.757123 -1.716810 3.746385 0
M  V30 43 H -3.465324 -3.488004 3.807150 0
M  V30 44 H -5.077269 -3.626728 -0.413925 0
M  V30 45 H -5.360698 -4.413219 2.666079 0
M  V30 46 H -6.469780 -4.906588 1.280367 0
M  V30 47 H -6.959699 -2.451479 0.734867 0
M  V30 48 H -5.800814 -1.905196 2.076321 0
M  V30 END ATOM
M  V30 BEGIN BOND
M  V30 1 3 1 2
M  V30 2 1 2 3
M  V30 3 2 3 4
M  V30 4 1 4 5
M  V30 5 1 5 6
M  V30 6 2 6 7
M  V30 7 1 6 8
M  V30 8 2 8 9
M  V30 9 1 9 10
M  V30 10 2 10 11
M  V30 11 1 11 12
M  V30 12 2 12 13
M  V30 13 1 13 14
M  V30 14 2 14 15
M  V30 15 1 15 16
M  V30 16 2 16 17
M  V30 17 1 4 18
M  V30 18 1 18 19
M  V30 19 2 19 20
M  V30 20 1 20 21
M  V30 21 1 21 22
M  V30 22 1 22 23
M  V30 23 1 23 24
M  V30 24 1 24 25
M  V30 25 2 25 26
M  V30 26 1 25 27
M  V30 27 1 27 28
M  V30 28 1 28 29
M  V30 29 1 20 3
M  V30 30 1 29 27
M  V30 31 1 17 8
M  V30 32 1 24 19
M  V30 33 1 17 12
M  V30 34 1 5 30
M  V30 35 1 9 31
M  V30 36 1 10 32
M  V30 37 1 11 33
M  V30 38 1 13 34
M  V30 39 1 14 35
M  V30 40 1 15 36
M  V30 41 1 16 37
M  V30 42 1 21 38
M  V30 43 1 21 39
M  V30 44 1 22 40
M  V30 45 1 22 41
M  V30 46 1 23 42
M  V30 47 1 23 43
M  V30 48 1 27 44
M  V30 49 1 28 45
M  V30 50 1 28 46
M  V30 51 1 29 47
M  V30 52 1 29 48
M  V30 END BOND
M  V30 END CTAB
M  END
>  <Dataset>  (288) 
ChEMBL_Kinases

>  <Ligand_Instance>  (288) 
nan

>  <PDB_ID>  (288) 
nan

>  <Standardized_SMILES>  (288) 
N#Cc1c(NC(=O)c2cccc3ccccc23)sc2c1CCCN2C(=O)C1CC1

>  <Name>  (288) 
GW846105X

>  <Pocket>  (288) 
nan

>  <ATP_Site>  (288) 
nan

>  <Peripheral>  (288) 
nan

>  <Num_H_Atoms_ProtBoundConf>  (288) 
nan

>  <Num_Resolved_Atoms>  (288) 
nan

>  <Num_Not_Resolved_Atoms>  (288) 
nan

$$$$
CHEMBL4524153
     RDKit          3D

  0  0  0  0  0  0  0  0  0  0999 V3000
M  V30 BEGIN CTAB
M  V30 COUNTS 50 53 0 0 0
M  V30 BEGIN ATOM
M  V30 1 C 1.273904 -2.853580 6.886255 0
M  V30 2 C 2.185964 -3.724323 6.028996 0
M  V30 3 O 1.728794 -3.782546 4.691784 0
M  V30 4 C 1.600465 -2.652454 3.897011 0
M  V30 5 N 1.878309 -1.386137 4.259231 0
M  V30 6 C 1.619194 -0.582390 3.195214 0
M  V30 7 C 1.734644 0.787517 3.036876 0
M  V30 8 C 1.387317 1.318623 1.810377 0
M  V30 9 C 0.943258 0.487142 0.795169 0
M  V30 10 C 0.605239 1.135223 -0.446655 0
M  V30 11 C 0.338479 1.690569 -1.487138 0
M  V30 12 C 0.000360 2.379462 -2.734920 0 CFG=1
M  V30 13 C 1.003689 3.474421 -2.927250 0
M  V30 14 O 0.097649 1.527353 -3.837098 0
M  V30 15 C -1.397821 2.880098 -2.708832 0
M  V30 16 N -2.091581 3.282412 -1.603997 0
M  V30 17 C -3.335774 3.667304 -2.010811 0
M  V30 18 C -3.372211 3.487995 -3.374875 0
M  V30 19 C -4.605909 3.824220 -4.100572 0
M  V30 20 O -2.216400 3.028174 -3.722485 0
M  V30 21 C 0.838345 -0.876248 0.982440 0
M  V30 22 C 1.181509 -1.423822 2.202593 0
M  V30 23 N 1.165305 -2.708518 2.624531 0
M  V30 24 C 0.764689 -3.833267 1.845853 0
M  V30 25 C 0.238512 -4.977030 2.418189 0
M  V30 26 C -0.118258 -6.010084 1.574159 0
M  V30 27 N 0.022719 -5.951514 0.234954 0
M  V30 28 C 0.544057 -4.813707 -0.310285 0
M  V30 29 N 0.753899 -4.603617 -1.716296 0
M  V30 30 N 0.896665 -3.799207 0.492780 0
M  V30 31 H 0.235458 -2.869457 6.458836 0
M  V30 32 H 1.293195 -3.126712 7.947732 0
M  V30 33 H 1.585254 -1.783504 6.816783 0
M  V30 34 H 2.177700 -4.717907 6.507532 0
M  V30 35 H 3.211426 -3.306685 6.020910 0
M  V30 36 H 2.081396 1.437159 3.829484 0
M  V30 37 H 1.482400 2.390203 1.700724 0
M  V30 38 H 0.735081 3.998538 -3.874114 0
M  V30 39 H 1.069185 4.178338 -2.080623 0
M  V30 40 H 1.988880 2.977652 -3.109570 0
M  V30 41 H -0.476061 1.775342 -4.579048 0
M  V30 42 H -3.978117 4.008112 -1.212622 0
M  V30 43 H -4.924181 4.874193 -3.957400 0
M  V30 44 H -4.487821 3.624488 -5.193224 0
M  V30 45 H -5.435309 3.196318 -3.672702 0
M  V30 46 H 0.482809 -1.444477 0.133875 0
M  V30 47 H 0.120797 -5.033776 3.499018 0
M  V30 48 H -0.535227 -6.928128 1.971824 0
M  V30 49 H 1.306588 -5.441320 -2.024879 0
M  V30 50 H 1.303057 -5.441885 -2.008468 0
M  V30 END ATOM
M  V30 BEGIN BOND
M  V30 1 1 1 2
M  V30 2 1 2 3
M  V30 3 1 3 4
M  V30 4 2 4 5
M  V30 5 1 5 6
M  V30 6 2 6 7
M  V30 7 1 7 8
M  V30 8 2 8 9
M  V30 9 1 9 10
M  V30 10 3 10 11
M  V30 11 1 12 11 CFG=1
M  V30 12 1 12 13
M  V30 13 1 12 14
M  V30 14 1 12 15
M  V30 15 2 15 16
M  V30 16 1 16 17
M  V30 17 2 17 18
M  V30 18 1 18 19
M  V30 19 1 18 20
M  V30 20 1 9 21
M  V30 21 2 21 22
M  V30 22 1 22 23
M  V30 23 1 23 24
M  V30 24 2 24 25
M  V30 25 1 25 26
M  V30 26 2 26 27
M  V30 27 1 27 28
M  V30 28 1 28 29
M  V30 29 2 28 30
M  V30 30 1 23 4
M  V30 31 1 30 24
M  V30 32 1 22 6
M  V30 33 1 20 15
M  V30 34 1 1 31
M  V30 35 1 1 32
M  V30 36 1 1 33
M  V30 37 1 2 34
M  V30 38 1 2 35
M  V30 39 1 7 36
M  V30 40 1 8 37
M  V30 41 1 13 38
M  V30 42 1 13 39
M  V30 43 1 13 40
M  V30 44 1 14 41
M  V30 45 1 17 42
M  V30 46 1 19 43
M  V30 47 1 19 44
M  V30 48 1 19 45
M  V30 49 1 21 46
M  V30 50 1 25 47
M  V30 51 1 26 48
M  V30 52 1 29 49
M  V30 53 1 29 50
M  V30 END BOND
M  V30 END CTAB
M  END
>  <Dataset>  (289) 
ChEMBL_Kinases

>  <Ligand_Instance>  (289) 
nan

>  <PDB_ID>  (289) 
nan

>  <Standardized_SMILES>  (289) 
CCOc1nc2ccc(C#C[C@@](C)(O)c3ncc(C)o3)cc2n1-c1ccnc(N)n1

>  <Name>  (289) 
nan

>  <Pocket>  (289) 
nan

>  <ATP_Site>  (289) 
nan

>  <Peripheral>  (289) 
nan

>  <Num_H_Atoms_ProtBoundConf>  (289) 
nan

>  <Num_Resolved_Atoms>  (289) 
nan

>  <Num_Not_Resolved_Atoms>  (289) 
nan

$$$$
CHEMBL2326019
     RDKit          3D

  0  0  0  0  0  0  0  0  0  0999 V3000
M  V30 BEGIN CTAB
M  V30 COUNTS 49 52 0 0 0
M  V30 BEGIN ATOM
M  V30 1 C 0.112458 -5.116450 -1.611671 0
M  V30 2 C 0.128201 -3.693129 -2.096488 0
M  V30 3 C -0.636073 -3.652602 -3.431914 0
M  V30 4 C -0.546717 -2.728973 -1.201989 0
M  V30 5 C 0.005389 -2.582739 0.190335 0 CFG=1
M  V30 6 C -0.902033 -1.521494 0.842923 0
M  V30 7 N -0.721322 -1.465448 2.277918 0
M  V30 8 C -0.286003 -0.331864 3.017809 0
M  V30 9 C -0.120049 -0.340245 4.380900 0
M  V30 10 C 0.303002 0.774484 5.072457 0
M  V30 11 C 0.545380 1.890035 4.300273 0
M  V30 12 C 0.388407 1.929325 2.934023 0
M  V30 13 C 0.678369 3.173493 2.233090 0
M  V30 14 N 1.101993 4.340310 2.799704 0
M  V30 15 N 1.263615 5.250992 1.878684 0
M  V30 16 C 0.970424 4.784097 0.654367 0
M  V30 17 N 0.969689 5.295294 -0.600129 0
M  V30 18 C 0.607793 4.535974 -1.663983 0
M  V30 19 C 0.228641 3.211598 -1.486893 0
M  V30 20 C 0.238012 2.715045 -0.198536 0
M  V30 21 C 0.602511 3.472648 0.890456 0
M  V30 22 N -0.027959 0.797885 2.337520 0
M  V30 23 C -1.054826 -2.744804 2.831100 0
M  V30 24 C -0.031514 -3.722576 2.328311 0
M  V30 25 N 0.006125 -3.822230 0.906813 0
M  V30 26 H -0.629603 -5.251822 -0.821058 0
M  V30 27 H -0.230544 -5.807456 -2.446615 0
M  V30 28 H 1.149689 -5.446803 -1.339539 0
M  V30 29 H 1.170884 -3.358026 -2.352257 0
M  V30 30 H -1.689274 -3.957470 -3.195635 0
M  V30 31 H -0.247632 -4.382452 -4.143982 0
M  V30 32 H -0.685389 -2.644466 -3.852001 0
M  V30 33 H -1.631800 -2.966805 -1.096674 0
M  V30 34 H -0.461010 -1.696404 -1.661069 0
M  V30 35 H 1.063660 -2.189347 0.166918 0
M  V30 36 H -1.934370 -1.876223 0.599592 0
M  V30 37 H -0.653024 -0.581789 0.338799 0
M  V30 38 H -0.317592 -1.228821 4.957176 0
M  V30 39 H 0.426820 0.745560 6.145102 0
M  V30 40 H 0.879432 2.786866 4.805550 0
M  V30 41 H 1.583664 6.227649 2.074385 0
M  V30 42 H 0.603244 4.926752 -2.655074 0
M  V30 43 H -0.054722 2.630255 -2.352031 0
M  V30 44 H -0.054189 1.694528 -0.061966 0
M  V30 45 H -2.099284 -3.008100 2.491023 0
M  V30 46 H -1.118798 -2.781681 3.934210 0
M  V30 47 H -0.204166 -4.741189 2.729441 0
M  V30 48 H 0.953274 -3.376304 2.708544 0
M  V30 49 H 0.950117 -4.272530 0.687679 0
M  V30 END ATOM
M  V30 BEGIN BOND
M  V30 1 1 1 2
M  V30 2 1 2 3
M  V30 3 1 2 4
M  V30 4 1 4 5
M  V30 5 1 5 6
M  V30 6 1 6 7
M  V30 7 1 7 8
M  V30 8 2 8 9
M  V30 9 1 9 10
M  V30 10 2 10 11
M  V30 11 1 11 12
M  V30 12 1 12 13
M  V30 13 2 13 14
M  V30 14 1 14 15
M  V30 15 1 15 16
M  V30 16 2 16 17
M  V30 17 1 17 18
M  V30 18 2 18 19
M  V30 19 1 19 20
M  V30 20 2 20 21
M  V30 21 2 12 22
M  V30 22 1 7 23
M  V30 23 1 23 24
M  V30 24 1 24 25
M  V30 25 1 25 5
M  V30 26 1 22 8
M  V30 27 1 21 13
M  V30 28 1 21 16
M  V30 29 1 1 26
M  V30 30 1 1 27
M  V30 31 1 1 28
M  V30 32 1 2 29
M  V30 33 1 3 30
M  V30 34 1 3 31
M  V30 35 1 3 32
M  V30 36 1 4 33
M  V30 37 1 4 34
M  V30 38 1 5 35 CFG=3
M  V30 39 1 6 36
M  V30 40 1 6 37
M  V30 41 1 9 38
M  V30 42 1 10 39
M  V30 43 1 11 40
M  V30 44 1 15 41
M  V30 45 1 18 42
M  V30 46 1 19 43
M  V30 47 1 20 44
M  V30 48 1 23 45
M  V30 49 1 23 46
M  V30 50 1 24 47
M  V30 51 1 24 48
M  V30 52 1 25 49
M  V30 END BOND
M  V30 END CTAB
M  END
>  <Dataset>  (290) 
ChEMBL_Kinases

>  <Ligand_Instance>  (290) 
nan

>  <PDB_ID>  (290) 
nan

>  <Standardized_SMILES>  (290) 
CC(C)C[C@H]1CN(c2cccc(-c3n[nH]c4ncccc34)n2)CCN1

>  <Name>  (290) 
nan

>  <Pocket>  (290) 
nan

>  <ATP_Site>  (290) 
nan

>  <Peripheral>  (290) 
nan

>  <Num_H_Atoms_ProtBoundConf>  (290) 
nan

>  <Num_Resolved_Atoms>  (290) 
nan

>  <Num_Not_Resolved_Atoms>  (290) 
nan

$$$$
CHEMBL3699678
     RDKit          3D

  0  0  0  0  0  0  0  0  0  0999 V3000
M  V30 BEGIN CTAB
M  V30 COUNTS 56 61 0 0 0
M  V30 BEGIN ATOM
M  V30 1 N -1.080077 -3.858452 -4.759436 0
M  V30 2 C -0.025338 -4.257895 -3.819761 0
M  V30 3 C -0.060366 -3.443106 -2.596356 0
M  V30 4 C -0.144813 -2.087140 -2.896278 0
M  V30 5 C -0.192072 -1.112610 -1.898537 0
M  V30 6 C -0.153642 -1.510396 -0.575322 0
M  V30 7 C -0.197787 -0.562985 0.534900 0
M  V30 8 N 0.852210 0.311261 0.543231 0
M  V30 9 C 0.697795 1.137463 1.619550 0
M  V30 10 N 1.404220 2.167631 2.123976 0
M  V30 11 C 1.033118 2.834594 3.222417 0
M  V30 12 N 1.831637 3.912576 3.694959 0
M  V30 13 C 1.731667 4.461527 4.906157 0
M  V30 14 C 2.513367 5.505104 5.347320 0
M  V30 15 C 3.475606 6.044848 4.506859 0
M  V30 16 C 3.600425 5.489610 3.236375 0
M  V30 17 C 2.768689 4.446399 2.891666 0
M  V30 18 O 2.947560 4.002316 1.724197 0
M  V30 19 C -0.126600 2.438004 3.855312 0
M  V30 20 C -0.899682 1.373952 3.374785 0
M  V30 21 N -0.429707 0.776174 2.262291 0
M  V30 22 C -0.998858 -0.263072 1.619729 0
M  V30 23 C -2.172838 -1.066830 1.806666 0
M  V30 24 C -2.400596 -1.849534 2.941273 0
M  V30 25 C -3.511117 -2.635372 3.162679 0
M  V30 26 C -4.449229 -2.612681 2.146643 0
M  V30 27 C -4.330291 -1.880316 0.987026 0
M  V30 28 C -3.180424 -1.122248 0.855229 0
M  V30 29 C -0.069720 -2.857821 -0.274411 0
M  V30 30 C -0.023446 -3.815148 -1.269011 0
M  V30 31 C 0.070713 -5.739520 -3.633144 0
M  V30 32 C 1.141822 -5.798662 -4.721477 0
M  V30 33 C 1.289132 -4.294361 -4.567500 0
M  V30 34 H -0.720285 -3.246271 -5.525462 0
M  V30 35 H -1.792202 -3.292797 -4.239580 0
M  V30 36 H -0.182651 -1.639678 -3.900651 0
M  V30 37 H -0.257647 -0.053065 -2.101548 0
M  V30 38 H 0.998855 4.075208 5.592383 0
M  V30 39 H 2.393912 5.916107 6.339524 0
M  V30 40 H 4.079559 6.865076 4.873748 0
M  V30 41 H 4.346796 5.900833 2.571014 0
M  V30 42 H -0.469762 2.943403 4.745161 0
M  V30 43 H -1.815361 1.051615 3.864331 0
M  V30 44 H -1.622582 -1.827510 3.712319 0
M  V30 45 H -3.611344 -3.209494 4.064718 0
M  V30 46 H -5.344188 -3.225151 2.288482 0
M  V30 47 H -5.099986 -1.904317 0.227898 0
M  V30 48 H -3.095573 -0.549230 -0.060568 0
M  V30 49 H -0.035322 -3.249021 0.733931 0
M  V30 50 H 0.042066 -4.887636 -1.144122 0
M  V30 51 H -0.828149 -6.310059 -3.978067 0
M  V30 52 H 0.469164 -6.130308 -2.699669 0
M  V30 53 H 0.745045 -6.109168 -5.705179 0
M  V30 54 H 2.071587 -6.312763 -4.400492 0
M  V30 55 H 1.286257 -3.748489 -5.535845 0
M  V30 56 H 2.153958 -3.996461 -3.951482 0
M  V30 END ATOM
M  V30 BEGIN BOND
M  V30 1 1 1 2
M  V30 2 1 2 3
M  V30 3 2 3 4
M  V30 4 1 4 5
M  V30 5 2 5 6
M  V30 6 1 6 7
M  V30 7 1 7 8
M  V30 8 2 8 9
M  V30 9 1 9 10
M  V30 10 2 10 11
M  V30 11 1 11 12
M  V30 12 1 12 13
M  V30 13 2 13 14
M  V30 14 1 14 15
M  V30 15 2 15 16
M  V30 16 1 16 17
M  V30 17 2 17 18
M  V30 18 1 11 19
M  V30 19 2 19 20
M  V30 20 1 20 21
M  V30 21 1 21 22
M  V30 22 1 22 23
M  V30 23 2 23 24
M  V30 24 1 24 25
M  V30 25 2 25 26
M  V30 26 1 26 27
M  V30 27 2 27 28
M  V30 28 1 6 29
M  V30 29 2 29 30
M  V30 30 1 2 31
M  V30 31 1 31 32
M  V30 32 1 32 33
M  V30 33 1 33 2
M  V30 34 1 30 3
M  V30 35 2 22 7
M  V30 36 1 28 23
M  V30 37 1 21 9
M  V30 38 1 17 12
M  V30 39 1 1 34
M  V30 40 1 1 35
M  V30 41 1 4 36
M  V30 42 1 5 37
M  V30 43 1 13 38
M  V30 44 1 14 39
M  V30 45 1 15 40
M  V30 46 1 16 41
M  V30 47 1 19 42
M  V30 48 1 20 43
M  V30 49 1 24 44
M  V30 50 1 25 45
M  V30 51 1 26 46
M  V30 52 1 27 47
M  V30 53 1 28 48
M  V30 54 1 29 49
M  V30 55 1 30 50
M  V30 56 1 31 51
M  V30 57 1 31 52
M  V30 58 1 32 53
M  V30 59 1 32 54
M  V30 60 1 33 55
M  V30 61 1 33 56
M  V30 END BOND
M  V30 END CTAB
M  END
>  <Dataset>  (291) 
ChEMBL_Kinases

>  <Ligand_Instance>  (291) 
nan

>  <PDB_ID>  (291) 
nan

>  <Standardized_SMILES>  (291) 
NC1(c2ccc(-c3nc4nc(-n5ccccc5=O)ccn4c3-c3ccccc3)cc2)CCC1

>  <Name>  (291) 
nan

>  <Pocket>  (291) 
nan

>  <ATP_Site>  (291) 
nan

>  <Peripheral>  (291) 
nan

>  <Num_H_Atoms_ProtBoundConf>  (291) 
nan

>  <Num_Resolved_Atoms>  (291) 
nan

>  <Num_Not_Resolved_Atoms>  (291) 
nan

$$$$
CHEMBL3699677
     RDKit          3D

  0  0  0  0  0  0  0  0  0  0999 V3000
M  V30 BEGIN CTAB
M  V30 COUNTS 56 60 0 0 0
M  V30 BEGIN ATOM
M  V30 1 C 5.183093 -3.780255 7.202074 0
M  V30 2 N 5.379081 -3.451146 5.795988 0
M  V30 3 C 4.470821 -2.688070 5.018181 0
M  V30 4 O 3.412944 -2.251754 5.555695 0
M  V30 5 N 4.838441 -2.466241 3.639993 0
M  V30 6 C 3.888245 -1.687489 2.890535 0
M  V30 7 C 3.988786 -0.303747 2.827655 0
M  V30 8 C 3.039055 0.396039 2.086649 0
M  V30 9 N 2.067047 -0.299511 1.465307 0
M  V30 10 C 1.074846 0.222381 0.711570 0
M  V30 11 C 0.692430 1.559725 0.311035 0
M  V30 12 C 0.729522 1.796310 -1.046958 0
M  V30 13 C 0.397145 3.021025 -1.623475 0
M  V30 14 C 0.010074 4.049667 -0.780705 0
M  V30 15 C -0.036368 3.836733 0.600672 0
M  V30 16 C 0.303011 2.601964 1.130046 0
M  V30 17 C 0.287746 -0.831287 0.255929 0
M  V30 18 C -0.908654 -0.933663 -0.581407 0
M  V30 19 C -2.080556 -0.345848 -0.147681 0
M  V30 20 C -3.220865 -0.429990 -0.920368 0
M  V30 21 C -3.251101 -1.097750 -2.153000 0
M  V30 22 C -4.556750 -1.071621 -2.813679 0
M  V30 23 N -5.301912 0.155869 -2.556713 0
M  V30 24 C -5.482264 -2.237950 -2.444219 0
M  V30 25 C -5.964265 -2.211992 -3.871662 0
M  V30 26 C -4.627125 -1.559439 -4.226243 0
M  V30 27 C -2.061481 -1.670912 -2.550638 0
M  V30 28 C -0.909371 -1.598294 -1.792140 0
M  V30 29 N 0.832727 -1.981652 0.753714 0
M  V30 30 C 1.927727 -1.646940 1.497258 0
M  V30 31 C 2.871182 -2.353651 2.234290 0
M  V30 32 H 4.109182 -3.634662 7.461103 0
M  V30 33 H 5.572695 -4.770762 7.473907 0
M  V30 34 H 5.716159 -2.990192 7.788587 0
M  V30 35 H 6.243414 -3.815830 5.383578 0
M  V30 36 H 5.719236 -2.852867 3.266119 0
M  V30 37 H 4.806754 0.150783 3.363540 0
M  V30 38 H 3.114575 1.458463 2.037154 0
M  V30 39 H 1.017348 1.058769 -1.777651 0
M  V30 40 H 0.423443 3.213549 -2.683512 0
M  V30 41 H -0.252727 5.012449 -1.217856 0
M  V30 42 H -0.338782 4.636582 1.272330 0
M  V30 43 H 0.286817 2.376875 2.186984 0
M  V30 44 H -2.061283 0.171037 0.803443 0
M  V30 45 H -4.088951 0.070433 -0.480289 0
M  V30 46 H -5.780819 0.016268 -1.629069 0
M  V30 47 H -4.703910 0.992109 -2.519373 0
M  V30 48 H -6.265476 -1.971886 -1.689398 0
M  V30 49 H -4.865593 -3.114485 -2.163251 0
M  V30 50 H -6.071132 -3.234008 -4.335691 0
M  V30 51 H -6.831821 -1.552593 -4.015061 0
M  V30 52 H -3.888578 -2.321779 -4.465554 0
M  V30 53 H -4.839124 -0.776620 -4.982895 0
M  V30 54 H -2.117902 -2.176754 -3.503233 0
M  V30 55 H -0.009773 -2.068921 -2.160972 0
M  V30 56 H 2.736540 -3.422335 2.242200 0
M  V30 END ATOM
M  V30 BEGIN BOND
M  V30 1 1 1 2
M  V30 2 1 2 3
M  V30 3 2 3 4
M  V30 4 1 3 5
M  V30 5 1 5 6
M  V30 6 1 6 7
M  V30 7 2 7 8
M  V30 8 1 8 9
M  V30 9 1 9 10
M  V30 10 1 10 11
M  V30 11 2 11 12
M  V30 12 1 12 13
M  V30 13 2 13 14
M  V30 14 1 14 15
M  V30 15 2 15 16
M  V30 16 2 10 17
M  V30 17 1 17 18
M  V30 18 2 18 19
M  V30 19 1 19 20
M  V30 20 2 20 21
M  V30 21 1 21 22
M  V30 22 1 22 23
M  V30 23 1 22 24
M  V30 24 1 24 25
M  V30 25 1 25 26
M  V30 26 1 21 27
M  V30 27 2 27 28
M  V30 28 1 17 29
M  V30 29 2 29 30
M  V30 30 1 30 31
M  V30 31 2 31 6
M  V30 32 1 30 9
M  V30 33 1 16 11
M  V30 34 1 28 18
M  V30 35 1 26 22
M  V30 36 1 1 32
M  V30 37 1 1 33
M  V30 38 1 1 34
M  V30 39 1 2 35
M  V30 40 1 5 36
M  V30 41 1 7 37
M  V30 42 1 8 38
M  V30 43 1 12 39
M  V30 44 1 13 40
M  V30 45 1 14 41
M  V30 46 1 15 42
M  V30 47 1 16 43
M  V30 48 1 19 44
M  V30 49 1 20 45
M  V30 50 1 23 46
M  V30 51 1 23 47
M  V30 52 1 24 48
M  V30 53 1 24 49
M  V30 54 1 25 50
M  V30 55 1 25 51
M  V30 56 1 26 52
M  V30 57 1 26 53
M  V30 58 1 27 54
M  V30 59 1 28 55
M  V30 60 1 31 56
M  V30 END BOND
M  V30 END CTAB
M  END
>  <Dataset>  (292) 
ChEMBL_Kinases

>  <Ligand_Instance>  (292) 
nan

>  <PDB_ID>  (292) 
nan

>  <Standardized_SMILES>  (292) 
CNC(=O)Nc1ccn2c(-c3ccccc3)c(-c3ccc(C4(N)CCC4)cc3)nc2c1

>  <Name>  (292) 
nan

>  <Pocket>  (292) 
nan

>  <ATP_Site>  (292) 
nan

>  <Peripheral>  (292) 
nan

>  <Num_H_Atoms_ProtBoundConf>  (292) 
nan

>  <Num_Resolved_Atoms>  (292) 
nan

>  <Num_Not_Resolved_Atoms>  (292) 
nan

$$$$
CHEMBL2326013
     RDKit          3D

  0  0  0  0  0  0  0  0  0  0999 V3000
M  V30 BEGIN CTAB
M  V30 COUNTS 56 59 0 0 0
M  V30 BEGIN ATOM
M  V30 1 C 2.375318 0.253133 2.497147 0
M  V30 2 C 3.440574 -0.728508 2.075532 0
M  V30 3 C 3.099210 -2.117200 2.536702 0
M  V30 4 C 3.952686 -0.581759 0.697731 0 CFG=1
M  V30 5 C 4.551536 0.802938 0.582238 0
M  V30 6 O 5.096254 -1.425741 0.640095 0
M  V30 7 C 3.010762 -0.899141 -0.436898 0 CFG=2
M  V30 8 C 2.027324 0.190438 -0.752392 0
M  V30 9 N 0.656309 -0.243011 -0.868268 0
M  V30 10 C -0.454770 0.349679 -0.259078 0
M  V30 11 C -0.386934 1.570542 0.350354 0
M  V30 12 C -1.484552 2.145039 0.957773 0
M  V30 13 C -2.731320 1.505278 0.982231 0
M  V30 14 C -3.865308 2.195648 1.645781 0
M  V30 15 F -4.915220 2.472592 0.794061 0
M  V30 16 F -4.247256 1.463035 2.758752 0
M  V30 17 F -3.448576 3.418819 2.134934 0
M  V30 18 C -2.754159 0.283389 0.360094 0
M  V30 19 C -4.023137 -0.440821 0.365563 0
M  V30 20 N -5.211672 -0.093530 0.881159 0
M  V30 21 N -6.136591 -1.009069 0.696477 0
M  V30 22 C -5.615025 -2.052574 0.030019 0
M  V30 23 N -6.124967 -3.221443 -0.398640 0
M  V30 24 C -5.357809 -4.114432 -1.060207 0
M  V30 25 C -4.045399 -3.821437 -1.294833 0
M  V30 26 C -3.533000 -2.619977 -0.850876 0
M  V30 27 C -4.293084 -1.684193 -0.170471 0
M  V30 28 N -1.656784 -0.248937 -0.225891 0
M  V30 29 C 0.572735 -1.404268 -1.735590 0
M  V30 30 C 1.240315 -2.505878 -0.954464 0
M  V30 31 N 2.513531 -2.210229 -0.462191 0
M  V30 32 H 2.218549 0.158782 3.598750 0
M  V30 33 H 1.416885 0.020792 2.004179 0
M  V30 34 H 2.637388 1.298996 2.244725 0
M  V30 35 H 4.321631 -0.431346 2.731074 0
M  V30 36 H 2.062513 -2.439603 2.294525 0
M  V30 37 H 3.885714 -2.831616 2.309963 0
M  V30 38 H 3.075473 -2.072339 3.669428 0
M  V30 39 H 5.201918 0.892680 1.503781 0
M  V30 40 H 3.853821 1.627450 0.657776 0
M  V30 41 H 5.280660 0.879788 -0.248215 0
M  V30 42 H 4.826096 -2.369126 0.562678 0
M  V30 43 H 3.715719 -0.893552 -1.337195 0
M  V30 44 H 2.061003 1.033554 -0.060140 0
M  V30 45 H 2.216732 0.682886 -1.759782 0
M  V30 46 H 0.490349 2.166793 0.405760 0
M  V30 47 H -1.422298 3.128706 1.446743 0
M  V30 48 H -7.135410 -0.908888 1.035019 0
M  V30 49 H -5.876511 -4.995051 -1.344349 0
M  V30 50 H -3.443902 -4.559223 -1.832016 0
M  V30 51 H -2.504744 -2.383470 -1.028887 0
M  V30 52 H 1.169504 -1.222963 -2.655270 0
M  V30 53 H -0.452832 -1.687803 -1.967657 0
M  V30 54 H 1.292527 -3.390754 -1.624627 0
M  V30 55 H 0.554234 -2.810063 -0.121838 0
M  V30 56 H 2.927495 -2.928875 0.121573 0
M  V30 END ATOM
M  V30 BEGIN BOND
M  V30 1 1 1 2
M  V30 2 1 2 3
M  V30 3 1 2 4
M  V30 4 1 4 5
M  V30 5 1 4 6 CFG=1
M  V30 6 1 4 7
M  V30 7 1 7 8
M  V30 8 1 8 9
M  V30 9 1 9 10
M  V30 10 2 10 11
M  V30 11 1 11 12
M  V30 12 2 12 13
M  V30 13 1 13 14
M  V30 14 1 14 15
M  V30 15 1 14 16
M  V30 16 1 14 17
M  V30 17 1 13 18
M  V30 18 1 18 19
M  V30 19 2 19 20
M  V30 20 1 20 21
M  V30 21 1 21 22
M  V30 22 2 22 23
M  V30 23 1 23 24
M  V30 24 2 24 25
M  V30 25 1 25 26
M  V30 26 2 26 27
M  V30 27 2 18 28
M  V30 28 1 9 29
M  V30 29 1 29 30
M  V30 30 1 30 31
M  V30 31 1 31 7
M  V30 32 1 28 10
M  V30 33 1 27 19
M  V30 34 1 27 22
M  V30 35 1 1 32
M  V30 36 1 1 33
M  V30 37 1 1 34
M  V30 38 1 2 35
M  V30 39 1 3 36
M  V30 40 1 3 37
M  V30 41 1 3 38
M  V30 42 1 5 39
M  V30 43 1 5 40
M  V30 44 1 5 41
M  V30 45 1 6 42
M  V30 46 1 7 43 CFG=3
M  V30 47 1 8 44
M  V30 48 1 8 45
M  V30 49 1 11 46
M  V30 50 1 12 47
M  V30 51 1 21 48
M  V30 52 1 24 49
M  V30 53 1 25 50
M  V30 54 1 26 51
M  V30 55 1 29 52
M  V30 56 1 29 53
M  V30 57 1 30 54
M  V30 58 1 30 55
M  V30 59 1 31 56
M  V30 END BOND
M  V30 END CTAB
M  END
>  <Dataset>  (293) 
ChEMBL_Kinases

>  <Ligand_Instance>  (293) 
nan

>  <PDB_ID>  (293) 
nan

>  <Standardized_SMILES>  (293) 
CC(C)[C@@](C)(O)[C@@H]1CN(c2ccc(C(F)(F)F)c(-c3n[nH]c4ncccc34)n2)CCN1

>  <Name>  (293) 
nan

>  <Pocket>  (293) 
nan

>  <ATP_Site>  (293) 
nan

>  <Peripheral>  (293) 
nan

>  <Num_H_Atoms_ProtBoundConf>  (293) 
nan

>  <Num_Resolved_Atoms>  (293) 
nan

>  <Num_Not_Resolved_Atoms>  (293) 
nan

$$$$
CHEMBL3699676
     RDKit          3D

  0  0  0  0  0  0  0  0  0  0999 V3000
M  V30 BEGIN CTAB
M  V30 COUNTS 55 59 0 0 0
M  V30 BEGIN ATOM
M  V30 1 C 4.158848 -4.906093 1.481444 0
M  V30 2 O 3.240154 -3.862133 1.234396 0
M  V30 3 C 3.540733 -2.520031 1.323192 0
M  V30 4 C 4.722561 -1.892722 1.654823 0
M  V30 5 C 4.807005 -0.517718 1.685626 0
M  V30 6 C 6.079739 0.074591 2.043727 0
M  V30 7 N 7.240933 -0.657160 2.376637 0
M  V30 8 O 6.213446 1.325897 2.075178 0
M  V30 9 C 3.733504 0.293208 1.391413 0
M  V30 10 N 2.580779 -0.358695 1.067363 0
M  V30 11 C 1.395519 0.235592 0.739012 0
M  V30 12 C 0.986141 1.621220 0.627746 0
M  V30 13 C 0.701538 2.341107 -0.525213 0
M  V30 14 C 0.309337 3.660642 -0.443384 0
M  V30 15 C 0.189253 4.298441 0.766336 0
M  V30 16 C 0.469904 3.588608 1.897212 0
M  V30 17 C 0.866981 2.262641 1.865343 0
M  V30 18 C 0.501161 -0.762457 0.483800 0
M  V30 19 C -0.900120 -0.873001 0.100205 0
M  V30 20 C -1.727855 -1.574698 0.987291 0
M  V30 21 C -3.085533 -1.786868 0.808379 0
M  V30 22 C -3.677915 -1.257642 -0.351241 0
M  V30 23 C -5.115371 -1.501919 -0.507308 0
M  V30 24 N -5.794151 -1.614443 0.784724 0
M  V30 25 C -5.495621 -2.754493 -1.304870 0
M  V30 26 C -6.570440 -1.953668 -2.011107 0
M  V30 27 C -5.879262 -0.690485 -1.491322 0
M  V30 28 C -2.878086 -0.564498 -1.235790 0
M  V30 29 C -1.528900 -0.377931 -1.016484 0
M  V30 30 N 1.164810 -1.919587 0.663353 0
M  V30 31 C 2.444215 -1.702913 1.022454 0
M  V30 32 H 4.706040 -5.188014 0.542251 0
M  V30 33 H 4.921706 -4.684667 2.228893 0
M  V30 34 H 3.628303 -5.836571 1.820345 0
M  V30 35 H 5.520849 -2.592875 1.873111 0
M  V30 36 H 7.572944 -0.813640 3.361013 0
M  V30 37 H 7.683074 -0.995956 1.500388 0
M  V30 38 H 3.802405 1.363974 1.416636 0
M  V30 39 H 0.816819 1.792379 -1.435531 0
M  V30 40 H 0.111139 4.127508 -1.415848 0
M  V30 41 H -0.124126 5.334110 0.742623 0
M  V30 42 H 0.379698 4.079389 2.871381 0
M  V30 43 H 1.072152 1.769210 2.825760 0
M  V30 44 H -1.298727 -2.003425 1.906545 0
M  V30 45 H -3.645936 -2.341873 1.547232 0
M  V30 46 H -5.621979 -2.591145 1.108035 0
M  V30 47 H -5.442396 -0.972319 1.501566 0
M  V30 48 H -4.662781 -2.975156 -2.007125 0
M  V30 49 H -5.836118 -3.602854 -0.714370 0
M  V30 50 H -7.547563 -2.177306 -1.574550 0
M  V30 51 H -6.531296 -2.049268 -3.113959 0
M  V30 52 H -6.676979 -0.088170 -0.967994 0
M  V30 53 H -5.355169 -0.148685 -2.275031 0
M  V30 54 H -3.332079 -0.158274 -2.128081 0
M  V30 55 H -0.888207 0.159905 -1.698977 0
M  V30 END ATOM
M  V30 BEGIN BOND
M  V30 1 1 1 2
M  V30 2 1 2 3
M  V30 3 2 3 4
M  V30 4 1 4 5
M  V30 5 1 5 6
M  V30 6 1 6 7
M  V30 7 2 6 8
M  V30 8 2 5 9
M  V30 9 1 9 10
M  V30 10 1 10 11
M  V30 11 1 11 12
M  V30 12 2 12 13
M  V30 13 1 13 14
M  V30 14 2 14 15
M  V30 15 1 15 16
M  V30 16 2 16 17
M  V30 17 2 11 18
M  V30 18 1 18 19
M  V30 19 2 19 20
M  V30 20 1 20 21
M  V30 21 2 21 22
M  V30 22 1 22 23
M  V30 23 1 23 24
M  V30 24 1 23 25
M  V30 25 1 25 26
M  V30 26 1 26 27
M  V30 27 1 22 28
M  V30 28 2 28 29
M  V30 29 1 18 30
M  V30 30 2 30 31
M  V30 31 1 31 3
M  V30 32 1 31 10
M  V30 33 1 17 12
M  V30 34 1 29 19
M  V30 35 1 27 23
M  V30 36 1 1 32
M  V30 37 1 1 33
M  V30 38 1 1 34
M  V30 39 1 4 35
M  V30 40 1 7 36
M  V30 41 1 7 37
M  V30 42 1 9 38
M  V30 43 1 13 39
M  V30 44 1 14 40
M  V30 45 1 15 41
M  V30 46 1 16 42
M  V30 47 1 17 43
M  V30 48 1 20 44
M  V30 49 1 21 45
M  V30 50 1 24 46
M  V30 51 1 24 47
M  V30 52 1 25 48
M  V30 53 1 25 49
M  V30 54 1 26 50
M  V30 55 1 26 51
M  V30 56 1 27 52
M  V30 57 1 27 53
M  V30 58 1 28 54
M  V30 59 1 29 55
M  V30 END BOND
M  V30 END CTAB
M  END
>  <Dataset>  (294) 
ChEMBL_Kinases

>  <Ligand_Instance>  (294) 
nan

>  <PDB_ID>  (294) 
nan

>  <Standardized_SMILES>  (294) 
COc1cc(C(N)=O)cn2c(-c3ccccc3)c(-c3ccc(C4(N)CCC4)cc3)nc12

>  <Name>  (294) 
nan

>  <Pocket>  (294) 
nan

>  <ATP_Site>  (294) 
nan

>  <Peripheral>  (294) 
nan

>  <Num_H_Atoms_ProtBoundConf>  (294) 
nan

>  <Num_Resolved_Atoms>  (294) 
nan

>  <Num_Not_Resolved_Atoms>  (294) 
nan

$$$$
CHEMBL2326015
     RDKit          3D

  0  0  0  0  0  0  0  0  0  0999 V3000
M  V30 BEGIN CTAB
M  V30 COUNTS 37 40 0 0 0
M  V30 BEGIN ATOM
M  V30 1 F 1.910774 -0.327540 4.499184 0
M  V30 2 C 1.742176 -0.784891 3.234923 0
M  V30 3 C 2.388488 -1.940479 2.840397 0
M  V30 4 C 2.188053 -2.377488 1.529691 0
M  V30 5 C 1.378378 -1.689982 0.654278 0
M  V30 6 N 1.163773 -2.118841 -0.681644 0
M  V30 7 C 1.755980 -3.284430 -1.306342 0
M  V30 8 C 0.640923 -4.334553 -1.314675 0
M  V30 9 N -0.526409 -3.683151 -1.859064 0
M  V30 10 C -0.240240 -2.445588 -2.548938 0
M  V30 11 C 0.286071 -1.383970 -1.572585 0
M  V30 12 N 0.777020 -0.582708 1.079146 0
M  V30 13 C 0.937564 -0.110295 2.349488 0
M  V30 14 C 0.266858 1.107654 2.791378 0
M  V30 15 N 0.338703 1.677908 4.008138 0
M  V30 16 N -0.389919 2.764834 4.061574 0
M  V30 17 C -0.995650 2.988832 2.880048 0
M  V30 18 N -1.838082 3.958278 2.423449 0
M  V30 19 C -2.263264 3.869168 1.149458 0
M  V30 20 C -1.905867 2.865049 0.273561 0
M  V30 21 C -1.043812 1.901090 0.791444 0
M  V30 22 C -0.576394 1.937874 2.081652 0
M  V30 23 H 3.029715 -2.505401 3.496843 0
M  V30 24 H 2.696695 -3.274959 1.241955 0
M  V30 25 H 2.626324 -3.648992 -0.751776 0
M  V30 26 H 2.059331 -3.041711 -2.359945 0
M  V30 27 H 0.498141 -4.641369 -0.256880 0
M  V30 28 H 0.947940 -5.230451 -1.872482 0
M  V30 29 H -1.178989 -3.419870 -1.068199 0
M  V30 30 H -1.211938 -2.064450 -2.914996 0
M  V30 31 H 0.396796 -2.557043 -3.435844 0
M  V30 32 H 0.801447 -0.631222 -2.172314 0
M  V30 33 H -0.608432 -0.989041 -1.030489 0
M  V30 34 H -0.482356 3.369264 4.909959 0
M  V30 35 H -2.924836 4.683137 0.885905 0
M  V30 36 H -2.301592 2.885380 -0.725897 0
M  V30 37 H -0.745719 1.103531 0.132571 0
M  V30 END ATOM
M  V30 BEGIN BOND
M  V30 1 1 1 2
M  V30 2 2 2 3
M  V30 3 1 3 4
M  V30 4 2 4 5
M  V30 5 1 5 6
M  V30 6 1 6 7
M  V30 7 1 7 8
M  V30 8 1 8 9
M  V30 9 1 9 10
M  V30 10 1 10 11
M  V30 11 1 5 12
M  V30 12 2 12 13
M  V30 13 1 13 14
M  V30 14 2 14 15
M  V30 15 1 15 16
M  V30 16 1 16 17
M  V30 17 2 17 18
M  V30 18 1 18 19
M  V30 19 2 19 20
M  V30 20 1 20 21
M  V30 21 2 21 22
M  V30 22 1 13 2
M  V30 23 1 22 14
M  V30 24 1 11 6
M  V30 25 1 22 17
M  V30 26 1 3 23
M  V30 27 1 4 24
M  V30 28 1 7 25
M  V30 29 1 7 26
M  V30 30 1 8 27
M  V30 31 1 8 28
M  V30 32 1 9 29
M  V30 33 1 10 30
M  V30 34 1 10 31
M  V30 35 1 11 32
M  V30 36 1 11 33
M  V30 37 1 16 34
M  V30 38 1 19 35
M  V30 39 1 20 36
M  V30 40 1 21 37
M  V30 END BOND
M  V30 END CTAB
M  END
>  <Dataset>  (295) 
ChEMBL_Kinases

>  <Ligand_Instance>  (295) 
nan

>  <PDB_ID>  (295) 
nan

>  <Standardized_SMILES>  (295) 
Fc1ccc(N2CCNCC2)nc1-c1n[nH]c2ncccc12

>  <Name>  (295) 
nan

>  <Pocket>  (295) 
nan

>  <ATP_Site>  (295) 
nan

>  <Peripheral>  (295) 
nan

>  <Num_H_Atoms_ProtBoundConf>  (295) 
nan

>  <Num_Resolved_Atoms>  (295) 
nan

>  <Num_Not_Resolved_Atoms>  (295) 
nan

$$$$
CHEMBL2326016
     RDKit          3D

  0  0  0  0  0  0  0  0  0  0999 V3000
M  V30 BEGIN CTAB
M  V30 COUNTS 43 46 0 0 0
M  V30 BEGIN ATOM
M  V30 1 C -0.485769 -6.040227 0.852369 0
M  V30 2 C -0.346954 -4.995885 1.954487 0
M  V30 3 C -1.030370 -3.696921 1.551710 0 CFG=2
M  V30 4 C -0.431029 -3.115970 0.289358 0
M  V30 5 N 0.076054 -1.798538 0.467813 0
M  V30 6 C -0.268361 -0.631318 -0.259878 0
M  V30 7 C -1.193379 -0.706468 -1.275149 0
M  V30 8 C -1.554839 0.418209 -2.008857 0
M  V30 9 C -0.922083 1.612159 -1.648052 0
M  V30 10 C 0.005025 1.681531 -0.628861 0
M  V30 11 C 0.619277 2.962809 -0.314128 0
M  V30 12 N 0.378119 4.144415 -0.930299 0
M  V30 13 N 1.104626 5.093793 -0.392419 0
M  V30 14 C 1.870752 4.611903 0.608463 0
M  V30 15 N 2.766694 5.146029 1.458171 0
M  V30 16 C 3.403291 4.407091 2.389003 0
M  V30 17 C 3.121981 3.038550 2.473430 0
M  V30 18 C 2.199375 2.505520 1.593466 0
M  V30 19 C 1.557167 3.269186 0.649071 0
M  V30 20 N 0.305443 0.531784 0.043799 0
M  V30 21 C 1.028550 -1.859053 1.548615 0
M  V30 22 C 0.409642 -2.296474 2.855206 0
M  V30 23 N -0.937914 -2.796217 2.680243 0
M  V30 24 H -0.763035 -7.036441 1.259826 0
M  V30 25 H -1.258891 -5.672980 0.147497 0
M  V30 26 H 0.510355 -6.157214 0.376859 0
M  V30 27 H 0.710434 -4.799837 2.193280 0
M  V30 28 H -0.902605 -5.391433 2.829774 0
M  V30 29 H -2.128155 -3.911542 1.434648 0
M  V30 30 H 0.417936 -3.792727 0.000179 0
M  V30 31 H -1.179461 -3.240582 -0.496180 0
M  V30 32 H -1.701995 -1.609042 -1.581826 0
M  V30 33 H -2.270757 0.398592 -2.805914 0
M  V30 34 H -1.183271 2.500664 -2.200389 0
M  V30 35 H 1.073292 6.081698 -0.716541 0
M  V30 36 H 4.113122 4.896195 3.042917 0
M  V30 37 H 3.646634 2.443290 3.236644 0
M  V30 38 H 1.985590 1.450760 1.662053 0
M  V30 39 H 1.542768 -0.898984 1.757070 0
M  V30 40 H 1.868587 -2.558857 1.266386 0
M  V30 41 H 0.364370 -1.483773 3.609420 0
M  V30 42 H 1.055456 -3.082510 3.307844 0
M  V30 43 H -1.600707 -2.000568 2.607682 0
M  V30 END ATOM
M  V30 BEGIN BOND
M  V30 1 1 1 2
M  V30 2 1 2 3
M  V30 3 1 3 4
M  V30 4 1 4 5
M  V30 5 1 5 6
M  V30 6 2 6 7
M  V30 7 1 7 8
M  V30 8 2 8 9
M  V30 9 1 9 10
M  V30 10 1 10 11
M  V30 11 2 11 12
M  V30 12 1 12 13
M  V30 13 1 13 14
M  V30 14 2 14 15
M  V30 15 1 15 16
M  V30 16 2 16 17
M  V30 17 1 17 18
M  V30 18 2 18 19
M  V30 19 2 10 20
M  V30 20 1 5 21
M  V30 21 1 21 22
M  V30 22 1 22 23
M  V30 23 1 23 3
M  V30 24 1 20 6
M  V30 25 1 19 11
M  V30 26 1 19 14
M  V30 27 1 1 24
M  V30 28 1 1 25
M  V30 29 1 1 26
M  V30 30 1 2 27
M  V30 31 1 2 28
M  V30 32 1 3 29 CFG=3
M  V30 33 1 4 30
M  V30 34 1 4 31
M  V30 35 1 7 32
M  V30 36 1 8 33
M  V30 37 1 9 34
M  V30 38 1 13 35
M  V30 39 1 16 36
M  V30 40 1 17 37
M  V30 41 1 18 38
M  V30 42 1 21 39
M  V30 43 1 21 40
M  V30 44 1 22 41
M  V30 45 1 22 42
M  V30 46 1 23 43
M  V30 END BOND
M  V30 END CTAB
M  END
>  <Dataset>  (296) 
ChEMBL_Kinases

>  <Ligand_Instance>  (296) 
nan

>  <PDB_ID>  (296) 
nan

>  <Standardized_SMILES>  (296) 
CC[C@@H]1CN(c2cccc(-c3n[nH]c4ncccc34)n2)CCN1

>  <Name>  (296) 
nan

>  <Pocket>  (296) 
nan

>  <ATP_Site>  (296) 
nan

>  <Peripheral>  (296) 
nan

>  <Num_H_Atoms_ProtBoundConf>  (296) 
nan

>  <Num_Resolved_Atoms>  (296) 
nan

>  <Num_Not_Resolved_Atoms>  (296) 
nan

$$$$
CHEMBL3699675
     RDKit          3D

  0  0  0  0  0  0  0  0  0  0999 V3000
M  V30 BEGIN CTAB
M  V30 COUNTS 57 61 0 0 0
M  V30 BEGIN ATOM
M  V30 1 C 6.917959 -5.135694 1.607339 0
M  V30 2 O 6.185181 -3.946159 1.414436 0
M  V30 3 C 4.809736 -3.914325 1.230703 0
M  V30 4 O 4.233622 -5.033325 1.245196 0
M  V30 5 C 4.090863 -2.655943 1.034497 0
M  V30 6 C 4.779920 -1.459927 1.028524 0
M  V30 7 C 4.050955 -0.285392 0.838120 0
M  V30 8 O 4.649049 0.968461 0.815536 0
M  V30 9 C 6.052385 1.021399 0.995571 0
M  V30 10 C 2.669808 -0.415752 0.667218 0
M  V30 11 N 1.773311 0.583710 0.469118 0
M  V30 12 C 0.539231 0.066603 0.348995 0
M  V30 13 C -0.790773 0.624504 0.129202 0
M  V30 14 C -1.751675 0.435415 1.107784 0
M  V30 15 C -3.040010 0.953255 0.940356 0
M  V30 16 C -3.370139 1.657797 -0.199455 0
M  V30 17 C -4.775948 2.124989 -0.195081 0
M  V30 18 N -5.119841 2.747922 1.047893 0
M  V30 19 C -5.244113 2.908141 -1.372449 0
M  V30 20 C -6.553972 2.115863 -1.305155 0
M  V30 21 C -5.795742 1.059036 -0.543719 0
M  V30 22 C -2.411854 1.845956 -1.174500 0
M  V30 23 C -1.136562 1.328747 -0.999901 0
M  V30 24 C 0.694658 -1.306731 0.480004 0
M  V30 25 C -0.281978 -2.393899 0.439003 0
M  V30 26 C -0.895058 -2.474849 -0.792530 0
M  V30 27 C -1.862971 -3.454497 -1.025591 0
M  V30 28 C -2.162950 -4.311367 0.013156 0
M  V30 29 C -1.553085 -4.233564 1.243370 0
M  V30 30 C -0.597386 -3.261807 1.464581 0
M  V30 31 N 2.011935 -1.590519 0.675613 0
M  V30 32 C 2.720745 -2.723923 0.860091 0
M  V30 33 H 7.970490 -4.865036 1.771383 0
M  V30 34 H 6.572286 -5.594329 2.573312 0
M  V30 35 H 6.790447 -5.882968 0.817651 0
M  V30 36 H 5.865941 -1.399782 1.166221 0
M  V30 37 H 6.378072 0.491747 1.913582 0
M  V30 38 H 6.438009 2.055155 1.004393 0
M  V30 39 H 6.580635 0.488740 0.152150 0
M  V30 40 H -1.485292 -0.118965 1.999873 0
M  V30 41 H -3.715297 0.746305 1.770736 0
M  V30 42 H -5.671324 2.169494 1.701948 0
M  V30 43 H -5.610379 3.650486 0.882735 0
M  V30 44 H -5.444505 3.989102 -1.122774 0
M  V30 45 H -4.716301 2.825791 -2.320947 0
M  V30 46 H -7.317542 2.574417 -0.670999 0
M  V30 47 H -6.922851 1.795196 -2.307586 0
M  V30 48 H -5.461053 0.284056 -1.263347 0
M  V30 49 H -6.310993 0.660300 0.365007 0
M  V30 50 H -2.743766 2.400203 -2.024655 0
M  V30 51 H -0.406720 1.490746 -1.778426 0
M  V30 52 H -0.714652 -1.844100 -1.648892 0
M  V30 53 H -2.381839 -3.570425 -1.971630 0
M  V30 54 H -2.912590 -5.083037 -0.141009 0
M  V30 55 H -1.750858 -4.879113 2.089268 0
M  V30 56 H -0.032884 -3.074770 2.373264 0
M  V30 57 H 2.229679 -3.667091 0.871907 0
M  V30 END ATOM
M  V30 BEGIN BOND
M  V30 1 1 1 2
M  V30 2 1 2 3
M  V30 3 2 3 4
M  V30 4 1 3 5
M  V30 5 1 5 6
M  V30 6 2 6 7
M  V30 7 1 7 8
M  V30 8 1 8 9
M  V30 9 1 7 10
M  V30 10 2 10 11
M  V30 11 1 11 12
M  V30 12 1 12 13
M  V30 13 2 13 14
M  V30 14 1 14 15
M  V30 15 2 15 16
M  V30 16 1 16 17
M  V30 17 1 17 18
M  V30 18 1 17 19
M  V30 19 1 19 20
M  V30 20 1 20 21
M  V30 21 1 16 22
M  V30 22 2 22 23
M  V30 23 2 12 24
M  V30 24 1 24 25
M  V30 25 2 25 26
M  V30 26 1 26 27
M  V30 27 2 27 28
M  V30 28 1 28 29
M  V30 29 2 29 30
M  V30 30 1 24 31
M  V30 31 1 31 32
M  V30 32 2 32 5
M  V30 33 1 31 10
M  V30 34 1 23 13
M  V30 35 1 30 25
M  V30 36 1 21 17
M  V30 37 1 1 33
M  V30 38 1 1 34
M  V30 39 1 1 35
M  V30 40 1 6 36
M  V30 41 1 9 37
M  V30 42 1 9 38
M  V30 43 1 9 39
M  V30 44 1 14 40
M  V30 45 1 15 41
M  V30 46 1 18 42
M  V30 47 1 18 43
M  V30 48 1 19 44
M  V30 49 1 19 45
M  V30 50 1 20 46
M  V30 51 1 20 47
M  V30 52 1 21 48
M  V30 53 1 21 49
M  V30 54 1 22 50
M  V30 55 1 23 51
M  V30 56 1 26 52
M  V30 57 1 27 53
M  V30 58 1 28 54
M  V30 59 1 29 55
M  V30 60 1 30 56
M  V30 61 1 32 57
M  V30 END BOND
M  V30 END CTAB
M  END
>  <Dataset>  (297) 
ChEMBL_Kinases

>  <Ligand_Instance>  (297) 
nan

>  <PDB_ID>  (297) 
nan

>  <Standardized_SMILES>  (297) 
COC(=O)c1cc(OC)c2nc(-c3ccc(C4(N)CCC4)cc3)c(-c3ccccc3)n2c1

>  <Name>  (297) 
nan

>  <Pocket>  (297) 
nan

>  <ATP_Site>  (297) 
nan

>  <Peripheral>  (297) 
nan

>  <Num_H_Atoms_ProtBoundConf>  (297) 
nan

>  <Num_Resolved_Atoms>  (297) 
nan

>  <Num_Not_Resolved_Atoms>  (297) 
nan

$$$$
CHEMBL2326017
     RDKit          3D

  0  0  0  0  0  0  0  0  0  0999 V3000
M  V30 BEGIN CTAB
M  V30 COUNTS 46 49 0 0 0
M  V30 BEGIN ATOM
M  V30 1 C -1.959728 -5.517115 1.815661 0
M  V30 2 C -0.784322 -5.005101 0.972414 0
M  V30 3 C -1.037520 -5.219226 -0.481329 0
M  V30 4 C -0.572531 -3.566259 1.370431 0 CFG=1
M  V30 5 C 0.583517 -2.913209 0.601585 0
M  V30 6 N 0.521345 -1.512878 0.903887 0
M  V30 7 C 1.203743 -0.568425 0.093270 0
M  V30 8 C 1.924551 -1.038599 -0.962250 0
M  V30 9 C 2.617866 -0.156165 -1.797291 0
M  V30 10 C 2.520038 1.198094 -1.479754 0
M  V30 11 C 1.788125 1.666139 -0.409232 0
M  V30 12 C 1.749680 3.103517 -0.162693 0
M  V30 13 N 2.362861 4.063799 -0.876353 0
M  V30 14 N 2.118227 5.250017 -0.380318 0
M  V30 15 C 1.322097 5.166675 0.702956 0
M  V30 16 N 0.775298 6.057912 1.574641 0
M  V30 17 C -0.013312 5.627600 2.600793 0
M  V30 18 C -0.265615 4.283797 2.766695 0
M  V30 19 C 0.296109 3.391454 1.874345 0
M  V30 20 C 1.095800 3.802599 0.830363 0
M  V30 21 N 1.153008 0.751489 0.341356 0
M  V30 22 C -0.265309 -1.141321 2.064479 0
M  V30 23 C -1.701840 -1.497981 1.775630 0
M  V30 24 N -1.745357 -2.762249 1.080271 0
M  V30 25 H -1.886991 -5.034162 2.812574 0
M  V30 26 H -2.929732 -5.158646 1.377249 0
M  V30 27 H -1.933308 -6.622394 1.906896 0
M  V30 28 H 0.084298 -5.609139 1.301924 0
M  V30 29 H -0.056653 -5.263256 -0.998330 0
M  V30 30 H -1.599603 -6.186312 -0.599143 0
M  V30 31 H -1.630084 -4.415808 -0.916479 0
M  V30 32 H -0.352505 -3.569103 2.444261 0
M  V30 33 H 0.519833 -3.158407 -0.477769 0
M  V30 34 H 1.509717 -3.295207 1.085101 0
M  V30 35 H 2.045930 -2.066874 -1.267665 0
M  V30 36 H 3.208196 -0.464950 -2.651551 0
M  V30 37 H 3.050790 1.910444 -2.114091 0
M  V30 38 H 2.488492 6.153400 -0.767711 0
M  V30 39 H -0.389893 6.448275 3.229041 0
M  V30 40 H -0.903547 4.021414 3.608207 0
M  V30 41 H 0.089543 2.341359 2.016774 0
M  V30 42 H -0.137433 -0.035106 2.208712 0
M  V30 43 H 0.142855 -1.661042 2.961321 0
M  V30 44 H -2.112015 -0.675800 1.143571 0
M  V30 45 H -2.253651 -1.556968 2.735545 0
M  V30 46 H -1.752671 -2.612752 0.029908 0
M  V30 END ATOM
M  V30 BEGIN BOND
M  V30 1 1 1 2
M  V30 2 1 2 3
M  V30 3 1 2 4
M  V30 4 1 4 5
M  V30 5 1 5 6
M  V30 6 1 6 7
M  V30 7 2 7 8
M  V30 8 1 8 9
M  V30 9 2 9 10
M  V30 10 1 10 11
M  V30 11 1 11 12
M  V30 12 2 12 13
M  V30 13 1 13 14
M  V30 14 1 14 15
M  V30 15 2 15 16
M  V30 16 1 16 17
M  V30 17 2 17 18
M  V30 18 1 18 19
M  V30 19 2 19 20
M  V30 20 2 11 21
M  V30 21 1 6 22
M  V30 22 1 22 23
M  V30 23 1 23 24
M  V30 24 1 24 4
M  V30 25 1 21 7
M  V30 26 1 20 12
M  V30 27 1 20 15
M  V30 28 1 1 25
M  V30 29 1 1 26
M  V30 30 1 1 27
M  V30 31 1 2 28
M  V30 32 1 3 29
M  V30 33 1 3 30
M  V30 34 1 3 31
M  V30 35 1 4 32 CFG=1
M  V30 36 1 5 33
M  V30 37 1 5 34
M  V30 38 1 8 35
M  V30 39 1 9 36
M  V30 40 1 10 37
M  V30 41 1 14 38
M  V30 42 1 17 39
M  V30 43 1 18 40
M  V30 44 1 19 41
M  V30 45 1 22 42
M  V30 46 1 22 43
M  V30 47 1 23 44
M  V30 48 1 23 45
M  V30 49 1 24 46
M  V30 END BOND
M  V30 END CTAB
M  END
>  <Dataset>  (298) 
ChEMBL_Kinases

>  <Ligand_Instance>  (298) 
nan

>  <PDB_ID>  (298) 
nan

>  <Standardized_SMILES>  (298) 
CC(C)[C@H]1CN(c2cccc(-c3n[nH]c4ncccc34)n2)CCN1

>  <Name>  (298) 
nan

>  <Pocket>  (298) 
nan

>  <ATP_Site>  (298) 
nan

>  <Peripheral>  (298) 
nan

>  <Num_H_Atoms_ProtBoundConf>  (298) 
nan

>  <Num_Resolved_Atoms>  (298) 
nan

>  <Num_Not_Resolved_Atoms>  (298) 
nan

$$$$
CHEMBL2326018
     RDKit          3D

  0  0  0  0  0  0  0  0  0  0999 V3000
M  V30 BEGIN CTAB
M  V30 COUNTS 49 52 0 0 0
M  V30 BEGIN ATOM
M  V30 1 C 1.844819 -5.759324 2.103324 0
M  V30 2 C 1.458789 -4.387285 2.570517 0
M  V30 3 C 0.045460 -4.331619 3.099119 0
M  V30 4 C 1.706360 -3.304673 1.561536 0
M  V30 5 C 0.986185 -3.443800 0.266833 0 CFG=2
M  V30 6 C 1.353361 -2.274606 -0.615975 0
M  V30 7 N 0.606140 -1.084339 -0.385165 0
M  V30 8 C 1.107536 0.242476 -0.298219 0
M  V30 9 C 2.421995 0.600171 -0.442779 0
M  V30 10 C 2.878275 1.899724 -0.351910 0
M  V30 11 C 1.989077 2.924884 -0.102036 0
M  V30 12 C 0.682878 2.538899 0.037931 0
M  V30 13 C -0.320892 3.581019 0.306600 0
M  V30 14 N -0.109683 4.910131 0.435335 0
M  V30 15 N -1.239063 5.536879 0.672729 0
M  V30 16 C -2.272742 4.664748 0.716898 0
M  V30 17 N -3.597075 4.798383 0.923255 0
M  V30 18 C -4.404471 3.711585 0.909094 0
M  V30 19 C -3.867936 2.458743 0.681975 0
M  V30 20 C -2.499784 2.300800 0.466469 0
M  V30 21 C -1.685612 3.427189 0.484347 0
M  V30 22 N 0.268295 1.264324 -0.055876 0
M  V30 23 C -0.809122 -1.321030 -0.233245 0
M  V30 24 C -1.197172 -2.741339 -0.452771 0
M  V30 25 N -0.439866 -3.591417 0.433966 0
M  V30 26 H 1.017888 -6.292697 1.604556 0
M  V30 27 H 2.763415 -5.709438 1.504758 0
M  V30 28 H 2.101207 -6.373542 3.001120 0
M  V30 29 H 2.124025 -4.153482 3.431884 0
M  V30 30 H -0.615541 -5.074419 2.608169 0
M  V30 31 H -0.318175 -3.284714 2.908230 0
M  V30 32 H 0.025867 -4.435729 4.201460 0
M  V30 33 H 1.349546 -2.356212 2.039245 0
M  V30 34 H 2.785637 -3.206958 1.381388 0
M  V30 35 H 1.340096 -4.353788 -0.260085 0
M  V30 36 H 2.428647 -2.052737 -0.460839 0
M  V30 37 H 1.283809 -2.569215 -1.704366 0
M  V30 38 H 3.154023 -0.167165 -0.639634 0
M  V30 39 H 3.946529 2.092833 -0.480668 0
M  V30 40 H 2.347804 3.940960 -0.031100 0
M  V30 41 H -1.394237 6.565381 0.818107 0
M  V30 42 H -5.461279 3.870896 1.080019 0
M  V30 43 H -4.511882 1.575118 0.668591 0
M  V30 44 H -2.089215 1.326364 0.290994 0
M  V30 45 H -1.067866 -1.020928 0.821683 0
M  V30 46 H -1.372574 -0.629691 -0.898866 0
M  V30 47 H -2.263727 -2.852862 -0.126671 0
M  V30 48 H -1.122496 -2.993314 -1.511317 0
M  V30 49 H -0.764352 -4.572632 0.266986 0
M  V30 END ATOM
M  V30 BEGIN BOND
M  V30 1 1 1 2
M  V30 2 1 2 3
M  V30 3 1 2 4
M  V30 4 1 4 5
M  V30 5 1 5 6
M  V30 6 1 6 7
M  V30 7 1 7 8
M  V30 8 2 8 9
M  V30 9 1 9 10
M  V30 10 2 10 11
M  V30 11 1 11 12
M  V30 12 1 12 13
M  V30 13 2 13 14
M  V30 14 1 14 15
M  V30 15 1 15 16
M  V30 16 2 16 17
M  V30 17 1 17 18
M  V30 18 2 18 19
M  V30 19 1 19 20
M  V30 20 2 20 21
M  V30 21 2 12 22
M  V30 22 1 7 23
M  V30 23 1 23 24
M  V30 24 1 24 25
M  V30 25 1 25 5
M  V30 26 1 22 8
M  V30 27 1 21 13
M  V30 28 1 21 16
M  V30 29 1 1 26
M  V30 30 1 1 27
M  V30 31 1 1 28
M  V30 32 1 2 29
M  V30 33 1 3 30
M  V30 34 1 3 31
M  V30 35 1 3 32
M  V30 36 1 4 33
M  V30 37 1 4 34
M  V30 38 1 5 35 CFG=3
M  V30 39 1 6 36
M  V30 40 1 6 37
M  V30 41 1 9 38
M  V30 42 1 10 39
M  V30 43 1 11 40
M  V30 44 1 15 41
M  V30 45 1 18 42
M  V30 46 1 19 43
M  V30 47 1 20 44
M  V30 48 1 23 45
M  V30 49 1 23 46
M  V30 50 1 24 47
M  V30 51 1 24 48
M  V30 52 1 25 49
M  V30 END BOND
M  V30 END CTAB
M  END
>  <Dataset>  (299) 
ChEMBL_Kinases

>  <Ligand_Instance>  (299) 
nan

>  <PDB_ID>  (299) 
nan

>  <Standardized_SMILES>  (299) 
CC(C)C[C@@H]1CN(c2cccc(-c3n[nH]c4ncccc34)n2)CCN1

>  <Name>  (299) 
nan

>  <Pocket>  (299) 
nan

>  <ATP_Site>  (299) 
nan

>  <Peripheral>  (299) 
nan

>  <Num_H_Atoms_ProtBoundConf>  (299) 
nan

>  <Num_Resolved_Atoms>  (299) 
nan

>  <Num_Not_Resolved_Atoms>  (299) 
nan

$$$$
CHEMBL2326011
     RDKit          3D

  0  0  0  0  0  0  0  0  0  0999 V3000
M  V30 BEGIN CTAB
M  V30 COUNTS 56 59 0 0 0
M  V30 BEGIN ATOM
M  V30 1 C 3.185174 -1.435399 3.576040 0
M  V30 2 O 3.716545 -1.175736 2.372882 0
M  V30 3 C 3.181903 -0.308109 1.497697 0
M  V30 4 C 4.112295 -0.371639 0.260145 0
M  V30 5 C 3.249457 1.093897 1.942612 0
M  V30 6 C 2.590378 1.531257 3.171526 0
M  V30 7 C 4.744142 1.436389 2.095900 0
M  V30 8 C 1.820017 -0.760846 1.045259 0
M  V30 9 C 1.173829 0.173453 0.066245 0
M  V30 10 N -0.086267 -0.436818 -0.309352 0
M  V30 11 C -1.375359 0.033076 0.052269 0
M  V30 12 C -1.620983 1.131265 0.842919 0
M  V30 13 C -2.876469 1.579268 1.185294 0
M  V30 14 C -3.990241 0.903174 0.720096 0
M  V30 15 F -5.245559 1.296932 1.023857 0
M  V30 16 C -3.719080 -0.207116 -0.079597 0
M  V30 17 C -4.861826 -0.960095 -0.599009 0
M  V30 18 N -6.168298 -0.710091 -0.397928 0
M  V30 19 N -6.933907 -1.591777 -1.015997 0
M  V30 20 C -6.146587 -2.471146 -1.658772 0
M  V30 21 N -6.482721 -3.546930 -2.422877 0
M  V30 22 C -5.449566 -4.258027 -2.949215 0
M  V30 23 C -4.127070 -3.935780 -2.740992 0
M  V30 24 C -3.826417 -2.826257 -1.952082 0
M  V30 25 C -4.837727 -2.081320 -1.401971 0
M  V30 26 N -2.471250 -0.598066 -0.380920 0
M  V30 27 C 0.025526 -1.632875 -1.126493 0
M  V30 28 C 1.472391 -2.097479 -0.950883 0
M  V30 29 N 1.891969 -2.036047 0.412592 0
M  V30 30 H 3.859398 -2.225570 4.052929 0
M  V30 31 H 3.140959 -0.660560 4.335556 0
M  V30 32 H 2.190338 -1.928124 3.572700 0
M  V30 33 H 4.014857 -1.305097 -0.288353 0
M  V30 34 H 4.025817 0.543291 -0.355270 0
M  V30 35 H 5.142640 -0.339146 0.682243 0
M  V30 36 H 2.928627 1.733291 1.064974 0
M  V30 37 H 2.231894 2.599395 2.994600 0
M  V30 38 H 3.304064 1.664203 4.025622 0
M  V30 39 H 1.701706 1.011784 3.526869 0
M  V30 40 H 5.305988 0.562850 2.508945 0
M  V30 41 H 4.888751 2.237220 2.849274 0
M  V30 42 H 5.193565 1.762662 1.153551 0
M  V30 43 H 1.158346 -0.829806 1.927610 0
M  V30 44 H 1.825938 0.302964 -0.845745 0
M  V30 45 H 0.982884 1.172999 0.428151 0
M  V30 46 H -0.792191 1.698897 1.236116 0
M  V30 47 H -3.044934 2.437644 1.802792 0
M  V30 48 H -7.983378 -1.618884 -1.017932 0
M  V30 49 H -5.759821 -5.108944 -3.552834 0
M  V30 50 H -3.330890 -4.541435 -3.187714 0
M  V30 51 H -2.821319 -2.530883 -1.757997 0
M  V30 52 H -0.641272 -2.441809 -0.761984 0
M  V30 53 H -0.174809 -1.425879 -2.196163 0
M  V30 54 H 1.544326 -3.166945 -1.261919 0
M  V30 55 H 2.070390 -1.537933 -1.672335 0
M  V30 56 H 2.717330 -2.609206 0.579916 0
M  V30 END ATOM
M  V30 BEGIN BOND
M  V30 1 1 1 2
M  V30 2 1 2 3
M  V30 3 1 3 4
M  V30 4 1 3 5
M  V30 5 1 5 6
M  V30 6 1 5 7
M  V30 7 1 3 8
M  V30 8 1 8 9
M  V30 9 1 9 10
M  V30 10 1 10 11
M  V30 11 2 11 12
M  V30 12 1 12 13
M  V30 13 2 13 14
M  V30 14 1 14 15
M  V30 15 1 14 16
M  V30 16 1 16 17
M  V30 17 2 17 18
M  V30 18 1 18 19
M  V30 19 1 19 20
M  V30 20 2 20 21
M  V30 21 1 21 22
M  V30 22 2 22 23
M  V30 23 1 23 24
M  V30 24 2 24 25
M  V30 25 2 16 26
M  V30 26 1 10 27
M  V30 27 1 27 28
M  V30 28 1 28 29
M  V30 29 1 29 8
M  V30 30 1 26 11
M  V30 31 1 25 17
M  V30 32 1 25 20
M  V30 33 1 1 30
M  V30 34 1 1 31
M  V30 35 1 1 32
M  V30 36 1 4 33
M  V30 37 1 4 34
M  V30 38 1 4 35
M  V30 39 1 5 36
M  V30 40 1 6 37
M  V30 41 1 6 38
M  V30 42 1 6 39
M  V30 43 1 7 40
M  V30 44 1 7 41
M  V30 45 1 7 42
M  V30 46 1 8 43
M  V30 47 1 9 44
M  V30 48 1 9 45
M  V30 49 1 12 46
M  V30 50 1 13 47
M  V30 51 1 19 48
M  V30 52 1 22 49
M  V30 53 1 23 50
M  V30 54 1 24 51
M  V30 55 1 27 52
M  V30 56 1 27 53
M  V30 57 1 28 54
M  V30 58 1 28 55
M  V30 59 1 29 56
M  V30 END BOND
M  V30 END CTAB
M  END
>  <Dataset>  (300) 
ChEMBL_Kinases

>  <Ligand_Instance>  (300) 
nan

>  <PDB_ID>  (300) 
nan

>  <Standardized_SMILES>  (300) 
COC(C)(C(C)C)C1CN(c2ccc(F)c(-c3n[nH]c4ncccc34)n2)CCN1

>  <Name>  (300) 
nan

>  <Pocket>  (300) 
nan

>  <ATP_Site>  (300) 
nan

>  <Peripheral>  (300) 
nan

>  <Num_H_Atoms_ProtBoundConf>  (300) 
nan

>  <Num_Resolved_Atoms>  (300) 
nan

>  <Num_Not_Resolved_Atoms>  (300) 
nan

$$$$
CHEMBL3699301
     RDKit          3D

  0  0  0  0  0  0  0  0  0  0999 V3000
M  V30 BEGIN CTAB
M  V30 COUNTS 98 103 0 0 0
M  V30 BEGIN ATOM
M  V30 1 C 2.153285 -7.160709 4.609046 0
M  V30 2 N 1.529168 -6.265110 3.687839 0
M  V30 3 C 2.061734 -6.190707 2.403969 0
M  V30 4 C 1.382562 -7.131774 1.422711 0
M  V30 5 C 3.523419 -6.700328 2.451374 0
M  V30 6 C 2.173606 -4.799565 1.872578 0
M  V30 7 C 0.856564 -4.085363 2.061921 0
M  V30 8 O 0.972215 -2.826960 1.521118 0
M  V30 9 C 0.183802 -1.953481 0.892263 0
M  V30 10 C 0.854102 -0.806392 0.428073 0
M  V30 11 C 0.228444 0.251775 -0.259966 0
M  V30 12 O 0.985543 1.253497 -0.630302 0
M  V30 13 C 1.107791 2.427234 -1.245518 0
M  V30 14 C 1.674017 3.504152 -0.307513 0
M  V30 15 C 1.908906 4.793483 -1.031602 0
M  V30 16 C 2.724907 5.667636 -0.068574 0
M  V30 17 C 0.556077 5.503561 -1.152939 0
M  V30 18 N 2.587750 4.721011 -2.265061 0
M  V30 19 C 3.803763 5.427550 -2.415252 0
M  V30 20 C 2.463023 3.560186 -3.058193 0
M  V30 21 C 3.789681 3.320150 -3.804635 0
M  V30 22 C 1.443297 3.735894 -4.195509 0
M  V30 23 C 2.185958 2.278593 -2.341742 0
M  V30 24 C -1.126081 0.044004 -0.432423 0
M  V30 25 N -1.855131 1.080157 -1.074516 0
M  V30 26 C -3.249083 1.059234 -1.327714 0
M  V30 27 N -3.991840 0.880017 -2.434118 0
M  V30 28 C -5.336268 0.892712 -2.407033 0
M  V30 29 N -6.055616 0.718569 -3.616540 0
M  V30 30 C -5.589039 0.532319 -4.951775 0
M  V30 31 C -4.741203 -0.666946 -5.329647 0
M  V30 32 C -4.174697 0.721139 -5.363453 0
M  V30 33 C -5.995811 1.094924 -1.204225 0
M  V30 34 N -7.320425 1.157179 -0.878670 0
M  V30 35 C -7.412772 1.375576 0.438822 0
M  V30 36 C -6.129385 1.449420 0.933421 0
M  V30 37 C -5.702187 1.669207 2.299088 0
M  V30 38 N -5.377332 1.852930 3.395006 0
M  V30 39 N -5.258322 1.276482 -0.082361 0
M  V30 40 N -3.972599 1.245576 -0.221114 0
M  V30 41 C -1.897494 -1.032942 -0.027737 0
M  V30 42 C -1.160339 -2.003458 0.637195 0
M  V30 43 C -1.914702 -3.130864 1.101374 0
M  V30 44 N -2.537269 -4.028874 1.485474 0
M  V30 45 C 0.505034 -4.027460 3.547178 0
M  V30 46 C 0.597788 -5.372955 4.194453 0
M  V30 47 C -0.789904 -6.036187 4.184172 0
M  V30 48 C 0.866529 -5.125459 5.674945 0
M  V30 49 H 2.441068 -8.105400 4.111879 0
M  V30 50 H 3.071871 -6.758293 5.090883 0
M  V30 51 H 1.385440 -7.477126 5.361352 0
M  V30 52 H 0.338764 -7.374615 1.697859 0
M  V30 53 H 1.395975 -6.755365 0.400177 0
M  V30 54 H 1.899868 -8.136100 1.378160 0
M  V30 55 H 4.063862 -6.210595 3.279246 0
M  V30 56 H 3.981928 -6.343528 1.507576 0
M  V30 57 H 3.580616 -7.790465 2.437805 0
M  V30 58 H 2.984658 -4.290395 2.455801 0
M  V30 59 H 2.404965 -4.804485 0.796182 0
M  V30 60 H 0.047146 -4.643345 1.597963 0
M  V30 61 H 1.937569 -0.706853 0.602997 0
M  V30 62 H 0.267543 2.901145 -1.771855 0
M  V30 63 H 0.863129 3.706706 0.429042 0
M  V30 64 H 2.537661 3.135631 0.263843 0
M  V30 65 H 2.217748 5.545166 0.935088 0
M  V30 66 H 3.739486 5.272758 0.096126 0
M  V30 67 H 2.647133 6.731245 -0.292396 0
M  V30 68 H 0.365233 5.774687 -2.225072 0
M  V30 69 H -0.266676 4.886039 -0.740652 0
M  V30 70 H 0.533040 6.468821 -0.607929 0
M  V30 71 H 4.691085 4.728389 -2.388313 0
M  V30 72 H 3.845371 5.954228 -3.415956 0
M  V30 73 H 4.026784 6.198958 -1.685571 0
M  V30 74 H 3.566123 2.533233 -4.581724 0
M  V30 75 H 4.541607 2.843016 -3.148153 0
M  V30 76 H 4.127279 4.187479 -4.365637 0
M  V30 77 H 1.728477 3.039521 -5.014194 0
M  V30 78 H 1.516842 4.739577 -4.620135 0
M  V30 79 H 0.440784 3.433559 -3.881409 0
M  V30 80 H 1.735940 1.564756 -3.061598 0
M  V30 81 H 3.079961 1.774651 -1.938840 0
M  V30 82 H -1.782055 1.993273 -1.505629 0
M  V30 83 H -7.099129 0.727229 -3.491416 0
M  V30 84 H -6.350635 0.806841 -5.746157 0
M  V30 85 H -4.398748 -1.377663 -4.575267 0
M  V30 86 H -4.983832 -1.192210 -6.299858 0
M  V30 87 H -4.009277 1.089123 -6.416553 0
M  V30 88 H -3.373526 1.043404 -4.698346 0
M  V30 89 H -8.321639 1.471546 0.986894 0
M  V30 90 H -2.940582 -1.097818 -0.213204 0
M  V30 91 H -0.538535 -3.668497 3.612552 0
M  V30 92 H 1.151274 -3.251770 3.993727 0
M  V30 93 H -1.142781 -6.210221 3.159805 0
M  V30 94 H -1.544966 -5.324678 4.633068 0
M  V30 95 H -0.816710 -6.936986 4.836588 0
M  V30 96 H 0.281156 -4.215665 5.942033 0
M  V30 97 H 0.427921 -5.929818 6.303420 0
M  V30 98 H 1.912723 -4.921442 5.887539 0
M  V30 END ATOM
M  V30 BEGIN BOND
M  V30 1 1 1 2
M  V30 2 1 2 3
M  V30 3 1 3 4
M  V30 4 1 3 5
M  V30 5 1 3 6
M  V30 6 1 6 7
M  V30 7 1 7 8
M  V30 8 1 8 9
M  V30 9 2 9 10
M  V30 10 1 10 11
M  V30 11 1 11 12
M  V30 12 1 12 13
M  V30 13 1 13 14
M  V30 14 1 14 15
M  V30 15 1 15 16
M  V30 16 1 15 17
M  V30 17 1 15 18
M  V30 18 1 18 19
M  V30 19 1 18 20
M  V30 20 1 20 21
M  V30 21 1 20 22
M  V30 22 1 20 23
M  V30 23 2 11 24
M  V30 24 1 24 25
M  V30 25 1 25 26
M  V30 26 1 26 27
M  V30 27 2 27 28
M  V30 28 1 28 29
M  V30 29 1 29 30
M  V30 30 1 30 31
M  V30 31 1 31 32
M  V30 32 1 28 33
M  V30 33 2 33 34
M  V30 34 1 34 35
M  V30 35 2 35 36
M  V30 36 1 36 37
M  V30 37 3 37 38
M  V30 38 1 36 39
M  V30 39 1 39 40
M  V30 40 1 24 41
M  V30 41 2 41 42
M  V30 42 1 42 43
M  V30 43 3 43 44
M  V30 44 1 7 45
M  V30 45 1 45 46
M  V30 46 1 46 47
M  V30 47 1 46 48
M  V30 48 1 46 2
M  V30 49 1 42 9
M  V30 50 1 23 13
M  V30 51 2 40 26
M  V30 52 1 32 30
M  V30 53 1 39 33
M  V30 54 1 1 49
M  V30 55 1 1 50
M  V30 56 1 1 51
M  V30 57 1 4 52
M  V30 58 1 4 53
M  V30 59 1 4 54
M  V30 60 1 5 55
M  V30 61 1 5 56
M  V30 62 1 5 57
M  V30 63 1 6 58
M  V30 64 1 6 59
M  V30 65 1 7 60
M  V30 66 1 10 61
M  V30 67 1 13 62
M  V30 68 1 14 63
M  V30 69 1 14 64
M  V30 70 1 16 65
M  V30 71 1 16 66
M  V30 72 1 16 67
M  V30 73 1 17 68
M  V30 74 1 17 69
M  V30 75 1 17 70
M  V30 76 1 19 71
M  V30 77 1 19 72
M  V30 78 1 19 73
M  V30 79 1 21 74
M  V30 80 1 21 75
M  V30 81 1 21 76
M  V30 82 1 22 77
M  V30 83 1 22 78
M  V30 84 1 22 79
M  V30 85 1 23 80
M  V30 86 1 23 81
M  V30 87 1 25 82
M  V30 88 1 29 83
M  V30 89 1 30 84
M  V30 90 1 31 85
M  V30 91 1 31 86
M  V30 92 1 32 87
M  V30 93 1 32 88
M  V30 94 1 35 89
M  V30 95 1 41 90
M  V30 96 1 45 91
M  V30 97 1 45 92
M  V30 98 1 47 93
M  V30 99 1 47 94
M  V30 100 1 47 95
M  V30 101 1 48 96
M  V30 102 1 48 97
M  V30 103 1 48 98
M  V30 END BOND
M  V30 END CTAB
M  END
>  <Dataset>  (301) 
ChEMBL_Kinases

>  <Ligand_Instance>  (301) 
nan

>  <PDB_ID>  (301) 
nan

>  <Standardized_SMILES>  (301) 
CN1C(C)(C)CC(Oc2cc(OC3CC(C)(C)N(C)C(C)(C)C3)c(Nc3nc(NC4CC4)c4ncc(C#N)n4n3)cc2C#N)CC1(C)C

>  <Name>  (301) 
nan

>  <Pocket>  (301) 
nan

>  <ATP_Site>  (301) 
nan

>  <Peripheral>  (301) 
nan

>  <Num_H_Atoms_ProtBoundConf>  (301) 
nan

>  <Num_Resolved_Atoms>  (301) 
nan

>  <Num_Not_Resolved_Atoms>  (301) 
nan

$$$$
CHEMBL3699300
     RDKit          3D

  0  0  0  0  0  0  0  0  0  0999 V3000
M  V30 BEGIN CTAB
M  V30 COUNTS 67 71 0 0 0
M  V30 BEGIN ATOM
M  V30 1 C 1.675933 -0.271677 5.313169 0
M  V30 2 N 2.493339 -0.173087 4.120854 0
M  V30 3 C 2.085393 -1.153073 3.150093 0
M  V30 4 C 3.104161 -2.277937 3.204292 0
M  V30 5 C 0.742964 -1.785476 3.442991 0
M  V30 6 C 2.090046 -0.609736 1.744336 0
M  V30 7 C 1.178097 0.608403 1.623897 0
M  V30 8 O 1.353516 1.143215 0.378340 0
M  V30 9 C 0.709387 1.068677 -0.779406 0
M  V30 10 C 1.345586 2.021393 -1.612812 0
M  V30 11 C 0.972849 2.276350 -2.936600 0
M  V30 12 F 1.543166 3.180651 -3.783847 0
M  V30 13 C -0.075942 1.563592 -3.478254 0
M  V30 14 C -0.515139 1.765928 -4.821656 0
M  V30 15 N -0.883527 1.936664 -5.913567 0
M  V30 16 C -0.734427 0.620518 -2.718627 0
M  V30 17 C -0.314363 0.423136 -1.430853 0
M  V30 18 N -0.886146 -0.577568 -0.665622 0
M  V30 19 C -2.002631 -1.435004 -0.684651 0
M  V30 20 N -2.162402 -2.062143 -1.850507 0
M  V30 21 C -3.151503 -2.917493 -2.136756 0
M  V30 22 N -3.372267 -3.588011 -3.362934 0
M  V30 23 C -2.584416 -3.449150 -4.562813 0
M  V30 24 C -2.500103 -2.042748 -5.166171 0
M  V30 25 C -1.301197 -2.719062 -4.633407 0
M  V30 26 C -4.051694 -3.131769 -1.105513 0
M  V30 27 N -5.171113 -3.907599 -0.997189 0
M  V30 28 C -5.696296 -3.757065 0.228054 0
M  V30 29 C -4.918637 -2.870320 0.944781 0
M  V30 30 C -5.134362 -2.431637 2.294316 0
M  V30 31 N -5.300631 -2.096013 3.387790 0
M  V30 32 N -3.942461 -2.531657 0.082677 0
M  V30 33 N -2.934086 -1.708040 0.263798 0
M  V30 34 C 1.496800 1.569923 2.753592 0
M  V30 35 C 2.649062 1.161428 3.615233 0
M  V30 36 C 2.618004 2.107924 4.831359 0
M  V30 37 C 3.983441 1.408461 2.956296 0
M  V30 38 H 0.586512 -0.236553 5.110009 0
M  V30 39 H 1.956802 -1.250438 5.798979 0
M  V30 40 H 1.910681 0.486795 6.058431 0
M  V30 41 H 2.588266 -3.233896 2.926966 0
M  V30 42 H 3.397504 -2.396929 4.268742 0
M  V30 43 H 3.971053 -2.111040 2.536221 0
M  V30 44 H 0.706644 -2.177676 4.486490 0
M  V30 45 H -0.118089 -1.120005 3.229432 0
M  V30 46 H 0.694321 -2.711522 2.798603 0
M  V30 47 H 3.112918 -0.415302 1.366899 0
M  V30 48 H 1.665575 -1.384772 1.080273 0
M  V30 49 H 0.127887 0.262882 1.768453 0
M  V30 50 H 2.193379 2.691614 -1.393692 0
M  V30 51 H -1.556370 0.024494 -3.064808 0
M  V30 52 H -0.518759 -1.008551 0.204653 0
M  V30 53 H -4.174257 -4.252607 -3.430050 0
M  V30 54 H -2.761831 -4.217442 -5.375226 0
M  V30 55 H -3.004590 -1.228155 -4.606276 0
M  V30 56 H -2.586825 -1.911387 -6.258716 0
M  V30 57 H -0.531771 -3.098433 -5.376132 0
M  V30 58 H -0.797877 -2.298105 -3.742480 0
M  V30 59 H -6.594390 -4.229138 0.649946 0
M  V30 60 H 1.645134 2.611556 2.399088 0
M  V30 61 H 0.607460 1.616091 3.415042 0
M  V30 62 H 2.993269 3.084037 4.407102 0
M  V30 63 H 3.380553 1.825799 5.575919 0
M  V30 64 H 1.614013 2.290819 5.204639 0
M  V30 65 H 4.642449 0.507849 2.947946 0
M  V30 66 H 4.598711 2.181160 3.490638 0
M  V30 67 H 3.853990 1.838643 1.933001 0
M  V30 END ATOM
M  V30 BEGIN BOND
M  V30 1 1 1 2
M  V30 2 1 2 3
M  V30 3 1 3 4
M  V30 4 1 3 5
M  V30 5 1 3 6
M  V30 6 1 6 7
M  V30 7 1 7 8
M  V30 8 1 8 9
M  V30 9 2 9 10
M  V30 10 1 10 11
M  V30 11 1 11 12
M  V30 12 2 11 13
M  V30 13 1 13 14
M  V30 14 3 14 15
M  V30 15 1 13 16
M  V30 16 2 16 17
M  V30 17 1 17 18
M  V30 18 1 18 19
M  V30 19 1 19 20
M  V30 20 2 20 21
M  V30 21 1 21 22
M  V30 22 1 22 23
M  V30 23 1 23 24
M  V30 24 1 24 25
M  V30 25 1 21 26
M  V30 26 2 26 27
M  V30 27 1 27 28
M  V30 28 2 28 29
M  V30 29 1 29 30
M  V30 30 3 30 31
M  V30 31 1 29 32
M  V30 32 1 32 33
M  V30 33 1 7 34
M  V30 34 1 34 35
M  V30 35 1 35 36
M  V30 36 1 35 37
M  V30 37 1 35 2
M  V30 38 1 17 9
M  V30 39 2 33 19
M  V30 40 1 25 23
M  V30 41 1 32 26
M  V30 42 1 1 38
M  V30 43 1 1 39
M  V30 44 1 1 40
M  V30 45 1 4 41
M  V30 46 1 4 42
M  V30 47 1 4 43
M  V30 48 1 5 44
M  V30 49 1 5 45
M  V30 50 1 5 46
M  V30 51 1 6 47
M  V30 52 1 6 48
M  V30 53 1 7 49
M  V30 54 1 10 50
M  V30 55 1 16 51
M  V30 56 1 18 52
M  V30 57 1 22 53
M  V30 58 1 23 54
M  V30 59 1 24 55
M  V30 60 1 24 56
M  V30 61 1 25 57
M  V30 62 1 25 58
M  V30 63 1 28 59
M  V30 64 1 34 60
M  V30 65 1 34 61
M  V30 66 1 36 62
M  V30 67 1 36 63
M  V30 68 1 36 64
M  V30 69 1 37 65
M  V30 70 1 37 66
M  V30 71 1 37 67
M  V30 END BOND
M  V30 END CTAB
M  END
>  <Dataset>  (302) 
ChEMBL_Kinases

>  <Ligand_Instance>  (302) 
nan

>  <PDB_ID>  (302) 
nan

>  <Standardized_SMILES>  (302) 
CN1C(C)(C)CC(Oc2cc(F)c(C#N)cc2Nc2nc(NC3CC3)c3ncc(C#N)n3n2)CC1(C)C

>  <Name>  (302) 
nan

>  <Pocket>  (302) 
nan

>  <ATP_Site>  (302) 
nan

>  <Peripheral>  (302) 
nan

>  <Num_H_Atoms_ProtBoundConf>  (302) 
nan

>  <Num_Resolved_Atoms>  (302) 
nan

>  <Num_Not_Resolved_Atoms>  (302) 
nan

$$$$
CHEMBL4519366
     RDKit          3D

  0  0  0  0  0  0  0  0  0  0999 V3000
M  V30 BEGIN CTAB
M  V30 COUNTS 32 34 0 0 0
M  V30 BEGIN ATOM
M  V30 1 C -3.229127 -4.086860 3.371645 0
M  V30 2 C -2.093073 -3.476067 2.639358 0
M  V30 3 C -1.199024 -4.222387 1.872337 0
M  V30 4 C -0.163625 -3.598806 1.190755 0
M  V30 5 C -0.001658 -2.237173 1.259997 0
M  V30 6 C 1.123869 -1.607611 0.529634 0
M  V30 7 C 2.116426 -2.257108 -0.176789 0
M  V30 8 C 2.942178 -1.271197 -0.678157 0
M  V30 9 C 2.433201 -0.062206 -0.267583 0
M  V30 10 C 2.893605 1.293374 -0.497533 0
M  V30 11 C 2.146769 2.291540 -0.925762 0
M  V30 12 S 2.560462 4.036601 -1.259766 0
M  V30 13 C 0.868919 4.623823 -0.945771 0
M  V30 14 N 0.432071 5.743297 -0.522851 0
M  V30 15 N 0.069844 3.489934 -1.293529 0
M  V30 16 C 0.713791 2.220447 -1.294791 0
M  V30 17 O 0.189925 1.109666 -1.569755 0
M  V30 18 O 1.379612 -0.313264 0.427921 0
M  V30 19 C -0.849930 -1.444447 1.999639 0
M  V30 20 C -1.862150 -2.123821 2.657114 0
M  V30 21 Cl -2.973689 -1.159138 3.621457 0
M  V30 22 H -4.178383 -3.704094 2.916486 0
M  V30 23 H -3.242255 -3.824580 4.452035 0
M  V30 24 H -3.211879 -5.192800 3.254118 0
M  V30 25 H -1.339339 -5.281026 1.821401 0
M  V30 26 H 0.467535 -4.259495 0.623837 0
M  V30 27 H 2.215623 -3.344183 -0.303866 0
M  V30 28 H 3.822607 -1.394388 -1.280168 0
M  V30 29 H 3.939440 1.594553 -0.326779 0
M  V30 30 H -0.588859 5.911094 -0.398477 0
M  V30 31 H -0.962033 3.582602 -1.543880 0
M  V30 32 H -0.722968 -0.380578 2.055096 0
M  V30 END ATOM
M  V30 BEGIN BOND
M  V30 1 1 1 2
M  V30 2 2 2 3
M  V30 3 1 3 4
M  V30 4 2 4 5
M  V30 5 1 5 6
M  V30 6 2 6 7
M  V30 7 1 7 8
M  V30 8 2 8 9
M  V30 9 1 9 10
M  V30 10 2 10 11
M  V30 11 1 11 12
M  V30 12 1 12 13
M  V30 13 2 13 14 CFG=2
M  V30 14 1 13 15
M  V30 15 1 15 16
M  V30 16 2 16 17
M  V30 17 1 9 18
M  V30 18 1 5 19
M  V30 19 2 19 20
M  V30 20 1 20 21
M  V30 21 1 20 2
M  V30 22 1 18 6
M  V30 23 1 16 11
M  V30 24 1 1 22
M  V30 25 1 1 23
M  V30 26 1 1 24
M  V30 27 1 3 25
M  V30 28 1 4 26
M  V30 29 1 7 27
M  V30 30 1 8 28
M  V30 31 1 10 29
M  V30 32 1 14 30
M  V30 33 1 15 31
M  V30 34 1 19 32
M  V30 END BOND
M  V30 END CTAB
M  END
>  <Dataset>  (303) 
ChEMBL_Kinases

>  <Ligand_Instance>  (303) 
nan

>  <PDB_ID>  (303) 
nan

>  <Standardized_SMILES>  (303) 
Cc1ccc(-c2ccc(/C=C3/SC(=N)NC3=O)o2)cc1Cl

>  <Name>  (303) 
nan

>  <Pocket>  (303) 
nan

>  <ATP_Site>  (303) 
nan

>  <Peripheral>  (303) 
nan

>  <Num_H_Atoms_ProtBoundConf>  (303) 
nan

>  <Num_Resolved_Atoms>  (303) 
nan

>  <Num_Not_Resolved_Atoms>  (303) 
nan

$$$$
CHEMBL3699299
     RDKit          3D

  0  0  0  0  0  0  0  0  0  0999 V3000
M  V30 BEGIN CTAB
M  V30 COUNTS 64 68 0 0 0
M  V30 BEGIN ATOM
M  V30 1 C 5.454824 -2.692115 3.942231 0
M  V30 2 C 4.176015 -1.902539 3.767125 0
M  V30 3 C 4.350804 -0.662384 4.663123 0
M  V30 4 C 4.093410 -1.439339 2.347916 0
M  V30 5 C 3.096039 -2.216948 1.526791 0
M  V30 6 O 1.920342 -1.473738 1.323533 0
M  V30 7 C 1.485249 -1.019154 0.103640 0
M  V30 8 C 2.001118 -1.128895 -1.168852 0
M  V30 9 C 1.348536 -0.567179 -2.244240 0
M  V30 10 F 1.902325 -0.707166 -3.456732 0
M  V30 11 C 0.165574 0.129702 -2.152415 0
M  V30 12 N -0.518730 0.700102 -3.259203 0
M  V30 13 C -1.746387 1.427001 -3.026965 0
M  V30 14 N -2.794229 0.589555 -2.951768 0
M  V30 15 C -4.010108 1.123297 -2.739060 0
M  V30 16 N -5.163671 0.260956 -2.639454 0
M  V30 17 C -6.564041 0.619802 -2.412806 0
M  V30 18 C -7.592594 -0.450022 -2.322573 0
M  V30 19 C -7.477571 0.369211 -3.586250 0
M  V30 20 C -4.191410 2.491349 -2.600831 0
M  V30 21 N -5.254827 3.268945 -2.391044 0
M  V30 22 C -4.881037 4.558266 -2.337605 0
M  V30 23 C -3.494389 4.517149 -2.531530 0
M  V30 24 C -2.661227 5.711427 -2.549547 0
M  V30 25 N -2.005250 6.678386 -2.564486 0
M  V30 26 N -3.082375 3.246620 -2.691756 0
M  V30 27 N -1.865925 2.765303 -2.899471 0
M  V30 28 C -0.377164 0.253604 -0.866251 0
M  V30 29 C 0.279286 -0.312429 0.221046 0
M  V30 30 C -0.398021 -0.102977 1.471966 0
M  V30 31 N -0.933169 0.068429 2.503651 0
M  V30 32 C 2.843397 -3.584436 2.079221 0
M  V30 33 C 2.476072 -3.645116 3.521566 0
M  V30 34 C 0.957285 -3.393911 3.576395 0
M  V30 35 C 2.639723 -5.023196 4.117598 0
M  V30 36 N 3.083584 -2.618009 4.262295 0
M  V30 37 H 5.561624 -3.528186 3.239260 0
M  V30 38 H 5.389357 -3.162480 4.964630 0
M  V30 39 H 6.355393 -2.032990 3.901872 0
M  V30 40 H 3.468988 -0.011008 4.652995 0
M  V30 41 H 4.695528 -0.960038 5.673849 0
M  V30 42 H 5.215404 -0.071465 4.247574 0
M  V30 43 H 5.100922 -1.422362 1.888594 0
M  V30 44 H 3.752203 -0.383740 2.350948 0
M  V30 45 H 3.571203 -2.366253 0.538333 0
M  V30 46 H 2.915584 -1.671091 -1.217920 0
M  V30 47 H -0.061648 0.543241 -4.198602 0
M  V30 48 H -4.997001 -0.785058 -2.741758 0
M  V30 49 H -6.786544 1.548594 -1.846054 0
M  V30 50 H -7.257373 -1.519057 -2.359372 0
M  V30 51 H -8.483340 -0.259192 -1.684540 0
M  V30 52 H -7.105068 -0.190142 -4.477196 0
M  V30 53 H -8.299059 1.093178 -3.800561 0
M  V30 54 H -5.527214 5.393438 -2.180352 0
M  V30 55 H -1.296374 0.794409 -0.787222 0
M  V30 56 H 3.724638 -4.262023 1.920665 0
M  V30 57 H 2.017000 -4.112794 1.538510 0
M  V30 58 H 0.752132 -2.317155 3.807425 0
M  V30 59 H 0.484692 -3.610816 2.598528 0
M  V30 60 H 0.475935 -3.972892 4.387089 0
M  V30 61 H 2.455926 -4.907799 5.221035 0
M  V30 62 H 3.591114 -5.498498 3.885936 0
M  V30 63 H 1.823175 -5.660165 3.725301 0
M  V30 64 H 2.411810 -2.092584 4.849489 0
M  V30 END ATOM
M  V30 BEGIN BOND
M  V30 1 1 1 2
M  V30 2 1 2 3
M  V30 3 1 2 4
M  V30 4 1 4 5
M  V30 5 1 5 6
M  V30 6 1 6 7
M  V30 7 2 7 8
M  V30 8 1 8 9
M  V30 9 1 9 10
M  V30 10 2 9 11
M  V30 11 1 11 12
M  V30 12 1 12 13
M  V30 13 1 13 14
M  V30 14 2 14 15
M  V30 15 1 15 16
M  V30 16 1 16 17
M  V30 17 1 17 18
M  V30 18 1 18 19
M  V30 19 1 15 20
M  V30 20 2 20 21
M  V30 21 1 21 22
M  V30 22 2 22 23
M  V30 23 1 23 24
M  V30 24 3 24 25
M  V30 25 1 23 26
M  V30 26 1 26 27
M  V30 27 1 11 28
M  V30 28 2 28 29
M  V30 29 1 29 30
M  V30 30 3 30 31
M  V30 31 1 5 32
M  V30 32 1 32 33
M  V30 33 1 33 34
M  V30 34 1 33 35
M  V30 35 1 33 36
M  V30 36 1 36 2
M  V30 37 1 29 7
M  V30 38 2 27 13
M  V30 39 1 19 17
M  V30 40 1 26 20
M  V30 41 1 1 37
M  V30 42 1 1 38
M  V30 43 1 1 39
M  V30 44 1 3 40
M  V30 45 1 3 41
M  V30 46 1 3 42
M  V30 47 1 4 43
M  V30 48 1 4 44
M  V30 49 1 5 45
M  V30 50 1 8 46
M  V30 51 1 12 47
M  V30 52 1 16 48
M  V30 53 1 17 49
M  V30 54 1 18 50
M  V30 55 1 18 51
M  V30 56 1 19 52
M  V30 57 1 19 53
M  V30 58 1 22 54
M  V30 59 1 28 55
M  V30 60 1 32 56
M  V30 61 1 32 57
M  V30 62 1 34 58
M  V30 63 1 34 59
M  V30 64 1 34 60
M  V30 65 1 35 61
M  V30 66 1 35 62
M  V30 67 1 35 63
M  V30 68 1 36 64
M  V30 END BOND
M  V30 END CTAB
M  END
>  <Dataset>  (304) 
ChEMBL_Kinases

>  <Ligand_Instance>  (304) 
nan

>  <PDB_ID>  (304) 
nan

>  <Standardized_SMILES>  (304) 
CC1(C)CC(Oc2cc(F)c(Nc3nc(NC4CC4)c4ncc(C#N)n4n3)cc2C#N)CC(C)(C)N1

>  <Name>  (304) 
nan

>  <Pocket>  (304) 
nan

>  <ATP_Site>  (304) 
nan

>  <Peripheral>  (304) 
nan

>  <Num_H_Atoms_ProtBoundConf>  (304) 
nan

>  <Num_Resolved_Atoms>  (304) 
nan

>  <Num_Not_Resolved_Atoms>  (304) 
nan

$$$$
CHEMBL4519261
     RDKit          3D

  0  0  0  0  0  0  0  0  0  0999 V3000
M  V30 BEGIN CTAB
M  V30 COUNTS 47 51 0 0 0
M  V30 BEGIN ATOM
M  V30 1 C -1.651712 -3.664746 -2.315618 0
M  V30 2 C -0.222223 -3.376829 -1.941759 0
M  V30 3 C 0.792846 -4.141612 -2.478846 0
M  V30 4 C 2.105645 -3.847980 -2.110960 0
M  V30 5 C 2.375186 -2.817411 -1.231702 0
M  V30 6 C 1.337520 -2.078559 -0.718240 0
M  V30 7 C 1.411157 -0.961056 0.215463 0
M  V30 8 N 2.011598 0.234174 0.108597 0
M  V30 9 C 1.853568 1.008710 1.200231 0
M  V30 10 C 2.483426 2.367008 1.209877 0
M  V30 11 N 1.609103 3.367635 0.647075 0
M  V30 12 C 0.383755 3.829475 1.151411 0
M  V30 13 C -0.195248 3.409888 2.326525 0
M  V30 14 C -1.399840 3.845418 2.831918 0
M  V30 15 C -2.112336 4.789076 2.114699 0
M  V30 16 C -1.579421 5.245246 0.930075 0
M  V30 17 F -2.247493 6.173570 0.193523 0
M  V30 18 C -0.371197 4.765329 0.486637 0
M  V30 19 N 1.117140 0.237551 2.009663 0
M  V30 20 C 0.826521 -0.952631 1.464077 0
M  V30 21 C 0.038302 -1.965221 2.148042 0
M  V30 22 C -1.247397 -1.609790 2.473985 0
M  V30 23 C -2.036812 -2.525303 3.120014 0
M  V30 24 C -1.533895 -3.753458 3.420870 0
M  V30 25 N -2.266420 -4.860004 4.121316 0
M  V30 26 S -1.203376 -6.130021 4.235692 0
M  V30 27 N 0.264767 -5.405381 3.418974 0
M  V30 28 C -0.289879 -4.135973 3.120702 0
M  V30 29 C 0.492621 -3.215093 2.475077 0
M  V30 30 N 0.058287 -2.368711 -1.080080 0
M  V30 31 H -1.865905 -2.935349 -3.146261 0
M  V30 32 H -1.829641 -4.702991 -2.585639 0
M  V30 33 H -2.264809 -3.311818 -1.449950 0
M  V30 34 H 0.597556 -4.957547 -3.173212 0
M  V30 35 H 2.961141 -4.410731 -2.495869 0
M  V30 36 H 3.358380 -2.519858 -0.891933 0
M  V30 37 H 2.524126 0.426603 -0.790818 0
M  V30 38 H 3.426156 2.367833 0.627873 0
M  V30 39 H 2.779884 2.630658 2.255825 0
M  V30 40 H 1.915155 3.824724 -0.267056 0
M  V30 41 H 0.294292 2.689576 2.941325 0
M  V30 42 H -1.816243 3.487133 3.760290 0
M  V30 43 H -3.065069 5.200138 2.415813 0
M  V30 44 H -0.000993 5.169902 -0.466016 0
M  V30 45 H -1.699679 -0.659140 2.263867 0
M  V30 46 H -3.041703 -2.338733 3.410639 0
M  V30 47 H 1.513245 -3.367973 2.165481 0
M  V30 END ATOM
M  V30 BEGIN BOND
M  V30 1 1 1 2
M  V30 2 2 2 3
M  V30 3 1 3 4
M  V30 4 2 4 5
M  V30 5 1 5 6
M  V30 6 1 6 7
M  V30 7 1 7 8
M  V30 8 1 8 9
M  V30 9 1 9 10
M  V30 10 1 10 11
M  V30 11 1 11 12
M  V30 12 2 12 13
M  V30 13 1 13 14
M  V30 14 2 14 15
M  V30 15 1 15 16
M  V30 16 1 16 17
M  V30 17 2 16 18
M  V30 18 2 9 19
M  V30 19 1 19 20
M  V30 20 1 20 21
M  V30 21 1 21 22
M  V30 22 2 22 23
M  V30 23 1 23 24
M  V30 24 2 24 25
M  V30 25 1 25 26
M  V30 26 1 26 27
M  V30 27 2 27 28
M  V30 28 1 28 29
M  V30 29 2 6 30
M  V30 30 1 30 2
M  V30 31 2 20 7
M  V30 32 2 29 21
M  V30 33 1 18 12
M  V30 34 1 28 24
M  V30 35 1 1 31
M  V30 36 1 1 32
M  V30 37 1 1 33
M  V30 38 1 3 34
M  V30 39 1 4 35
M  V30 40 1 5 36
M  V30 41 1 8 37
M  V30 42 1 10 38
M  V30 43 1 10 39
M  V30 44 1 11 40
M  V30 45 1 13 41
M  V30 46 1 14 42
M  V30 47 1 15 43
M  V30 48 1 18 44
M  V30 49 1 22 45
M  V30 50 1 23 46
M  V30 51 1 29 47
M  V30 END BOND
M  V30 END CTAB
M  END
>  <Dataset>  (305) 
ChEMBL_Kinases

>  <Ligand_Instance>  (305) 
nan

>  <PDB_ID>  (305) 
nan

>  <Standardized_SMILES>  (305) 
Cc1cccc(-c2[nH]c(CNc3cccc(F)c3)nc2-c2ccc3nsnc3c2)n1

>  <Name>  (305) 
nan

>  <Pocket>  (305) 
nan

>  <ATP_Site>  (305) 
nan

>  <Peripheral>  (305) 
nan

>  <Num_H_Atoms_ProtBoundConf>  (305) 
nan

>  <Num_Resolved_Atoms>  (305) 
nan

>  <Num_Not_Resolved_Atoms>  (305) 
nan

$$$$
CHEMBL3699298
     RDKit          3D

  0  0  0  0  0  0  0  0  0  0999 V3000
M  V30 BEGIN CTAB
M  V30 COUNTS 67 71 0 0 0
M  V30 BEGIN ATOM
M  V30 1 C 4.989470 2.247497 2.363509 0
M  V30 2 N 4.770063 1.071913 1.617354 0
M  V30 3 C 4.608875 -0.149691 2.304308 0
M  V30 4 C 6.002418 -0.668924 2.688262 0
M  V30 5 C 3.913265 0.146568 3.614794 0
M  V30 6 C 3.875575 -1.217356 1.586768 0
M  V30 7 C 2.959438 -0.728077 0.477454 0
M  V30 8 O 1.781009 -0.205388 0.919888 0
M  V30 9 C 0.482851 -0.404426 0.877039 0
M  V30 10 C -0.177355 0.590494 1.615126 0
M  V30 11 C -1.570147 0.642001 1.753755 0
M  V30 12 F -2.253369 1.573583 2.449716 0
M  V30 13 C -2.299832 -0.344721 1.124289 0
M  V30 14 N -3.720608 -0.355953 1.228030 0
M  V30 15 C -4.648172 -1.269611 0.667442 0
M  V30 16 N -5.294750 -1.198171 -0.524832 0
M  V30 17 C -6.151833 -2.171441 -0.903686 0
M  V30 18 N -6.805078 -2.050837 -2.158288 0
M  V30 19 C -6.593395 -0.943544 -3.034338 0
M  V30 20 C -5.265018 -0.611294 -3.588715 0
M  V30 21 C -6.183425 -1.355592 -4.484940 0
M  V30 22 C -6.367576 -3.245485 -0.066683 0
M  V30 23 N -7.145197 -4.335734 -0.179116 0
M  V30 24 C -7.021017 -5.124303 0.920675 0
M  V30 25 C -6.117908 -4.463529 1.731428 0
M  V30 26 C -5.608141 -4.842519 3.033800 0
M  V30 27 N -5.196860 -5.157289 4.067447 0
M  V30 28 N -5.729361 -3.321360 1.116301 0
M  V30 29 N -4.889820 -2.344441 1.461174 0
M  V30 30 C -1.732481 -1.356859 0.380805 0
M  V30 31 C -0.357817 -1.324158 0.301721 0
M  V30 32 C 0.285346 -2.348819 -0.457843 0
M  V30 33 N 0.783986 -3.178713 -1.073832 0
M  V30 34 C 3.701841 0.215195 -0.453438 0
M  V30 35 C 4.655858 1.136706 0.228832 0
M  V30 36 C 4.216897 2.568203 -0.116737 0
M  V30 37 C 6.052313 0.995538 -0.379021 0
M  V30 38 H 5.286427 1.943337 3.405833 0
M  V30 39 H 5.903837 2.782505 1.978896 0
M  V30 40 H 4.164527 2.986581 2.376442 0
M  V30 41 H 5.942602 -1.389917 3.528496 0
M  V30 42 H 6.689004 0.120235 2.984789 0
M  V30 43 H 6.449416 -1.224474 1.837674 0
M  V30 44 H 3.376358 1.114753 3.593500 0
M  V30 45 H 4.604720 0.161939 4.483177 0
M  V30 46 H 3.163591 -0.640680 3.800985 0
M  V30 47 H 4.598166 -1.944922 1.132080 0
M  V30 48 H 3.230602 -1.848928 2.256496 0
M  V30 49 H 2.762992 -1.625710 -0.136666 0
M  V30 50 H 0.272117 1.433126 2.165433 0
M  V30 51 H -4.215145 0.381767 1.778610 0
M  V30 52 H -7.462774 -2.810575 -2.434738 0
M  V30 53 H -7.421547 -0.191968 -3.029236 0
M  V30 54 H -5.107959 0.461603 -3.905234 0
M  V30 55 H -4.395761 -1.167302 -3.197397 0
M  V30 56 H -6.008670 -2.445912 -4.654211 0
M  V30 57 H -6.737691 -0.899429 -5.308156 0
M  V30 58 H -7.501726 -6.072582 1.160116 0
M  V30 59 H -2.289162 -2.119969 -0.106516 0
M  V30 60 H 4.252439 -0.375287 -1.214299 0
M  V30 61 H 2.914363 0.750258 -1.036935 0
M  V30 62 H 3.221184 2.799766 0.264730 0
M  V30 63 H 5.000493 3.304042 0.202320 0
M  V30 64 H 4.188828 2.609145 -1.223309 0
M  V30 65 H 6.839443 1.276703 0.349888 0
M  V30 66 H 6.151665 1.684557 -1.241570 0
M  V30 67 H 6.188378 -0.022340 -0.814869 0
M  V30 END ATOM
M  V30 BEGIN BOND
M  V30 1 1 1 2
M  V30 2 1 2 3
M  V30 3 1 3 4
M  V30 4 1 3 5
M  V30 5 1 3 6
M  V30 6 1 6 7
M  V30 7 1 7 8
M  V30 8 1 8 9
M  V30 9 2 9 10
M  V30 10 1 10 11
M  V30 11 1 11 12
M  V30 12 2 11 13
M  V30 13 1 13 14
M  V30 14 1 14 15
M  V30 15 1 15 16
M  V30 16 2 16 17
M  V30 17 1 17 18
M  V30 18 1 18 19
M  V30 19 1 19 20
M  V30 20 1 20 21
M  V30 21 1 17 22
M  V30 22 2 22 23
M  V30 23 1 23 24
M  V30 24 2 24 25
M  V30 25 1 25 26
M  V30 26 3 26 27
M  V30 27 1 25 28
M  V30 28 1 28 29
M  V30 29 1 13 30
M  V30 30 2 30 31
M  V30 31 1 31 32
M  V30 32 3 32 33
M  V30 33 1 7 34
M  V30 34 1 34 35
M  V30 35 1 35 36
M  V30 36 1 35 37
M  V30 37 1 35 2
M  V30 38 1 31 9
M  V30 39 2 29 15
M  V30 40 1 21 19
M  V30 41 1 28 22
M  V30 42 1 1 38
M  V30 43 1 1 39
M  V30 44 1 1 40
M  V30 45 1 4 41
M  V30 46 1 4 42
M  V30 47 1 4 43
M  V30 48 1 5 44
M  V30 49 1 5 45
M  V30 50 1 5 46
M  V30 51 1 6 47
M  V30 52 1 6 48
M  V30 53 1 7 49
M  V30 54 1 10 50
M  V30 55 1 14 51
M  V30 56 1 18 52
M  V30 57 1 19 53
M  V30 58 1 20 54
M  V30 59 1 20 55
M  V30 60 1 21 56
M  V30 61 1 21 57
M  V30 62 1 24 58
M  V30 63 1 30 59
M  V30 64 1 34 60
M  V30 65 1 34 61
M  V30 66 1 36 62
M  V30 67 1 36 63
M  V30 68 1 36 64
M  V30 69 1 37 65
M  V30 70 1 37 66
M  V30 71 1 37 67
M  V30 END BOND
M  V30 END CTAB
M  END
>  <Dataset>  (306) 
ChEMBL_Kinases

>  <Ligand_Instance>  (306) 
nan

>  <PDB_ID>  (306) 
nan

>  <Standardized_SMILES>  (306) 
CN1C(C)(C)CC(Oc2cc(F)c(Nc3nc(NC4CC4)c4ncc(C#N)n4n3)cc2C#N)CC1(C)C

>  <Name>  (306) 
nan

>  <Pocket>  (306) 
nan

>  <ATP_Site>  (306) 
nan

>  <Peripheral>  (306) 
nan

>  <Num_H_Atoms_ProtBoundConf>  (306) 
nan

>  <Num_Resolved_Atoms>  (306) 
nan

>  <Num_Not_Resolved_Atoms>  (306) 
nan

$$$$
CHEMBL4518955
     RDKit          3D

  0  0  0  0  0  0  0  0  0  0999 V3000
M  V30 BEGIN CTAB
M  V30 COUNTS 55 58 0 0 0
M  V30 BEGIN ATOM
M  V30 1 C 2.930267 -1.829420 5.705920 0
M  V30 2 S 3.347314 -0.054512 5.507871 0
M  V30 3 C 2.640730 0.561306 3.959424 0
M  V30 4 N 3.246978 0.556978 2.741875 0
M  V30 5 C 2.411585 1.094079 1.833251 0
M  V30 6 C 2.800415 1.213505 0.448243 0
M  V30 7 C 3.012807 2.309561 -0.340539 0
M  V30 8 C 3.380776 2.196039 -1.664025 0
M  V30 9 C 3.550059 0.940952 -2.247612 0
M  V30 10 F 3.910211 0.909701 -3.547785 0
M  V30 11 C 3.340948 -0.179061 -1.469317 0
M  V30 12 C 2.973338 -0.040339 -0.146895 0
M  V30 13 C 1.249645 1.437001 2.537148 0
M  V30 14 C 0.102267 2.055568 1.872381 0
M  V30 15 C -0.008984 3.307176 1.292948 0
M  V30 16 C -1.201385 3.675995 0.707545 0
M  V30 17 N -2.277033 2.869013 0.670870 0
M  V30 18 C -2.217704 1.627381 1.227487 0
M  V30 19 N -3.340137 0.712621 1.211908 0
M  V30 20 C -3.261064 -0.099110 0.048638 0
M  V30 21 O -2.210856 0.320444 -0.517724 0
M  V30 22 C -4.376558 -1.092397 -0.077039 0
M  V30 23 C -4.272097 -1.968936 -1.279280 0
M  V30 24 C -3.067626 -2.795469 -1.364050 0
M  V30 25 C -3.098332 -4.056962 -0.755930 0
M  V30 26 C -2.042072 -4.943286 -0.756908 0
M  V30 27 C -0.873208 -4.580097 -1.392711 0
M  V30 28 C 0.303522 -5.486946 -1.429399 0
M  V30 29 F 1.054871 -5.177380 -0.304926 0
M  V30 30 F -0.105807 -6.796885 -1.389466 0
M  V30 31 F 0.985776 -5.236231 -2.590786 0
M  V30 32 C -0.786610 -3.351082 -2.007916 0
M  V30 33 C -1.870543 -2.497493 -1.980732 0
M  V30 34 C -1.025090 1.222582 1.828795 0
M  V30 35 N 1.411942 1.099978 3.846757 0
M  V30 36 H 2.679705 -2.077378 6.759264 0
M  V30 37 H 3.778929 -2.485424 5.432203 0
M  V30 38 H 2.058588 -2.115970 5.089616 0
M  V30 39 H 2.862174 3.239673 0.187719 0
M  V30 40 H 3.511352 3.128228 -2.156669 0
M  V30 41 H 3.487105 -1.124212 -1.972227 0
M  V30 42 H 2.844583 -0.997680 0.338414 0
M  V30 43 H 0.887606 3.880717 1.368739 0
M  V30 44 H -1.237322 4.667290 0.266350 0
M  V30 45 H -4.058952 0.728388 2.001439 0
M  V30 46 H -4.386446 -1.729149 0.832472 0
M  V30 47 H -5.358524 -0.580377 -0.126216 0
M  V30 48 H -5.157800 -2.645440 -1.251857 0
M  V30 49 H -4.424647 -1.354190 -2.199207 0
M  V30 50 H -3.991860 -4.386087 -0.244675 0
M  V30 51 H -2.129259 -5.906979 -0.266824 0
M  V30 52 H 0.121946 -3.036102 -2.518321 0
M  V30 53 H -1.809860 -1.542168 -2.461208 0
M  V30 54 H -1.033338 0.218688 2.258924 0
M  V30 55 H 0.682753 1.252963 4.591290 0
M  V30 END ATOM
M  V30 BEGIN BOND
M  V30 1 1 1 2
M  V30 2 1 2 3
M  V30 3 2 3 4
M  V30 4 1 4 5
M  V30 5 1 5 6
M  V30 6 2 6 7
M  V30 7 1 7 8
M  V30 8 2 8 9
M  V30 9 1 9 10
M  V30 10 1 9 11
M  V30 11 2 11 12
M  V30 12 2 5 13
M  V30 13 1 13 14
M  V30 14 2 14 15
M  V30 15 1 15 16
M  V30 16 2 16 17
M  V30 17 1 17 18
M  V30 18 1 18 19
M  V30 19 1 19 20
M  V30 20 2 20 21
M  V30 21 1 20 22
M  V30 22 1 22 23
M  V30 23 1 23 24
M  V30 24 2 24 25
M  V30 25 1 25 26
M  V30 26 2 26 27
M  V30 27 1 27 28
M  V30 28 1 28 29
M  V30 29 1 28 30
M  V30 30 1 28 31
M  V30 31 1 27 32
M  V30 32 2 32 33
M  V30 33 2 18 34
M  V30 34 1 13 35
M  V30 35 1 35 3
M  V30 36 1 12 6
M  V30 37 1 34 14
M  V30 38 1 33 24
M  V30 39 1 1 36
M  V30 40 1 1 37
M  V30 41 1 1 38
M  V30 42 1 7 39
M  V30 43 1 8 40
M  V30 44 1 11 41
M  V30 45 1 12 42
M  V30 46 1 15 43
M  V30 47 1 16 44
M  V30 48 1 19 45
M  V30 49 1 22 46
M  V30 50 1 22 47
M  V30 51 1 23 48
M  V30 52 1 23 49
M  V30 53 1 25 50
M  V30 54 1 26 51
M  V30 55 1 32 52
M  V30 56 1 33 53
M  V30 57 1 34 54
M  V30 58 1 35 55
M  V30 END BOND
M  V30 END CTAB
M  END
>  <Dataset>  (307) 
ChEMBL_Kinases

>  <Ligand_Instance>  (307) 
nan

>  <PDB_ID>  (307) 
nan

>  <Standardized_SMILES>  (307) 
CSc1nc(-c2ccc(F)cc2)c(-c2ccnc(NC(=O)CCc3ccc(C(F)(F)F)cc3)c2)[nH]1

>  <Name>  (307) 
nan

>  <Pocket>  (307) 
nan

>  <ATP_Site>  (307) 
nan

>  <Peripheral>  (307) 
nan

>  <Num_H_Atoms_ProtBoundConf>  (307) 
nan

>  <Num_Resolved_Atoms>  (307) 
nan

>  <Num_Not_Resolved_Atoms>  (307) 
nan

$$$$
CHEMBL4518634
     RDKit          3D

  0  0  0  0  0  0  0  0  0  0999 V3000
M  V30 BEGIN CTAB
M  V30 COUNTS 48 51 0 0 0
M  V30 BEGIN ATOM
M  V30 1 C 2.899138 -5.825978 -1.521131 0
M  V30 2 C 3.875007 -4.789214 -1.011807 0
M  V30 3 O 3.165061 -3.595280 -0.739128 0
M  V30 4 C 3.747436 -2.430333 -0.255135 0
M  V30 5 O 5.000861 -2.415253 -0.036021 0
M  V30 6 C 2.868072 -1.270239 -0.022491 0
M  V30 7 N 3.355506 -0.086140 0.452023 0
M  V30 8 C 2.365182 0.792775 0.573356 0
M  V30 9 C 2.168909 2.170015 0.994429 0
M  V30 10 C 2.889989 3.052841 0.198353 0
M  V30 11 C 2.857360 4.421023 0.411713 0
M  V30 12 C 2.090823 4.918921 1.439009 0
M  V30 13 F 2.017012 6.253155 1.699954 0
M  V30 14 C 1.368086 4.027856 2.236240 0
M  V30 15 C 1.407741 2.668713 2.015053 0
M  V30 16 C 1.209008 0.159928 0.166857 0
M  V30 17 C -0.220234 0.447158 0.018808 0
M  V30 18 C -0.664987 1.421337 -0.850819 0
M  V30 19 C -2.031613 1.599249 -0.902974 0
M  V30 20 N -2.909085 0.893611 -0.173212 0
M  V30 21 C -2.516667 -0.061278 0.682950 0
M  V30 22 N -3.510392 -0.755976 1.411080 0
M  V30 23 C -3.372587 -1.792575 2.367735 0
M  V30 24 O -2.222817 -2.200443 2.656983 0
M  V30 25 C -4.505814 -2.445230 3.066879 0
M  V30 26 C -5.757986 -2.739134 2.327488 0
M  V30 27 C -5.678219 -1.615831 3.352449 0
M  V30 28 C -1.165338 -0.246858 0.743331 0
M  V30 29 N 1.523703 -1.116070 -0.201098 0
M  V30 30 H 3.460390 -6.576002 -2.110796 0
M  V30 31 H 2.401811 -6.385864 -0.696077 0
M  V30 32 H 2.095484 -5.326308 -2.079471 0
M  V30 33 H 4.746646 -4.647368 -1.666878 0
M  V30 34 H 4.244732 -5.141964 -0.010953 0
M  V30 35 H 3.529779 2.784956 -0.641044 0
M  V30 36 H 3.397281 5.147898 -0.175866 0
M  V30 37 H 0.755115 4.377326 3.050580 0
M  V30 38 H 0.887140 1.917912 2.575710 0
M  V30 39 H 0.031244 2.000222 -1.446911 0
M  V30 40 H -2.464724 2.343039 -1.559347 0
M  V30 41 H -4.515503 -0.515496 1.267247 0
M  V30 42 H -4.166554 -3.230498 3.776192 0
M  V30 43 H -5.910116 -2.434348 1.277887 0
M  V30 44 H -6.351415 -3.606051 2.653774 0
M  V30 45 H -5.747692 -0.572413 3.001044 0
M  V30 46 H -6.164677 -1.784007 4.338353 0
M  V30 47 H -0.766527 -0.995080 1.406387 0
M  V30 48 H 1.028457 -1.963913 -0.565981 0
M  V30 END ATOM
M  V30 BEGIN BOND
M  V30 1 1 1 2
M  V30 2 1 2 3
M  V30 3 1 3 4
M  V30 4 2 4 5
M  V30 5 1 4 6
M  V30 6 2 6 7
M  V30 7 1 7 8
M  V30 8 1 8 9
M  V30 9 2 9 10
M  V30 10 1 10 11
M  V30 11 2 11 12
M  V30 12 1 12 13
M  V30 13 1 12 14
M  V30 14 2 14 15
M  V30 15 2 8 16
M  V30 16 1 16 17
M  V30 17 2 17 18
M  V30 18 1 18 19
M  V30 19 2 19 20
M  V30 20 1 20 21
M  V30 21 1 21 22
M  V30 22 1 22 23
M  V30 23 2 23 24
M  V30 24 1 23 25
M  V30 25 1 25 26
M  V30 26 1 26 27
M  V30 27 2 21 28
M  V30 28 1 16 29
M  V30 29 1 29 6
M  V30 30 1 15 9
M  V30 31 1 28 17
M  V30 32 1 27 25
M  V30 33 1 1 30
M  V30 34 1 1 31
M  V30 35 1 1 32
M  V30 36 1 2 33
M  V30 37 1 2 34
M  V30 38 1 10 35
M  V30 39 1 11 36
M  V30 40 1 14 37
M  V30 41 1 15 38
M  V30 42 1 18 39
M  V30 43 1 19 40
M  V30 44 1 22 41
M  V30 45 1 25 42
M  V30 46 1 26 43
M  V30 47 1 26 44
M  V30 48 1 27 45
M  V30 49 1 27 46
M  V30 50 1 28 47
M  V30 51 1 29 48
M  V30 END BOND
M  V30 END CTAB
M  END
>  <Dataset>  (308) 
ChEMBL_Kinases

>  <Ligand_Instance>  (308) 
nan

>  <PDB_ID>  (308) 
nan

>  <Standardized_SMILES>  (308) 
CCOC(=O)c1nc(-c2ccc(F)cc2)c(-c2ccnc(NC(=O)C3CC3)c2)[nH]1

>  <Name>  (308) 
nan

>  <Pocket>  (308) 
nan

>  <ATP_Site>  (308) 
nan

>  <Peripheral>  (308) 
nan

>  <Num_H_Atoms_ProtBoundConf>  (308) 
nan

>  <Num_Resolved_Atoms>  (308) 
nan

>  <Num_Not_Resolved_Atoms>  (308) 
nan

$$$$
CHEMBL3699668
     RDKit          3D

  0  0  0  0  0  0  0  0  0  0999 V3000
M  V30 BEGIN CTAB
M  V30 COUNTS 59 64 0 0 0
M  V30 BEGIN ATOM
M  V30 1 C 5.507972 -0.809933 1.897826 0
M  V30 2 C 5.888949 0.515172 2.453062 0
M  V30 3 C 7.201664 0.746082 2.886868 0
M  V30 4 C 7.636318 1.943825 3.413752 0
M  V30 5 C 6.742249 2.988513 3.528962 0
M  V30 6 C 5.433233 2.764941 3.098612 0
M  V30 7 C 5.002565 1.565361 2.572226 0
M  V30 8 C 3.626891 1.365141 2.130925 0
M  V30 9 C 2.658786 2.343173 2.205601 0
M  V30 10 C 1.348709 2.162839 1.788239 0
M  V30 11 N 1.004427 0.965007 1.282181 0
M  V30 12 C -0.191501 0.557018 0.816783 0
M  V30 13 C -1.472562 1.219778 0.697010 0
M  V30 14 C -1.710761 2.347618 -0.064481 0
M  V30 15 C -2.972181 2.938082 -0.137978 0
M  V30 16 C -3.992274 2.345305 0.590077 0
M  V30 17 C -3.774033 1.219136 1.356383 0
M  V30 18 C -2.511278 0.643023 1.418796 0
M  V30 19 C -0.000315 -0.752098 0.417192 0
M  V30 20 C -0.893601 -1.750465 -0.168495 0
M  V30 21 C -1.463709 -1.477182 -1.404604 0
M  V30 22 C -2.313752 -2.381294 -2.009052 0
M  V30 23 C -2.614009 -3.577612 -1.394402 0
M  V30 24 C -3.495548 -4.626423 -1.913823 0
M  V30 25 N -3.028118 -5.987400 -1.815692 0
M  V30 26 C -4.148408 -4.377273 -3.252784 0
M  V30 27 C -5.390138 -5.064927 -2.666704 0
M  V30 28 C -4.898670 -4.530183 -1.315054 0
M  V30 29 C -2.051436 -3.856038 -0.166253 0
M  V30 30 C -1.201168 -2.957535 0.443927 0
M  V30 31 N 1.294047 -1.075227 0.657141 0
M  V30 32 C 1.928241 -0.009610 1.196724 0
M  V30 33 N 3.189706 0.205861 1.612899 0
M  V30 34 H 4.775892 -1.260227 2.603558 0
M  V30 35 H 5.201144 -0.795679 0.850381 0
M  V30 36 H 6.408121 -1.479866 1.957514 0
M  V30 37 H 7.894281 -0.088780 2.789531 0
M  V30 38 H 8.675577 2.041691 3.728305 0
M  V30 39 H 7.061377 3.932354 3.938062 0
M  V30 40 H 4.786594 3.602418 3.209899 0
M  V30 41 H 2.881351 3.308568 2.598412 0
M  V30 42 H 0.609950 2.957023 1.861406 0
M  V30 43 H -0.824404 2.725097 -0.596058 0
M  V30 44 H -3.080443 3.821657 -0.756520 0
M  V30 45 H -4.958441 2.826069 0.512442 0
M  V30 46 H -4.641560 0.827952 1.892805 0
M  V30 47 H -2.423633 -0.242119 2.044529 0
M  V30 48 H -1.261616 -0.559674 -1.923508 0
M  V30 49 H -2.772789 -2.197665 -2.971040 0
M  V30 50 H -2.053181 -6.126707 -2.125228 0
M  V30 51 H -3.047412 -6.281230 -0.798401 0
M  V30 52 H -4.388317 -3.333080 -3.488372 0
M  V30 53 H -3.731256 -4.984379 -4.059348 0
M  V30 54 H -6.336830 -4.639183 -3.009922 0
M  V30 55 H -5.317966 -6.179819 -2.635066 0
M  V30 56 H -5.168663 -3.473390 -1.180930 0
M  V30 57 H -5.078830 -5.189016 -0.464617 0
M  V30 58 H -2.171256 -4.743026 0.466413 0
M  V30 59 H -0.709111 -3.086601 1.409436 0
M  V30 END ATOM
M  V30 BEGIN BOND
M  V30 1 1 1 2
M  V30 2 2 2 3
M  V30 3 1 3 4
M  V30 4 2 4 5
M  V30 5 1 5 6
M  V30 6 2 6 7
M  V30 7 1 7 8
M  V30 8 1 8 9
M  V30 9 2 9 10
M  V30 10 1 10 11
M  V30 11 1 11 12
M  V30 12 1 12 13
M  V30 13 2 13 14
M  V30 14 1 14 15
M  V30 15 2 15 16
M  V30 16 1 16 17
M  V30 17 2 17 18
M  V30 18 2 12 19
M  V30 19 1 19 20
M  V30 20 2 20 21
M  V30 21 1 21 22
M  V30 22 2 22 23
M  V30 23 1 23 24
M  V30 24 1 24 25
M  V30 25 1 24 26
M  V30 26 1 26 27
M  V30 27 1 27 28
M  V30 28 1 23 29
M  V30 29 2 29 30
M  V30 30 1 19 31
M  V30 31 2 31 32
M  V30 32 1 32 33
M  V30 33 1 7 2
M  V30 34 2 33 8
M  V30 35 1 32 11
M  V30 36 1 18 13
M  V30 37 1 30 20
M  V30 38 1 28 24
M  V30 39 1 1 34
M  V30 40 1 1 35
M  V30 41 1 1 36
M  V30 42 1 3 37
M  V30 43 1 4 38
M  V30 44 1 5 39
M  V30 45 1 6 40
M  V30 46 1 9 41
M  V30 47 1 10 42
M  V30 48 1 14 43
M  V30 49 1 15 44
M  V30 50 1 16 45
M  V30 51 1 17 46
M  V30 52 1 18 47
M  V30 53 1 21 48
M  V30 54 1 22 49
M  V30 55 1 25 50
M  V30 56 1 25 51
M  V30 57 1 26 52
M  V30 58 1 26 53
M  V30 59 1 27 54
M  V30 60 1 27 55
M  V30 61 1 28 56
M  V30 62 1 28 57
M  V30 63 1 29 58
M  V30 64 1 30 59
M  V30 END BOND
M  V30 END CTAB
M  END
>  <Dataset>  (309) 
ChEMBL_Kinases

>  <Ligand_Instance>  (309) 
nan

>  <PDB_ID>  (309) 
nan

>  <Standardized_SMILES>  (309) 
Cc1ccccc1-c1ccn2c(-c3ccccc3)c(-c3ccc(C4(N)CCC4)cc3)nc2n1

>  <Name>  (309) 
nan

>  <Pocket>  (309) 
nan

>  <ATP_Site>  (309) 
nan

>  <Peripheral>  (309) 
nan

>  <Num_H_Atoms_ProtBoundConf>  (309) 
nan

>  <Num_Resolved_Atoms>  (309) 
nan

>  <Num_Not_Resolved_Atoms>  (309) 
nan

$$$$
CHEMBL4518443
     RDKit          3D

  0  0  0  0  0  0  0  0  0  0999 V3000
M  V30 BEGIN CTAB
M  V30 COUNTS 28 29 0 0 0
M  V30 BEGIN ATOM
M  V30 1 C 0.568939 -4.101998 4.947237 0
M  V30 2 N 0.174847 -3.142483 3.927477 0
M  V30 3 C 1.155435 -2.646311 3.008805 0
M  V30 4 O 2.309908 -3.107286 3.180450 0
M  V30 5 C 0.704719 -1.685386 2.005161 0
M  V30 6 C -0.567091 -1.178414 1.816909 0
M  V30 7 C -0.785079 -0.271391 0.800673 0
M  V30 8 C 0.239215 0.146086 -0.038350 0
M  V30 9 C -0.090570 1.108360 -1.083719 0
M  V30 10 C 0.671004 0.996983 -2.243514 0
M  V30 11 C 0.410479 1.887620 -3.289059 0
M  V30 12 C -0.584923 2.831396 -3.123565 0
M  V30 13 N -1.316475 2.922575 -1.982754 0
M  V30 14 C -1.074873 2.066740 -0.962556 0
M  V30 15 C 1.519948 -0.347872 0.131489 0
M  V30 16 C 1.713435 -1.258680 1.160236 0
M  V30 17 H -0.010967 -3.987866 5.883076 0
M  V30 18 H 0.308558 -5.117940 4.562974 0
M  V30 19 H 1.660683 -4.073814 5.122699 0
M  V30 20 H -0.825682 -2.893621 3.960341 0
M  V30 21 H -1.295248 -1.550227 2.503139 0
M  V30 22 H -1.808106 0.082040 0.714199 0
M  V30 23 H 1.443124 0.276580 -2.391722 0
M  V30 24 H 1.001818 1.803254 -4.192829 0
M  V30 25 H -0.742827 3.503664 -3.981371 0
M  V30 26 H -1.632071 2.101522 -0.034637 0
M  V30 27 H 2.310588 -0.017516 -0.525955 0
M  V30 28 H 2.746818 -1.599000 1.227776 0
M  V30 END ATOM
M  V30 BEGIN BOND
M  V30 1 1 1 2
M  V30 2 1 2 3
M  V30 3 2 3 4
M  V30 4 1 3 5
M  V30 5 2 5 6
M  V30 6 1 6 7
M  V30 7 2 7 8
M  V30 8 1 8 9
M  V30 9 2 9 10
M  V30 10 1 10 11
M  V30 11 2 11 12
M  V30 12 1 12 13
M  V30 13 2 13 14
M  V30 14 1 8 15
M  V30 15 2 15 16
M  V30 16 1 16 5
M  V30 17 1 14 9
M  V30 18 1 1 17
M  V30 19 1 1 18
M  V30 20 1 1 19
M  V30 21 1 2 20
M  V30 22 1 6 21
M  V30 23 1 7 22
M  V30 24 1 10 23
M  V30 25 1 11 24
M  V30 26 1 12 25
M  V30 27 1 14 26
M  V30 28 1 15 27
M  V30 29 1 16 28
M  V30 END BOND
M  V30 END CTAB
M  END
>  <Dataset>  (310) 
ChEMBL_Kinases

>  <Ligand_Instance>  (310) 
nan

>  <PDB_ID>  (310) 
nan

>  <Standardized_SMILES>  (310) 
CNC(=O)c1ccc(-c2cccnc2)cc1

>  <Name>  (310) 
nan

>  <Pocket>  (310) 
nan

>  <ATP_Site>  (310) 
nan

>  <Peripheral>  (310) 
nan

>  <Num_H_Atoms_ProtBoundConf>  (310) 
nan

>  <Num_Resolved_Atoms>  (310) 
nan

>  <Num_Not_Resolved_Atoms>  (310) 
nan

$$$$
CHEMBL4518273
     RDKit          3D

  0  0  0  0  0  0  0  0  0  0999 V3000
M  V30 BEGIN CTAB
M  V30 COUNTS 45 49 0 0 0
M  V30 BEGIN ATOM
M  V30 1 C 0.794409 -6.653215 -0.064537 0
M  V30 2 C 0.806798 -5.154745 -0.039900 0
M  V30 3 N 1.161853 -4.401746 -1.099946 0
M  V30 4 C 1.080064 -3.090633 -0.793827 0
M  V30 5 C 1.334973 -1.861317 -1.526469 0
M  V30 6 C 0.721525 -1.397511 -2.673626 0
M  V30 7 C 1.114456 -0.190994 -3.217165 0
M  V30 8 C 2.112325 0.575582 -2.644272 0
M  V30 9 C 2.732118 0.109702 -1.487586 0
M  V30 10 C 2.341564 -1.109957 -0.929956 0
M  V30 11 O 3.675650 1.096178 -1.168364 0
M  V30 12 C 3.229864 2.317999 -1.764649 0
M  V30 13 O 2.685025 1.799159 -2.981651 0
M  V30 14 C 0.649616 -3.064231 0.530533 0
M  V30 15 C 0.365830 -1.958634 1.449041 0
M  V30 16 C 1.156829 -1.915240 2.603313 0
M  V30 17 C 1.000219 -0.923040 3.564478 0
M  V30 18 N 0.055264 0.017792 3.365589 0
M  V30 19 C -0.701901 -0.019434 2.265806 0
M  V30 20 N -1.693579 0.988439 2.081557 0
M  V30 21 C -1.846077 1.985325 3.053525 0
M  V30 22 O -1.110571 1.988436 4.082000 0
M  V30 23 C -2.856003 3.088087 2.956696 0
M  V30 24 C -3.351845 3.752604 4.177036 0
M  V30 25 C -2.282401 4.431459 3.400258 0
M  V30 26 C -0.586405 -0.971967 1.294498 0
M  V30 27 N 0.487683 -4.343947 0.974922 0
M  V30 28 H 1.740872 -7.075585 -0.457325 0
M  V30 29 H 0.703307 -6.982274 0.993325 0
M  V30 30 H -0.079691 -7.035170 -0.631006 0
M  V30 31 H -0.043368 -2.054637 -3.053728 0
M  V30 32 H 0.598781 0.125040 -4.118794 0
M  V30 33 H 2.890316 -1.371885 -0.033860 0
M  V30 34 H 2.393578 2.783776 -1.189161 0
M  V30 35 H 4.073991 3.008452 -1.939623 0
M  V30 36 H 1.938369 -2.652911 2.816010 0
M  V30 37 H 1.622805 -0.900615 4.459198 0
M  V30 38 H -2.321786 1.032485 1.258427 0
M  V30 39 H -3.466137 3.037902 2.047522 0
M  V30 40 H -4.361595 4.232325 4.074353 0
M  V30 41 H -3.145223 3.415988 5.196987 0
M  V30 42 H -1.291987 4.462354 3.891913 0
M  V30 43 H -2.500460 5.246584 2.699093 0
M  V30 44 H -1.177250 -1.044961 0.384126 0
M  V30 45 H 0.177028 -4.694021 1.915383 0
M  V30 END ATOM
M  V30 BEGIN BOND
M  V30 1 1 1 2
M  V30 2 2 2 3
M  V30 3 1 3 4
M  V30 4 1 4 5
M  V30 5 2 5 6
M  V30 6 1 6 7
M  V30 7 2 7 8
M  V30 8 1 8 9
M  V30 9 2 9 10
M  V30 10 1 9 11
M  V30 11 1 11 12
M  V30 12 1 12 13
M  V30 13 2 4 14
M  V30 14 1 14 15
M  V30 15 2 15 16
M  V30 16 1 16 17
M  V30 17 2 17 18
M  V30 18 1 18 19
M  V30 19 1 19 20
M  V30 20 1 20 21
M  V30 21 2 21 22
M  V30 22 1 21 23
M  V30 23 1 23 24
M  V30 24 1 24 25
M  V30 25 2 19 26
M  V30 26 1 14 27
M  V30 27 1 27 2
M  V30 28 1 10 5
M  V30 29 1 26 15
M  V30 30 1 13 8
M  V30 31 1 25 23
M  V30 32 1 1 28
M  V30 33 1 1 29
M  V30 34 1 1 30
M  V30 35 1 6 31
M  V30 36 1 7 32
M  V30 37 1 10 33
M  V30 38 1 12 34
M  V30 39 1 12 35
M  V30 40 1 16 36
M  V30 41 1 17 37
M  V30 42 1 20 38
M  V30 43 1 23 39
M  V30 44 1 24 40
M  V30 45 1 24 41
M  V30 46 1 25 42
M  V30 47 1 25 43
M  V30 48 1 26 44
M  V30 49 1 27 45
M  V30 END BOND
M  V30 END CTAB
M  END
>  <Dataset>  (311) 
ChEMBL_Kinases

>  <Ligand_Instance>  (311) 
nan

>  <PDB_ID>  (311) 
nan

>  <Standardized_SMILES>  (311) 
Cc1nc(-c2ccc3c(c2)OCO3)c(-c2ccnc(NC(=O)C3CC3)c2)[nH]1

>  <Name>  (311) 
nan

>  <Pocket>  (311) 
nan

>  <ATP_Site>  (311) 
nan

>  <Peripheral>  (311) 
nan

>  <Num_H_Atoms_ProtBoundConf>  (311) 
nan

>  <Num_Resolved_Atoms>  (311) 
nan

>  <Num_Not_Resolved_Atoms>  (311) 
nan

$$$$
CHEMBL4518152
     RDKit          3D

  0  0  0  0  0  0  0  0  0  0999 V3000
M  V30 BEGIN CTAB
M  V30 COUNTS 41 43 0 0 0
M  V30 BEGIN ATOM
M  V30 1 N -0.331668 -4.550803 2.592492 0
M  V30 2 C -0.246178 -3.177269 2.250543 0
M  V30 3 O -0.784025 -2.691777 3.281787 0
M  V30 4 C 0.308229 -2.562195 1.050447 0
M  V30 5 C 0.828954 -3.401715 0.088174 0
M  V30 6 C 1.341659 -2.784663 -1.025603 0
M  V30 7 C 1.358696 -1.419543 -1.217314 0
M  V30 8 C 1.898968 -0.748570 -2.394097 0
M  V30 9 C 2.445795 0.514266 -2.186495 0
M  V30 10 C 2.982214 1.221680 -3.253070 0
M  V30 11 C 2.938085 0.604468 -4.502051 0
M  V30 12 N 2.402442 -0.631065 -4.702322 0
M  V30 13 C 1.876174 -1.322079 -3.648503 0
M  V30 14 C 0.812914 -0.673451 -0.193415 0
M  V30 15 C 0.277193 -1.186839 0.955117 0
M  V30 16 O -0.276713 -0.481895 1.999917 0
M  V30 17 C -0.407158 0.893378 2.102988 0
M  V30 18 C -1.853643 1.340887 2.256774 0
M  V30 19 C -2.595024 0.512301 3.285028 0
M  V30 20 N -1.641021 0.155174 4.317668 0
M  V30 21 C -0.709541 1.249338 4.501094 0
M  V30 22 C 0.313063 1.317004 3.386901 0
M  V30 23 H 0.125334 -5.455597 2.834086 0
M  V30 24 H 0.721719 -4.686885 2.655690 0
M  V30 25 H 0.848199 -4.478812 0.173323 0
M  V30 26 H 1.778625 -3.372258 -1.846507 0
M  V30 27 H 2.511101 1.045861 -1.250768 0
M  V30 28 H 3.431471 2.220900 -3.173235 0
M  V30 29 H 3.340087 1.097284 -5.390302 0
M  V30 30 H 1.451322 -2.295245 -3.792781 0
M  V30 31 H 0.814418 0.399808 -0.320076 0
M  V30 32 H -0.007371 1.396946 1.226960 0
M  V30 33 H -2.379304 1.359879 1.276205 0
M  V30 34 H -1.822359 2.388653 2.620661 0
M  V30 35 H -2.976075 -0.381120 2.748277 0
M  V30 36 H -3.431065 1.105785 3.733813 0
M  V30 37 H -2.120251 -0.050300 5.207951 0
M  V30 38 H -1.297400 2.180352 4.580305 0
M  V30 39 H -0.151139 1.152962 5.463379 0
M  V30 40 H 1.201505 0.699063 3.567797 0
M  V30 41 H 0.574605 2.400039 3.294245 0
M  V30 END ATOM
M  V30 BEGIN BOND
M  V30 1 1 1 2
M  V30 2 2 2 3
M  V30 3 1 2 4
M  V30 4 2 4 5
M  V30 5 1 5 6
M  V30 6 2 6 7
M  V30 7 1 7 8
M  V30 8 2 8 9
M  V30 9 1 9 10
M  V30 10 2 10 11
M  V30 11 1 11 12
M  V30 12 2 12 13
M  V30 13 1 7 14
M  V30 14 2 14 15
M  V30 15 1 15 16
M  V30 16 1 16 17
M  V30 17 1 17 18
M  V30 18 1 18 19
M  V30 19 1 19 20
M  V30 20 1 20 21
M  V30 21 1 21 22
M  V30 22 1 15 4
M  V30 23 1 22 17
M  V30 24 1 13 8
M  V30 25 1 1 23
M  V30 26 1 1 24
M  V30 27 1 5 25
M  V30 28 1 6 26
M  V30 29 1 9 27
M  V30 30 1 10 28
M  V30 31 1 11 29
M  V30 32 1 13 30
M  V30 33 1 14 31
M  V30 34 1 17 32
M  V30 35 1 18 33
M  V30 36 1 18 34
M  V30 37 1 19 35
M  V30 38 1 19 36
M  V30 39 1 20 37
M  V30 40 1 21 38
M  V30 41 1 21 39
M  V30 42 1 22 40
M  V30 43 1 22 41
M  V30 END BOND
M  V30 END CTAB
M  END
>  <Dataset>  (312) 
ChEMBL_Kinases

>  <Ligand_Instance>  (312) 
nan

>  <PDB_ID>  (312) 
nan

>  <Standardized_SMILES>  (312) 
NC(=O)c1ccc(-c2cccnc2)cc1OC1CCNCC1

>  <Name>  (312) 
nan

>  <Pocket>  (312) 
nan

>  <ATP_Site>  (312) 
nan

>  <Peripheral>  (312) 
nan

>  <Num_H_Atoms_ProtBoundConf>  (312) 
nan

>  <Num_Resolved_Atoms>  (312) 
nan

>  <Num_Not_Resolved_Atoms>  (312) 
nan

$$$$
CHEMBL220504
     RDKit          3D

  0  0  0  0  0  0  0  0  0  0999 V3000
M  V30 BEGIN CTAB
M  V30 COUNTS 47 48 0 0 0
M  V30 BEGIN ATOM
M  V30 1 C 0.959260 -4.842724 -2.638682 0
M  V30 2 C 1.064638 -4.232159 -1.248412 0
M  V30 3 C 2.439662 -4.494129 -0.666632 0
M  V30 4 O 0.047779 -4.707562 -0.415607 0
M  V30 5 C -0.899458 -3.906238 0.203066 0
M  V30 6 N -0.825141 -2.584227 -0.019866 0
M  V30 7 C -1.737202 -1.781502 0.572181 0
M  V30 8 C -1.718716 -0.330664 0.376130 0
M  V30 9 O -2.592450 0.363419 0.957187 0
M  V30 10 N -0.736186 0.271844 -0.450492 0
M  V30 11 C -0.615007 1.697537 -0.719377 0
M  V30 12 C -0.010523 2.418932 0.434128 0
M  V30 13 C 1.380087 2.496025 0.396184 0
M  V30 14 C 2.119621 3.137217 1.396756 0
M  V30 15 C 1.448785 3.724379 2.476906 0
M  V30 16 S 2.313410 4.535090 3.752836 0
M  V30 17 C 2.554804 6.253922 3.458085 0
M  V30 18 O 3.684596 3.919785 3.961278 0
M  V30 19 O 1.612902 4.385509 5.084220 0
M  V30 20 C 0.069639 3.634662 2.491783 0
M  V30 21 C -0.656893 3.001309 1.502966 0
M  V30 22 C -2.691400 -2.374456 1.372045 0
M  V30 23 C -2.788868 -3.730857 1.616876 0
M  V30 24 N -3.794897 -4.291139 2.452263 0
M  V30 25 C -1.839350 -4.521778 0.994841 0
M  V30 26 C -1.872512 -5.941122 1.198081 0
M  V30 27 N -1.885194 -7.093785 1.377728 0
M  V30 28 H -0.041935 -4.704797 -3.048493 0
M  V30 29 H 1.153493 -5.941502 -2.580765 0
M  V30 30 H 1.750181 -4.415863 -3.287197 0
M  V30 31 H 0.981434 -3.131783 -1.337722 0
M  V30 32 H 2.633444 -3.702774 0.095395 0
M  V30 33 H 3.238606 -4.428039 -1.404692 0
M  V30 34 H 2.398275 -5.511565 -0.200919 0
M  V30 35 H -0.045629 -0.404603 -0.895397 0
M  V30 36 H -0.011924 1.814948 -1.624776 0
M  V30 37 H -1.620492 2.102045 -0.971361 0
M  V30 38 H 1.984372 2.067719 -0.405609 0
M  V30 39 H 3.201880 3.180569 1.338766 0
M  V30 40 H 1.670674 6.815480 3.824835 0
M  V30 41 H 3.433115 6.578775 4.078703 0
M  V30 42 H 2.830701 6.482590 2.420982 0
M  V30 43 H -0.476447 4.084687 3.323415 0
M  V30 44 H -1.733629 2.913665 1.482658 0
M  V30 45 H -3.444862 -1.746241 1.865489 0
M  V30 46 H -4.724625 -3.819719 2.567009 0
M  V30 47 H -3.617935 -5.185153 2.964804 0
M  V30 END ATOM
M  V30 BEGIN BOND
M  V30 1 1 1 2
M  V30 2 1 2 3
M  V30 3 1 2 4
M  V30 4 1 4 5
M  V30 5 2 5 6
M  V30 6 1 6 7
M  V30 7 1 7 8
M  V30 8 2 8 9
M  V30 9 1 8 10
M  V30 10 1 10 11
M  V30 11 1 11 12
M  V30 12 2 12 13
M  V30 13 1 13 14
M  V30 14 2 14 15
M  V30 15 1 15 16
M  V30 16 1 16 17
M  V30 17 2 16 18
M  V30 18 2 16 19
M  V30 19 1 15 20
M  V30 20 2 20 21
M  V30 21 2 7 22
M  V30 22 1 22 23
M  V30 23 1 23 24
M  V30 24 2 23 25
M  V30 25 1 25 26
M  V30 26 3 26 27
M  V30 27 1 25 5
M  V30 28 1 21 12
M  V30 29 1 1 28
M  V30 30 1 1 29
M  V30 31 1 1 30
M  V30 32 1 2 31
M  V30 33 1 3 32
M  V30 34 1 3 33
M  V30 35 1 3 34
M  V30 36 1 10 35
M  V30 37 1 11 36
M  V30 38 1 11 37
M  V30 39 1 13 38
M  V30 40 1 14 39
M  V30 41 1 17 40
M  V30 42 1 17 41
M  V30 43 1 17 42
M  V30 44 1 20 43
M  V30 45 1 21 44
M  V30 46 1 22 45
M  V30 47 1 24 46
M  V30 48 1 24 47
M  V30 END BOND
M  V30 END CTAB
M  END
>  <Dataset>  (313) 
ChEMBL_Kinases

>  <Ligand_Instance>  (313) 
nan

>  <PDB_ID>  (313) 
nan

>  <Standardized_SMILES>  (313) 
CC(C)Oc1nc(C(=O)NCc2ccc(S(C)(=O)=O)cc2)cc(N)c1C#N

>  <Name>  (313) 
nan

>  <Pocket>  (313) 
nan

>  <ATP_Site>  (313) 
nan

>  <Peripheral>  (313) 
nan

>  <Num_H_Atoms_ProtBoundConf>  (313) 
nan

>  <Num_Resolved_Atoms>  (313) 
nan

>  <Num_Not_Resolved_Atoms>  (313) 
nan

$$$$
CHEMBL3699297
     RDKit          3D

  0  0  0  0  0  0  0  0  0  0999 V3000
M  V30 BEGIN CTAB
M  V30 COUNTS 61 66 0 0 0
M  V30 BEGIN ATOM
M  V30 1 N 3.476899 0.121495 -2.001155 0
M  V30 2 C 2.625800 -0.229279 -1.273933 0
M  V30 3 C 1.574902 -0.644440 -0.376938 0
M  V30 4 C 1.104905 0.158442 0.636277 0
M  V30 5 C 0.112860 -0.199877 1.504649 0
M  V30 6 N -0.364616 0.629194 2.541945 0
M  V30 7 C 0.054421 1.938160 2.889098 0
M  V30 8 N 1.000873 2.642740 2.278864 0
M  V30 9 C 1.333853 3.872350 2.671950 0
M  V30 10 N 2.361178 4.591521 1.981182 0
M  V30 11 C 3.101541 4.080579 0.847477 0
M  V30 12 C 3.892586 2.852160 1.032962 0
M  V30 13 C 4.597888 4.139299 0.859786 0
M  V30 14 C 0.718830 4.474410 3.724714 0
M  V30 15 N 0.795458 5.646797 4.366032 0
M  V30 16 C -0.097480 5.665014 5.364775 0
M  V30 17 C -0.748994 4.460912 5.339576 0
M  V30 18 C -1.797075 4.030977 6.232397 0
M  V30 19 N -2.635204 3.697190 6.952259 0
M  V30 20 N -0.227309 3.754673 4.325265 0
M  V30 21 N -0.531033 2.558641 3.920551 0
M  V30 22 C -0.397297 -1.460150 1.285382 0
M  V30 23 Cl -1.646076 -1.988495 2.398408 0
M  V30 24 C 0.023101 -2.312763 0.294007 0
M  V30 25 N -0.547506 -3.615205 0.052746 0
M  V30 26 C -1.625596 -4.430299 0.545087 0
M  V30 27 C -1.420790 -5.879901 0.086567 0
M  V30 28 C -2.054179 -6.068297 -1.288255 0
M  V30 29 N -1.969446 -4.882215 -2.078142 0
M  V30 30 C -2.242569 -5.051499 -3.457647 0
M  V30 31 C -1.395292 -5.978117 -4.266680 0
M  V30 32 O -1.550475 -5.073058 -5.344394 0
M  V30 33 C -1.547624 -4.057904 -4.388273 0
M  V30 34 C -2.637383 -3.727461 -1.561998 0
M  V30 35 C -2.933167 -3.941141 -0.094004 0
M  V30 36 C 1.028604 -1.893796 -0.550621 0
M  V30 37 H 1.599315 1.113117 0.683720 0
M  V30 38 H -1.138410 0.215010 3.137365 0
M  V30 39 H 2.644177 5.549051 2.260095 0
M  V30 40 H 2.624762 4.251340 -0.156634 0
M  V30 41 H 3.900569 2.082016 0.226658 0
M  V30 42 H 3.946518 2.414120 2.057473 0
M  V30 43 H 5.101575 4.613244 1.743241 0
M  V30 44 H 5.125307 4.328461 -0.085844 0
M  V30 45 H -0.281987 6.458625 6.060350 0
M  V30 46 H -0.050953 -4.165202 -0.715157 0
M  V30 47 H -1.729260 -4.378974 1.614428 0
M  V30 48 H -1.967859 -6.520123 0.798864 0
M  V30 49 H -0.370985 -6.178580 0.058181 0
M  V30 50 H -3.075989 -6.466199 -1.162805 0
M  V30 51 H -1.453096 -6.845501 -1.803627 0
M  V30 52 H -3.302747 -5.159315 -3.762989 0
M  V30 53 H -1.890964 -6.947852 -4.455014 0
M  V30 54 H -0.314922 -6.005943 -4.031825 0
M  V30 55 H -2.136177 -3.157233 -4.614177 0
M  V30 56 H -0.485632 -3.865812 -4.087591 0
M  V30 57 H -2.012248 -2.825360 -1.676631 0
M  V30 58 H -3.566860 -3.602526 -2.156378 0
M  V30 59 H -3.413402 -3.121682 0.411170 0
M  V30 60 H -3.641748 -4.819409 0.011994 0
M  V30 61 H 1.428613 -2.506545 -1.369353 0
M  V30 END ATOM
M  V30 BEGIN BOND
M  V30 1 3 1 2
M  V30 2 1 2 3
M  V30 3 2 3 4
M  V30 4 1 4 5
M  V30 5 1 5 6
M  V30 6 1 6 7
M  V30 7 1 7 8
M  V30 8 2 8 9
M  V30 9 1 9 10
M  V30 10 1 10 11
M  V30 11 1 11 12
M  V30 12 1 12 13
M  V30 13 1 9 14
M  V30 14 2 14 15
M  V30 15 1 15 16
M  V30 16 2 16 17
M  V30 17 1 17 18
M  V30 18 3 18 19
M  V30 19 1 17 20
M  V30 20 1 20 21
M  V30 21 2 5 22
M  V30 22 1 22 23
M  V30 23 1 22 24
M  V30 24 1 24 25
M  V30 25 1 25 26
M  V30 26 1 26 27
M  V30 27 1 27 28
M  V30 28 1 28 29
M  V30 29 1 29 30
M  V30 30 1 30 31
M  V30 31 1 31 32
M  V30 32 1 32 33
M  V30 33 1 29 34
M  V30 34 1 34 35
M  V30 35 2 24 36
M  V30 36 1 36 3
M  V30 37 2 21 7
M  V30 38 1 35 26
M  V30 39 1 13 11
M  V30 40 1 20 14
M  V30 41 1 33 30
M  V30 42 1 4 37
M  V30 43 1 6 38
M  V30 44 1 10 39
M  V30 45 1 11 40
M  V30 46 1 12 41
M  V30 47 1 12 42
M  V30 48 1 13 43
M  V30 49 1 13 44
M  V30 50 1 16 45
M  V30 51 1 25 46
M  V30 52 1 26 47
M  V30 53 1 27 48
M  V30 54 1 27 49
M  V30 55 1 28 50
M  V30 56 1 28 51
M  V30 57 1 30 52
M  V30 58 1 31 53
M  V30 59 1 31 54
M  V30 60 1 33 55
M  V30 61 1 33 56
M  V30 62 1 34 57
M  V30 63 1 34 58
M  V30 64 1 35 59
M  V30 65 1 35 60
M  V30 66 1 36 61
M  V30 END BOND
M  V30 END CTAB
M  END
>  <Dataset>  (314) 
ChEMBL_Kinases

>  <Ligand_Instance>  (314) 
nan

>  <PDB_ID>  (314) 
nan

>  <Standardized_SMILES>  (314) 
N#Cc1cc(Nc2nc(NC3CC3)c3ncc(C#N)n3n2)c(Cl)c(NC2CCN(C3COC3)CC2)c1

>  <Name>  (314) 
nan

>  <Pocket>  (314) 
nan

>  <ATP_Site>  (314) 
nan

>  <Peripheral>  (314) 
nan

>  <Num_H_Atoms_ProtBoundConf>  (314) 
nan

>  <Num_Resolved_Atoms>  (314) 
nan

>  <Num_Not_Resolved_Atoms>  (314) 
nan

$$$$
CHEMBL4517951
     RDKit          3D

  0  0  0  0  0  0  0  0  0  0999 V3000
M  V30 BEGIN CTAB
M  V30 COUNTS 32 34 0 0 0
M  V30 BEGIN ATOM
M  V30 1 C 1.250126 -3.253938 4.478368 0
M  V30 2 O 0.109380 -2.906047 3.731636 0
M  V30 3 C 0.173715 -2.314380 2.476118 0
M  V30 4 O 1.410453 -2.283132 2.420819 0
M  V30 5 C -0.891493 -1.896762 1.578296 0
M  V30 6 C -0.418373 -1.337991 0.390095 0
M  V30 7 C -1.335024 -0.910612 -0.546816 0
M  V30 8 N -0.955247 -0.291263 -1.793411 0
M  V30 9 C 0.449504 0.029895 -1.807804 0
M  V30 10 N 1.457120 -0.454059 -2.548252 0
M  V30 11 C 2.701174 0.019658 -2.347729 0
M  V30 12 N 3.021771 0.951555 -1.452427 0
M  V30 13 C 2.064549 1.484204 -0.673723 0
M  V30 14 N 2.033814 2.404735 0.298427 0
M  V30 15 C 0.815533 2.602471 0.794966 0
M  V30 16 C 0.018271 1.732617 0.073195 0
M  V30 17 C 0.761244 1.006695 -0.864705 0
M  V30 18 C -2.706351 -1.037281 -0.305425 0
M  V30 19 C -3.121529 -1.594518 0.883242 0
M  V30 20 C -2.242234 -2.034656 1.846477 0
M  V30 21 Br -2.688371 -2.815981 3.527208 0
M  V30 22 H 1.777892 -4.145629 4.079466 0
M  V30 23 H 1.941032 -2.407460 4.481296 0
M  V30 24 H 0.960129 -3.465954 5.513628 0
M  V30 25 H 0.637200 -1.227256 0.177505 0
M  V30 26 H -1.640730 -0.129120 -2.533401 0
M  V30 27 H 3.410522 -0.468257 -3.023601 0
M  V30 28 H 2.896221 2.908493 0.619503 0
M  V30 29 H 0.485074 3.272724 1.576906 0
M  V30 30 H -1.047347 1.652925 0.246218 0
M  V30 31 H -3.442603 -0.708596 -1.032488 0
M  V30 32 H -4.187538 -1.727373 1.143786 0
M  V30 END ATOM
M  V30 BEGIN BOND
M  V30 1 1 1 2
M  V30 2 1 2 3
M  V30 3 2 3 4
M  V30 4 1 3 5
M  V30 5 2 5 6
M  V30 6 1 6 7
M  V30 7 1 7 8
M  V30 8 1 8 9
M  V30 9 2 9 10
M  V30 10 1 10 11
M  V30 11 2 11 12
M  V30 12 1 12 13
M  V30 13 1 13 14
M  V30 14 1 14 15
M  V30 15 2 15 16
M  V30 16 1 16 17
M  V30 17 2 7 18
M  V30 18 1 18 19
M  V30 19 2 19 20
M  V30 20 1 20 21
M  V30 21 1 20 5
M  V30 22 1 17 9
M  V30 23 2 17 13
M  V30 24 1 1 22
M  V30 25 1 1 23
M  V30 26 1 1 24
M  V30 27 1 6 25
M  V30 28 1 8 26
M  V30 29 1 11 27
M  V30 30 1 14 28
M  V30 31 1 15 29
M  V30 32 1 16 30
M  V30 33 1 18 31
M  V30 34 1 19 32
M  V30 END BOND
M  V30 END CTAB
M  END
>  <Dataset>  (315) 
ChEMBL_Kinases

>  <Ligand_Instance>  (315) 
nan

>  <PDB_ID>  (315) 
nan

>  <Standardized_SMILES>  (315) 
COC(=O)c1cc(Nc2ncnc3[nH]ccc23)ccc1Br

>  <Name>  (315) 
nan

>  <Pocket>  (315) 
nan

>  <ATP_Site>  (315) 
nan

>  <Peripheral>  (315) 
nan

>  <Num_H_Atoms_ProtBoundConf>  (315) 
nan

>  <Num_Resolved_Atoms>  (315) 
nan

>  <Num_Not_Resolved_Atoms>  (315) 
nan

$$$$
CHEMBL3699296
     RDKit          3D

  0  0  0  0  0  0  0  0  0  0999 V3000
M  V30 BEGIN CTAB
M  V30 COUNTS 57 61 0 0 0
M  V30 BEGIN ATOM
M  V30 1 C 3.789215 0.063254 4.255593 0
M  V30 2 C 4.839389 -0.875566 3.733991 0
M  V30 3 N 4.518850 -2.255179 3.927824 0
M  V30 4 C 3.369272 -2.880122 3.375430 0
M  V30 5 N 2.486506 -2.214138 2.618131 0
M  V30 6 C 1.387862 -2.719790 2.062625 0
M  V30 7 N 0.444494 -2.034401 1.259023 0
M  V30 8 C 0.453383 -0.680342 0.861052 0
M  V30 9 C 1.412897 0.241838 1.190426 0
M  V30 10 C 1.443739 1.566627 0.813930 0
M  V30 11 C 2.491367 2.465541 1.205931 0
M  V30 12 N 3.338295 3.202486 1.543996 0
M  V30 13 C 0.414179 2.033818 0.025134 0
M  V30 14 C -0.580018 1.157566 -0.339863 0
M  V30 15 N -1.653956 1.614479 -1.153493 0
M  V30 16 C -3.038305 1.571364 -0.726967 0
M  V30 17 C -3.974880 1.095119 -1.775753 0
M  V30 18 N -3.502958 0.927744 -3.060797 0
M  V30 19 C -4.040750 -0.022973 -3.934212 0
M  V30 20 C -5.505453 0.089409 -4.283166 0
M  V30 21 O -5.517512 -1.300198 -4.418831 0
M  V30 22 C -4.460756 -1.363233 -3.480507 0
M  V30 23 C -2.313370 1.496324 -3.504137 0
M  V30 24 C -1.449257 2.161877 -2.479942 0
M  V30 25 C -0.554176 -0.154881 0.068703 0
M  V30 26 Cl -1.863356 -1.205263 -0.442850 0
M  V30 27 N 1.196359 -4.023159 2.318246 0
M  V30 28 N 2.007872 -4.757603 3.049851 0
M  V30 29 C 1.909336 -6.061569 3.365043 0
M  V30 30 C 0.874751 -7.007406 2.978226 0
M  V30 31 N 0.036066 -7.755622 2.677011 0
M  V30 32 C 3.020227 -6.346232 4.157492 0
M  V30 33 N 3.723517 -5.190020 4.271649 0
M  V30 34 C 3.108391 -4.215246 3.595871 0
M  V30 35 H 2.798362 -0.420652 4.378428 0
M  V30 36 H 4.091980 0.379342 5.277554 0
M  V30 37 H 3.715191 1.006861 3.661599 0
M  V30 38 H 5.823735 -0.612396 4.123830 0
M  V30 39 H 4.909720 -0.714747 2.618695 0
M  V30 40 H 5.166436 -2.831504 4.506874 0
M  V30 41 H -0.378626 -2.595669 0.903486 0
M  V30 42 H 2.251635 -0.046698 1.804852 0
M  V30 43 H 0.396986 3.059920 -0.292357 0
M  V30 44 H -3.056229 0.968455 0.216994 0
M  V30 45 H -3.281300 2.616912 -0.407194 0
M  V30 46 H -4.857615 1.783060 -1.783079 0
M  V30 47 H -4.406801 0.126735 -1.390546 0
M  V30 48 H -3.406129 -0.116434 -4.858134 0
M  V30 49 H -6.088140 0.384155 -3.397778 0
M  V30 50 H -5.695519 0.651299 -5.218629 0
M  V30 51 H -3.787743 -2.197151 -3.759602 0
M  V30 52 H -4.893228 -1.513947 -2.496143 0
M  V30 53 H -2.532625 2.254254 -4.294890 0
M  V30 54 H -1.706168 0.705084 -4.024810 0
M  V30 55 H -1.681242 3.244596 -2.439429 0
M  V30 56 H -0.386076 2.052090 -2.783189 0
M  V30 57 H 3.254193 -7.321822 4.589899 0
M  V30 END ATOM
M  V30 BEGIN BOND
M  V30 1 1 1 2
M  V30 2 1 2 3
M  V30 3 1 3 4
M  V30 4 2 4 5
M  V30 5 1 5 6
M  V30 6 1 6 7
M  V30 7 1 7 8
M  V30 8 2 8 9
M  V30 9 1 9 10
M  V30 10 1 10 11
M  V30 11 3 11 12
M  V30 12 2 10 13
M  V30 13 1 13 14
M  V30 14 1 14 15
M  V30 15 1 15 16
M  V30 16 1 16 17
M  V30 17 1 17 18
M  V30 18 1 18 19
M  V30 19 1 19 20
M  V30 20 1 20 21
M  V30 21 1 21 22
M  V30 22 1 18 23
M  V30 23 1 23 24
M  V30 24 2 14 25
M  V30 25 1 25 26
M  V30 26 2 6 27
M  V30 27 1 27 28
M  V30 28 1 28 29
M  V30 29 1 29 30
M  V30 30 3 30 31
M  V30 31 2 29 32
M  V30 32 1 32 33
M  V30 33 2 33 34
M  V30 34 1 34 4
M  V30 35 1 25 8
M  V30 36 1 34 28
M  V30 37 1 24 15
M  V30 38 1 22 19
M  V30 39 1 1 35
M  V30 40 1 1 36
M  V30 41 1 1 37
M  V30 42 1 2 38
M  V30 43 1 2 39
M  V30 44 1 3 40
M  V30 45 1 7 41
M  V30 46 1 9 42
M  V30 47 1 13 43
M  V30 48 1 16 44
M  V30 49 1 16 45
M  V30 50 1 17 46
M  V30 51 1 17 47
M  V30 52 1 19 48
M  V30 53 1 20 49
M  V30 54 1 20 50
M  V30 55 1 22 51
M  V30 56 1 22 52
M  V30 57 1 23 53
M  V30 58 1 23 54
M  V30 59 1 24 55
M  V30 60 1 24 56
M  V30 61 1 32 57
M  V30 END BOND
M  V30 END CTAB
M  END
>  <Dataset>  (316) 
ChEMBL_Kinases

>  <Ligand_Instance>  (316) 
nan

>  <PDB_ID>  (316) 
nan

>  <Standardized_SMILES>  (316) 
CCNc1nc(Nc2cc(C#N)cc(N3CCN(C4COC4)CC3)c2Cl)nn2c(C#N)cnc12

>  <Name>  (316) 
nan

>  <Pocket>  (316) 
nan

>  <ATP_Site>  (316) 
nan

>  <Peripheral>  (316) 
nan

>  <Num_H_Atoms_ProtBoundConf>  (316) 
nan

>  <Num_Resolved_Atoms>  (316) 
nan

>  <Num_Not_Resolved_Atoms>  (316) 
nan

$$$$
CHEMBL3699295
     RDKit          3D

  0  0  0  0  0  0  0  0  0  0999 V3000
M  V30 BEGIN CTAB
M  V30 COUNTS 40 43 0 0 0
M  V30 BEGIN ATOM
M  V30 1 N 3.202198 -4.268522 2.484234 0
M  V30 2 C 3.163509 -3.564465 1.554667 0
M  V30 3 C 3.113196 -2.700027 0.399815 0
M  V30 4 C 4.166808 -2.617626 -0.494787 0
M  V30 5 C 4.165147 -1.804379 -1.614995 0
M  V30 6 C 5.324857 -1.750064 -2.545412 0
M  V30 7 O 5.984330 -0.535241 -2.245865 0
M  V30 8 C 3.049257 -1.026224 -1.861553 0
M  V30 9 Cl 3.042625 0.004016 -3.274924 0
M  V30 10 C 1.986012 -1.078756 -1.001234 0
M  V30 11 N 0.816438 -0.296139 -1.216663 0
M  V30 12 C -0.348576 -0.257480 -0.401003 0
M  V30 13 N -0.335854 0.671297 0.571442 0
M  V30 14 C -1.358095 0.839736 1.429460 0
M  V30 15 N -1.295778 1.832750 2.435597 0
M  V30 16 C -2.335775 2.101034 3.411141 0
M  V30 17 C -2.080717 3.226131 4.440111 0
M  V30 18 C -2.033627 1.824884 4.868211 0
M  V30 19 C -2.453697 0.025013 1.297978 0
M  V30 20 N -3.630198 -0.087281 1.962536 0
M  V30 21 C -4.345100 -1.072229 1.398134 0
M  V30 22 C -3.643765 -1.607547 0.365944 0
M  V30 23 C -3.989780 -2.682714 -0.536823 0
M  V30 24 N -4.260115 -3.559002 -1.250855 0
M  V30 25 N -2.476280 -0.912697 0.322701 0
M  V30 26 N -1.457998 -1.044739 -0.494400 0
M  V30 27 C 2.021614 -1.905861 0.113152 0
M  V30 28 H 5.041072 -3.230825 -0.295674 0
M  V30 29 H 5.018648 -1.637701 -3.609580 0
M  V30 30 H 6.031954 -2.559218 -2.376973 0
M  V30 31 H 5.500944 0.021266 -1.605134 0
M  V30 32 H 0.692593 0.346793 -2.017607 0
M  V30 33 H -0.430409 2.439002 2.499249 0
M  V30 34 H -3.385527 2.046102 3.067212 0
M  V30 35 H -1.191272 3.822745 4.195752 0
M  V30 36 H -2.944826 3.842606 4.743718 0
M  V30 37 H -1.103159 1.249271 5.025045 0
M  V30 38 H -2.876174 1.470699 5.485546 0
M  V30 39 H -5.332921 -1.444131 1.662170 0
M  V30 40 H 1.191921 -1.968924 0.815496 0
M  V30 END ATOM
M  V30 BEGIN BOND
M  V30 1 3 1 2
M  V30 2 1 2 3
M  V30 3 2 3 4
M  V30 4 1 4 5
M  V30 5 1 5 6
M  V30 6 1 6 7
M  V30 7 2 5 8
M  V30 8 1 8 9
M  V30 9 1 8 10
M  V30 10 1 10 11
M  V30 11 1 11 12
M  V30 12 1 12 13
M  V30 13 2 13 14
M  V30 14 1 14 15
M  V30 15 1 15 16
M  V30 16 1 16 17
M  V30 17 1 17 18
M  V30 18 1 14 19
M  V30 19 2 19 20
M  V30 20 1 20 21
M  V30 21 2 21 22
M  V30 22 1 22 23
M  V30 23 3 23 24
M  V30 24 1 22 25
M  V30 25 1 25 26
M  V30 26 2 10 27
M  V30 27 1 27 3
M  V30 28 2 26 12
M  V30 29 1 18 16
M  V30 30 1 25 19
M  V30 31 1 4 28
M  V30 32 1 6 29
M  V30 33 1 6 30
M  V30 34 1 7 31
M  V30 35 1 11 32
M  V30 36 1 15 33
M  V30 37 1 16 34
M  V30 38 1 17 35
M  V30 39 1 17 36
M  V30 40 1 18 37
M  V30 41 1 18 38
M  V30 42 1 21 39
M  V30 43 1 27 40
M  V30 END BOND
M  V30 END CTAB
M  END
>  <Dataset>  (317) 
ChEMBL_Kinases

>  <Ligand_Instance>  (317) 
nan

>  <PDB_ID>  (317) 
nan

>  <Standardized_SMILES>  (317) 
N#Cc1cc(CO)c(Cl)c(Nc2nc(NC3CC3)c3ncc(C#N)n3n2)c1

>  <Name>  (317) 
nan

>  <Pocket>  (317) 
nan

>  <ATP_Site>  (317) 
nan

>  <Peripheral>  (317) 
nan

>  <Num_H_Atoms_ProtBoundConf>  (317) 
nan

>  <Num_Resolved_Atoms>  (317) 
nan

>  <Num_Not_Resolved_Atoms>  (317) 
nan

$$$$
CHEMBL2333164
     RDKit          3D

  0  0  0  0  0  0  0  0  0  0999 V3000
M  V30 BEGIN CTAB
M  V30 COUNTS 78 82 0 0 0
M  V30 BEGIN ATOM
M  V30 1 O 4.711252 -4.866297 -0.568465 0
M  V30 2 C 3.606602 -4.825729 0.045533 0
M  V30 3 N 3.082504 -3.930711 -0.929232 0
M  V30 4 C 3.198785 -2.548212 -1.339389 0
M  V30 5 C 4.296859 -1.862003 -0.561584 0
M  V30 6 C 4.510466 -0.471749 -0.972253 0
M  V30 7 C 5.785191 0.089370 -1.089036 0
M  V30 8 C 6.075273 1.383713 -1.464838 0
M  V30 9 C 4.987878 2.189172 -1.748612 0
M  V30 10 O 5.297126 3.504678 -2.129441 0
M  V30 11 C 3.705312 1.695471 -1.653093 0
M  V30 12 C 3.470773 0.387506 -1.272804 0
M  V30 13 O 2.713872 2.582637 -1.954286 0
M  V30 14 C 1.547604 2.793779 -1.270210 0
M  V30 15 C 1.544382 2.700139 0.119504 0
M  V30 16 Br 3.156495 2.295736 1.055421 0
M  V30 17 C 0.361082 2.912112 0.837860 0
M  V30 18 C -0.802757 3.214330 0.164967 0
M  V30 19 C -0.788380 3.304771 -1.211375 0
M  V30 20 C 0.374803 3.096536 -1.922464 0
M  V30 21 Br 0.363170 3.225977 -3.821266 0
M  V30 22 C -2.039915 3.437299 0.933049 0
M  V30 23 C -2.052004 2.711379 2.245213 0
M  V30 24 N -3.392872 2.220358 2.561205 0
M  V30 25 C -4.742245 2.348559 2.129724 0
M  V30 26 O -4.648403 3.624544 2.118375 0
M  V30 27 C -5.688165 1.274717 1.860957 0
M  V30 28 N -6.264773 0.737189 2.874583 0
M  V30 29 O -7.176169 -0.284168 2.768777 0
M  V30 30 C -5.988091 0.802602 0.482410 0
M  V30 31 C -4.872065 0.028351 -0.095411 0
M  V30 32 C -4.657407 0.107540 -1.457837 0
M  V30 33 C -3.655362 -0.559686 -2.085393 0
M  V30 34 Br -3.378052 -0.427281 -3.986564 0
M  V30 35 C -2.763561 -1.379947 -1.404813 0
M  V30 36 O -1.704892 -2.106294 -1.935593 0
M  V30 37 C -2.973033 -1.463079 -0.050688 0
M  V30 38 C -3.984582 -0.788577 0.580278 0
M  V30 39 O -2.279406 -2.165646 0.847193 0
M  V30 40 C -1.459672 -3.208964 0.891663 0
M  V30 41 C -1.582911 -4.551719 0.703299 0
M  V30 42 Br -3.430454 -4.924089 0.264611 0
M  V30 43 C -0.678234 -5.586033 0.770995 0
M  V30 44 C 0.592329 -5.150553 1.092419 0
M  V30 45 C 0.816057 -3.804063 1.300747 0
M  V30 46 C -0.155204 -2.790950 1.218875 0
M  V30 47 Br 0.394926 -1.001872 1.634455 0
M  V30 48 C 1.708946 -6.111868 1.224939 0
M  V30 49 C 3.029694 -5.405606 1.242310 0
M  V30 50 N 3.725057 -5.279281 2.346505 0
M  V30 51 O 3.250806 -5.800623 3.526879 0
M  V30 52 H 2.381414 -4.441177 -1.551275 0
M  V30 53 H 2.208557 -2.048931 -1.232400 0
M  V30 54 H 3.438113 -2.548494 -2.422367 0
M  V30 55 H 5.231741 -2.433854 -0.783005 0
M  V30 56 H 4.120290 -1.951156 0.533148 0
M  V30 57 H 6.654043 -0.541297 -0.865301 0
M  V30 58 H 7.102089 1.723990 -1.532089 0
M  V30 59 H 4.568425 4.010040 -2.621697 0
M  V30 60 H 2.440647 0.061523 -1.214641 0
M  V30 61 H 0.386284 2.831987 1.898360 0
M  V30 62 H -1.706378 3.543373 -1.733112 0
M  V30 63 H -2.904673 3.073313 0.350912 0
M  V30 64 H -2.217746 4.537636 1.059037 0
M  V30 65 H -1.644033 3.309733 3.083139 0
M  V30 66 H -1.397799 1.802605 2.191016 0
M  V30 67 H -3.409286 1.551697 3.371873 0
M  V30 68 H -8.133791 -0.181647 3.128105 0
M  V30 69 H -6.202659 1.679805 -0.162704 0
M  V30 70 H -6.892928 0.160018 0.464179 0
M  V30 71 H -5.295549 0.720681 -2.085557 0
M  V30 72 H -0.981743 -1.576632 -2.436701 0
M  V30 73 H -4.245702 -0.773497 1.635900 0
M  V30 74 H -1.019084 -6.583980 0.587489 0
M  V30 75 H 1.834452 -3.502485 1.548313 0
M  V30 76 H 1.596744 -6.573032 2.259926 0
M  V30 77 H 1.705696 -6.873045 0.431344 0
M  V30 78 H 3.769093 -6.501107 4.001929 0
M  V30 END ATOM
M  V30 BEGIN BOND
M  V30 1 2 1 2
M  V30 2 1 2 3
M  V30 3 1 3 4
M  V30 4 1 4 5
M  V30 5 1 5 6
M  V30 6 2 6 7
M  V30 7 1 7 8
M  V30 8 2 8 9
M  V30 9 1 9 10
M  V30 10 1 9 11
M  V30 11 2 11 12
M  V30 12 1 11 13
M  V30 13 1 13 14
M  V30 14 2 14 15
M  V30 15 1 15 16
M  V30 16 1 15 17
M  V30 17 2 17 18
M  V30 18 1 18 19
M  V30 19 2 19 20
M  V30 20 1 20 21
M  V30 21 1 18 22
M  V30 22 1 22 23
M  V30 23 1 23 24
M  V30 24 1 24 25
M  V30 25 2 25 26
M  V30 26 1 25 27
M  V30 27 2 27 28
M  V30 28 1 28 29
M  V30 29 1 27 30
M  V30 30 1 30 31
M  V30 31 1 31 32
M  V30 32 2 32 33
M  V30 33 1 33 34
M  V30 34 1 33 35
M  V30 35 1 35 36
M  V30 36 2 35 37
M  V30 37 1 37 38
M  V30 38 1 37 39
M  V30 39 1 39 40
M  V30 40 2 40 41
M  V30 41 1 41 42
M  V30 42 1 41 43
M  V30 43 2 43 44
M  V30 44 1 44 45
M  V30 45 2 45 46
M  V30 46 1 46 47
M  V30 47 1 44 48
M  V30 48 1 48 49
M  V30 49 2 49 50
M  V30 50 1 50 51
M  V30 51 1 49 2
M  V30 52 1 12 6
M  V30 53 1 20 14
M  V30 54 2 38 31
M  V30 55 1 46 40
M  V30 56 1 3 52
M  V30 57 1 4 53
M  V30 58 1 4 54
M  V30 59 1 5 55
M  V30 60 1 5 56
M  V30 61 1 7 57
M  V30 62 1 8 58
M  V30 63 1 10 59
M  V30 64 1 12 60
M  V30 65 1 17 61
M  V30 66 1 19 62
M  V30 67 1 22 63
M  V30 68 1 22 64
M  V30 69 1 23 65
M  V30 70 1 23 66
M  V30 71 1 24 67
M  V30 72 1 29 68
M  V30 73 1 30 69
M  V30 74 1 30 70
M  V30 75 1 32 71
M  V30 76 1 36 72
M  V30 77 1 38 73
M  V30 78 1 43 74
M  V30 79 1 45 75
M  V30 80 1 48 76
M  V30 81 1 48 77
M  V30 82 1 51 78
M  V30 END BOND
M  V30 END CTAB
M  END
>  <Dataset>  (318) 
ChEMBL_Kinases

>  <Ligand_Instance>  (318) 
nan

>  <PDB_ID>  (318) 
nan

>  <Standardized_SMILES>  (318) 
O=C1NCCc2ccc(O)c(c2)Oc2c(Br)cc(cc2Br)CCNC(=O)/C(=N/O)Cc2cc(Br)c(O)c(c2)Oc2c(Br)cc(cc2Br)C/C1=N\O

>  <Name>  (318) 
BASTADIN 16

>  <Pocket>  (318) 
nan

>  <ATP_Site>  (318) 
nan

>  <Peripheral>  (318) 
nan

>  <Num_H_Atoms_ProtBoundConf>  (318) 
nan

>  <Num_Resolved_Atoms>  (318) 
nan

>  <Num_Not_Resolved_Atoms>  (318) 
nan

$$$$
CHEMBL4518492
     RDKit          3D

  0  0  0  0  0  0  0  0  0  0999 V3000
M  V30 BEGIN CTAB
M  V30 COUNTS 47 50 0 0 0
M  V30 BEGIN ATOM
M  V30 1 N -0.084937 -6.098625 2.464438 0
M  V30 2 C 0.967268 -6.073168 1.483263 0
M  V30 3 O 1.630054 -7.113378 1.243794 0
M  V30 4 C 1.240920 -4.803871 0.775530 0
M  V30 5 C 2.253812 -4.799153 -0.161871 0
M  V30 6 C 2.513265 -3.600019 -0.831311 0
M  V30 7 Cl 3.785438 -3.503014 -2.041276 0
M  V30 8 C 1.742198 -2.498898 -0.513631 0
M  V30 9 C 1.781441 -1.210396 -1.011660 0
M  V30 10 Cl 2.881181 -0.628813 -2.236064 0
M  V30 11 C 0.794353 -0.507148 -0.351817 0
M  V30 12 C 0.541572 0.896478 -0.621311 0
M  V30 13 C 0.347048 2.069873 -0.832959 0
M  V30 14 C 0.111592 3.501115 -1.065442 0
M  V30 15 C 0.029341 4.181919 0.286937 0
M  V30 16 C 1.479256 4.034760 0.751660 0
M  V30 17 C 2.192565 3.745427 -0.557933 0
M  V30 18 O 1.283146 4.118834 -1.561888 0
M  V30 19 N 0.151332 -1.298601 0.525852 0
M  V30 20 C -0.928495 -0.934892 1.393094 0 CFG=1
M  V30 21 C -0.774549 0.407914 2.038129 0
M  V30 22 C -1.636623 0.371885 3.308476 0
M  V30 23 C -2.788509 -0.557630 3.096617 0
M  V30 24 N -3.263943 -0.589192 1.740720 0
M  V30 25 C -2.291518 -0.989786 0.763362 0
M  V30 26 C 0.730724 -2.511486 0.425279 0
M  V30 27 N 0.517631 -3.706066 1.050263 0
M  V30 28 H 0.046059 -5.296542 3.149712 0
M  V30 29 H -0.738922 -6.913811 2.266407 0
M  V30 30 H 2.856310 -5.663258 -0.408750 0
M  V30 31 H -0.731085 3.702149 -1.728360 0
M  V30 32 H -0.128681 5.269579 0.096112 0
M  V30 33 H -0.685400 3.734656 0.976817 0
M  V30 34 H 1.511618 3.138902 1.414368 0
M  V30 35 H 1.866741 4.948976 1.236939 0
M  V30 36 H 2.424660 2.658585 -0.634158 0
M  V30 37 H 3.160463 4.279329 -0.632769 0
M  V30 38 H -0.964565 -1.689285 2.233292 0
M  V30 39 H -1.320708 1.149749 1.384412 0
M  V30 40 H 0.262753 0.702042 2.236369 0
M  V30 41 H -1.037995 0.040514 4.172307 0
M  V30 42 H -1.965672 1.408570 3.540469 0
M  V30 43 H -2.596767 -1.583921 3.504521 0
M  V30 44 H -3.631795 -0.154496 3.703492 0
M  V30 45 H -4.069826 -1.276440 1.739229 0
M  V30 46 H -2.468733 -2.016541 0.402118 0
M  V30 47 H -2.403930 -0.287099 -0.091180 0
M  V30 END ATOM
M  V30 BEGIN BOND
M  V30 1 1 1 2
M  V30 2 2 2 3
M  V30 3 1 2 4
M  V30 4 2 4 5
M  V30 5 1 5 6
M  V30 6 1 6 7
M  V30 7 2 6 8
M  V30 8 1 8 9
M  V30 9 1 9 10
M  V30 10 2 9 11
M  V30 11 1 11 12
M  V30 12 3 12 13
M  V30 13 1 13 14
M  V30 14 1 14 15
M  V30 15 1 15 16
M  V30 16 1 16 17
M  V30 17 1 17 18
M  V30 18 1 11 19
M  V30 19 1 19 20
M  V30 20 1 20 21
M  V30 21 1 21 22
M  V30 22 1 22 23
M  V30 23 1 23 24
M  V30 24 1 24 25
M  V30 25 1 19 26
M  V30 26 2 26 27
M  V30 27 1 27 4
M  V30 28 1 26 8
M  V30 29 1 18 14
M  V30 30 1 25 20
M  V30 31 1 1 28
M  V30 32 1 1 29
M  V30 33 1 5 30
M  V30 34 1 14 31
M  V30 35 1 15 32
M  V30 36 1 15 33
M  V30 37 1 16 34
M  V30 38 1 16 35
M  V30 39 1 17 36
M  V30 40 1 17 37
M  V30 41 1 20 38 CFG=1
M  V30 42 1 21 39
M  V30 43 1 21 40
M  V30 44 1 22 41
M  V30 45 1 22 42
M  V30 46 1 23 43
M  V30 47 1 23 44
M  V30 48 1 24 45
M  V30 49 1 25 46
M  V30 50 1 25 47
M  V30 END BOND
M  V30 END CTAB
M  END
>  <Dataset>  (319) 
ChEMBL_Kinases

>  <Ligand_Instance>  (319) 
nan

>  <PDB_ID>  (319) 
nan

>  <Standardized_SMILES>  (319) 
NC(=O)c1cc(Cl)c2c(Cl)c(C#CC3CCCO3)n([C@H]3CCCNC3)c2n1

>  <Name>  (319) 
nan

>  <Pocket>  (319) 
nan

>  <ATP_Site>  (319) 
nan

>  <Peripheral>  (319) 
nan

>  <Num_H_Atoms_ProtBoundConf>  (319) 
nan

>  <Num_Resolved_Atoms>  (319) 
nan

>  <Num_Not_Resolved_Atoms>  (319) 
nan

$$$$
CHEMBL3699667
     RDKit          3D

  0  0  0  0  0  0  0  0  0  0999 V3000
M  V30 BEGIN CTAB
M  V30 COUNTS 56 61 0 0 0
M  V30 BEGIN ATOM
M  V30 1 N -4.315408 -2.570612 4.415437 0
M  V30 2 C -4.781635 -1.822679 3.250916 0
M  V30 3 C -3.644386 -1.522943 2.372047 0
M  V30 4 C -2.533027 -1.033021 3.052166 0
M  V30 5 C -1.370039 -0.698317 2.375017 0
M  V30 6 C -1.287391 -0.845822 0.990025 0
M  V30 7 C -0.023529 -0.468811 0.368531 0
M  V30 8 N 0.541437 0.752052 0.388279 0
M  V30 9 C 1.707762 0.747507 -0.282510 0
M  V30 10 N 2.616629 1.707710 -0.532990 0
M  V30 11 C 3.740567 1.469589 -1.244515 0
M  V30 12 C 4.718402 2.518301 -1.508967 0
M  V30 13 C 5.880246 2.332777 -2.227691 0
M  V30 14 C 6.808424 3.315598 -2.482024 0
M  V30 15 C 6.534678 4.582112 -1.966833 0
M  V30 16 C 5.373538 4.816005 -1.234790 0
M  V30 17 C 4.467358 3.778375 -1.008560 0
M  V30 18 C 3.879886 0.172342 -1.690061 0
M  V30 19 C 2.952546 -0.830140 -1.440925 0
M  V30 20 N 1.852244 -0.513384 -0.720801 0
M  V30 21 C 0.827458 -1.300563 -0.354500 0
M  V30 22 C 0.599976 -2.704574 -0.620237 0
M  V30 23 C 0.509549 -2.969550 -1.979751 0
M  V30 24 C 0.291148 -4.266229 -2.444075 0
M  V30 25 C 0.169778 -5.269372 -1.489938 0
M  V30 26 C 0.262395 -4.987606 -0.142154 0
M  V30 27 C 0.478428 -3.706153 0.322642 0
M  V30 28 C -2.398522 -1.332483 0.334515 0
M  V30 29 C -3.557574 -1.666790 1.003486 0
M  V30 30 C -6.030869 -2.352769 2.647817 0
M  V30 31 C -6.806272 -1.242186 3.336663 0
M  V30 32 C -5.529861 -0.584179 3.749030 0
M  V30 33 H -4.962206 -3.321988 4.699963 0
M  V30 34 H -3.986822 -1.949999 5.186826 0
M  V30 35 H -2.494668 -0.879616 4.140524 0
M  V30 36 H -0.501082 -0.312123 2.929742 0
M  V30 37 H 6.099669 1.368640 -2.626166 0
M  V30 38 H 7.706289 3.110383 -3.054863 0
M  V30 39 H 7.238718 5.391065 -2.141607 0
M  V30 40 H 5.224785 5.838219 -0.860474 0
M  V30 41 H 3.589581 4.041223 -0.430939 0
M  V30 42 H 4.747956 -0.108233 -2.267362 0
M  V30 43 H 3.108200 -1.851155 -1.817809 0
M  V30 44 H 0.594003 -2.239873 -2.776424 0
M  V30 45 H 0.210909 -4.538452 -3.488849 0
M  V30 46 H -0.000067 -6.289385 -1.810544 0
M  V30 47 H 0.174390 -5.735914 0.637704 0
M  V30 48 H 0.564219 -3.394860 1.354313 0
M  V30 49 H -2.325484 -1.443308 -0.738449 0
M  V30 50 H -4.426780 -2.043038 0.525551 0
M  V30 51 H -6.352559 -3.358106 3.044967 0
M  V30 52 H -6.148614 -2.362821 1.561659 0
M  V30 53 H -7.371264 -1.591142 4.214869 0
M  V30 54 H -7.396342 -0.601148 2.648696 0
M  V30 55 H -5.377275 -0.348888 4.806279 0
M  V30 56 H -5.225988 0.310470 3.149988 0
M  V30 END ATOM
M  V30 BEGIN BOND
M  V30 1 1 1 2
M  V30 2 1 2 3
M  V30 3 2 3 4
M  V30 4 1 4 5
M  V30 5 2 5 6
M  V30 6 1 6 7
M  V30 7 1 7 8
M  V30 8 2 8 9
M  V30 9 1 9 10
M  V30 10 2 10 11
M  V30 11 1 11 12
M  V30 12 2 12 13
M  V30 13 1 13 14
M  V30 14 2 14 15
M  V30 15 1 15 16
M  V30 16 2 16 17
M  V30 17 1 11 18
M  V30 18 2 18 19
M  V30 19 1 19 20
M  V30 20 1 20 21
M  V30 21 1 21 22
M  V30 22 2 22 23
M  V30 23 1 23 24
M  V30 24 2 24 25
M  V30 25 1 25 26
M  V30 26 2 26 27
M  V30 27 1 6 28
M  V30 28 2 28 29
M  V30 29 1 2 30
M  V30 30 1 30 31
M  V30 31 1 31 32
M  V30 32 1 32 2
M  V30 33 1 29 3
M  V30 34 2 21 7
M  V30 35 1 27 22
M  V30 36 1 20 9
M  V30 37 1 17 12
M  V30 38 1 1 33
M  V30 39 1 1 34
M  V30 40 1 4 35
M  V30 41 1 5 36
M  V30 42 1 13 37
M  V30 43 1 14 38
M  V30 44 1 15 39
M  V30 45 1 16 40
M  V30 46 1 17 41
M  V30 47 1 18 42
M  V30 48 1 19 43
M  V30 49 1 23 44
M  V30 50 1 24 45
M  V30 51 1 25 46
M  V30 52 1 26 47
M  V30 53 1 27 48
M  V30 54 1 28 49
M  V30 55 1 29 50
M  V30 56 1 30 51
M  V30 57 1 30 52
M  V30 58 1 31 53
M  V30 59 1 31 54
M  V30 60 1 32 55
M  V30 61 1 32 56
M  V30 END BOND
M  V30 END CTAB
M  END
>  <Dataset>  (320) 
ChEMBL_Kinases

>  <Ligand_Instance>  (320) 
nan

>  <PDB_ID>  (320) 
nan

>  <Standardized_SMILES>  (320) 
NC1(c2ccc(-c3nc4nc(-c5ccccc5)ccn4c3-c3ccccc3)cc2)CCC1

>  <Name>  (320) 
nan

>  <Pocket>  (320) 
nan

>  <ATP_Site>  (320) 
nan

>  <Peripheral>  (320) 
nan

>  <Num_H_Atoms_ProtBoundConf>  (320) 
nan

>  <Num_Resolved_Atoms>  (320) 
nan

>  <Num_Not_Resolved_Atoms>  (320) 
nan

$$$$
CHEMBL4565210
     RDKit          3D

  0  0  0  0  0  0  0  0  0  0999 V3000
M  V30 BEGIN CTAB
M  V30 COUNTS 43 46 0 0 0
M  V30 BEGIN ATOM
M  V30 1 C 3.082781 -6.023220 1.161181 0
M  V30 2 C 2.411709 -4.700657 1.106052 0
M  V30 3 C 1.376705 -4.334767 1.941346 0
M  V30 4 N 0.751657 -3.145138 1.913252 0
M  V30 5 C 1.092646 -2.190683 1.047069 0
M  V30 6 C 2.123947 -2.541949 0.207447 0
M  V30 7 C 2.815092 -3.742519 0.175357 0
M  V30 8 N 2.342119 -1.496165 -0.586152 0
M  V30 9 C 1.525359 -0.478327 -0.327870 0
M  V30 10 C 1.565996 0.759205 -1.050890 0
M  V30 11 C 2.496680 0.885606 -2.059069 0
M  V30 12 C 2.627045 2.016632 -2.816610 0
M  V30 13 C 1.847259 3.126310 -2.644781 0
M  V30 14 N 0.934036 3.018571 -1.664477 0
M  V30 15 C 0.831194 1.897100 -0.939956 0
M  V30 16 N -0.183684 2.016713 0.018746 0
M  V30 17 N 0.785692 -0.938611 0.665915 0
M  V30 18 C -0.268722 -0.389520 1.417764 0
M  V30 19 C -1.557203 -0.637045 0.907559 0
M  V30 20 C -2.622158 -0.163590 1.641798 0
M  V30 21 C -2.395698 0.521903 2.825956 0
M  V30 22 C -3.621162 0.982924 3.528201 0
M  V30 23 N -3.927844 2.315786 3.026269 0
M  V30 24 C -1.121608 0.741634 3.287801 0
M  V30 25 C -0.003562 0.290739 2.595665 0
M  V30 26 H 2.704950 -6.715891 0.375691 0
M  V30 27 H 4.160607 -5.856331 0.924063 0
M  V30 28 H 3.019932 -6.466774 2.186261 0
M  V30 29 H 1.058359 -5.091563 2.676160 0
M  V30 30 H 3.605258 -3.921629 -0.517442 0
M  V30 31 H 3.193984 0.074414 -2.312878 0
M  V30 32 H 3.380560 2.030108 -3.583760 0
M  V30 33 H 2.008030 3.965485 -3.271449 0
M  V30 34 H 0.185169 2.584085 0.831667 0
M  V30 35 H 0.178847 2.577153 0.823042 0
M  V30 36 H -1.697791 -1.170840 -0.012043 0
M  V30 37 H -3.617683 -0.353434 1.250087 0
M  V30 38 H -4.471903 0.286673 3.337588 0
M  V30 39 H -3.435450 1.053321 4.620261 0
M  V30 40 H -3.039585 2.865087 3.032012 0
M  V30 41 H -4.191041 2.247838 2.014145 0
M  V30 42 H -0.981424 1.282120 4.218740 0
M  V30 43 H 1.005872 0.439865 2.919071 0
M  V30 END ATOM
M  V30 BEGIN BOND
M  V30 1 1 1 2
M  V30 2 2 2 3
M  V30 3 1 3 4
M  V30 4 2 4 5
M  V30 5 1 5 6
M  V30 6 2 6 7
M  V30 7 1 6 8
M  V30 8 2 8 9
M  V30 9 1 9 10
M  V30 10 2 10 11
M  V30 11 1 11 12
M  V30 12 2 12 13
M  V30 13 1 13 14
M  V30 14 2 14 15
M  V30 15 1 15 16
M  V30 16 1 9 17
M  V30 17 1 17 18
M  V30 18 2 18 19
M  V30 19 1 19 20
M  V30 20 2 20 21
M  V30 21 1 21 22
M  V30 22 1 22 23
M  V30 23 1 21 24
M  V30 24 2 24 25
M  V30 25 1 7 2
M  V30 26 1 15 10
M  V30 27 1 25 18
M  V30 28 1 17 5
M  V30 29 1 1 26
M  V30 30 1 1 27
M  V30 31 1 1 28
M  V30 32 1 3 29
M  V30 33 1 7 30
M  V30 34 1 11 31
M  V30 35 1 12 32
M  V30 36 1 13 33
M  V30 37 1 16 34
M  V30 38 1 16 35
M  V30 39 1 19 36
M  V30 40 1 20 37
M  V30 41 1 22 38
M  V30 42 1 22 39
M  V30 43 1 23 40
M  V30 44 1 23 41
M  V30 45 1 24 42
M  V30 46 1 25 43
M  V30 END BOND
M  V30 END CTAB
M  END
>  <Dataset>  (321) 
ChEMBL_Kinases

>  <Ligand_Instance>  (321) 
nan

>  <PDB_ID>  (321) 
nan

>  <Standardized_SMILES>  (321) 
Cc1cnc2c(c1)nc(-c1cccnc1N)n2-c1ccc(CN)cc1

>  <Name>  (321) 
nan

>  <Pocket>  (321) 
nan

>  <ATP_Site>  (321) 
nan

>  <Peripheral>  (321) 
nan

>  <Num_H_Atoms_ProtBoundConf>  (321) 
nan

>  <Num_Resolved_Atoms>  (321) 
nan

>  <Num_Not_Resolved_Atoms>  (321) 
nan

$$$$
CHEMBL2332059
     RDKit          3D

  0  0  0  0  0  0  0  0  0  0999 V3000
M  V30 BEGIN CTAB
M  V30 COUNTS 52 54 0 0 0
M  V30 BEGIN ATOM
M  V30 1 C 0.991869 -5.023891 4.567736 0
M  V30 2 N -0.161249 -4.400388 3.971060 0
M  V30 3 C -0.678763 -3.319625 4.787832 0
M  V30 4 C 0.086024 -3.944660 2.629413 0
M  V30 5 C 1.037656 -2.783964 2.566820 0
M  V30 6 C 1.319843 -2.304833 1.161076 0
M  V30 7 N 0.123972 -1.889404 0.481034 0
M  V30 8 C -0.051817 -0.550591 0.103732 0
M  V30 9 O 0.842143 0.293857 0.363671 0
M  V30 10 N -1.175639 -0.041731 -0.564087 0
M  V30 11 C -1.373870 1.310683 -0.951624 0
M  V30 12 C -1.049009 1.991763 -2.104715 0
M  V30 13 C -1.352655 3.326895 -2.247867 0
M  V30 14 C -1.991668 4.041765 -1.251205 0
M  V30 15 C -2.315348 5.448581 -1.397278 0
M  V30 16 C -2.347441 6.311951 -0.297351 0
M  V30 17 N -2.677544 7.556098 -0.729917 0
M  V30 18 N -2.854519 7.516569 -2.048543 0
M  V30 19 C -2.637970 6.242032 -2.470268 0
M  V30 20 C -2.326010 3.361071 -0.076550 0
M  V30 21 C -2.021923 2.006672 0.077254 0
M  V30 22 C 2.061299 -3.283572 0.338200 0
M  V30 23 C 2.128767 -3.069552 -1.020191 0
M  V30 24 C 2.808440 -3.929062 -1.872040 0
M  V30 25 C 3.456559 -5.057247 -1.372379 0
M  V30 26 C 3.391367 -5.274386 -0.013967 0
M  V30 27 C 2.712719 -4.408552 0.805506 0
M  V30 28 H 1.861701 -4.344044 4.489005 0
M  V30 29 H 0.818557 -5.163644 5.655943 0
M  V30 30 H 1.258780 -5.973631 4.099594 0
M  V30 31 H 0.209918 -2.759446 5.204660 0
M  V30 32 H -1.154732 -2.591982 4.099442 0
M  V30 33 H -1.338618 -3.631519 5.595588 0
M  V30 34 H 0.337745 -4.805030 2.011011 0
M  V30 35 H -0.914908 -3.590808 2.245156 0
M  V30 36 H 0.528468 -1.928235 3.082188 0
M  V30 37 H 1.994440 -2.925292 3.064413 0
M  V30 38 H 2.014737 -1.421542 1.292206 0
M  V30 39 H -0.617832 -2.590951 0.267094 0
M  V30 40 H -1.946892 -0.735204 -0.799867 0
M  V30 41 H -0.556432 1.345523 -2.814812 0
M  V30 42 H -1.069340 3.789401 -3.172519 0
M  V30 43 H -2.157037 6.118481 0.759237 0
M  V30 44 H -3.111730 8.321237 -2.637678 0
M  V30 45 H -2.692416 5.837732 -3.481533 0
M  V30 46 H -2.824397 3.951949 0.678481 0
M  V30 47 H -2.345271 1.619408 1.044673 0
M  V30 48 H 1.667232 -2.224560 -1.548951 0
M  V30 49 H 2.889301 -3.800878 -2.952746 0
M  V30 50 H 4.011566 -5.789297 -1.942755 0
M  V30 51 H 3.870804 -6.128317 0.442524 0
M  V30 52 H 2.685462 -4.602374 1.867982 0
M  V30 END ATOM
M  V30 BEGIN BOND
M  V30 1 1 1 2
M  V30 2 1 2 3
M  V30 3 1 2 4
M  V30 4 1 4 5
M  V30 5 1 5 6
M  V30 6 1 6 7
M  V30 7 1 7 8
M  V30 8 2 8 9
M  V30 9 1 8 10
M  V30 10 1 10 11
M  V30 11 2 11 12
M  V30 12 1 12 13
M  V30 13 2 13 14
M  V30 14 1 14 15
M  V30 15 1 15 16
M  V30 16 2 16 17
M  V30 17 1 17 18
M  V30 18 1 18 19
M  V30 19 1 14 20
M  V30 20 2 20 21
M  V30 21 1 6 22
M  V30 22 2 22 23
M  V30 23 1 23 24
M  V30 24 2 24 25
M  V30 25 1 25 26
M  V30 26 2 26 27
M  V30 27 1 21 11
M  V30 28 1 27 22
M  V30 29 2 19 15
M  V30 30 1 1 28
M  V30 31 1 1 29
M  V30 32 1 1 30
M  V30 33 1 3 31
M  V30 34 1 3 32
M  V30 35 1 3 33
M  V30 36 1 4 34
M  V30 37 1 4 35
M  V30 38 1 5 36
M  V30 39 1 5 37
M  V30 40 1 6 38
M  V30 41 1 7 39
M  V30 42 1 10 40
M  V30 43 1 12 41
M  V30 44 1 13 42
M  V30 45 1 16 43
M  V30 46 1 18 44
M  V30 47 1 19 45
M  V30 48 1 20 46
M  V30 49 1 21 47
M  V30 50 1 23 48
M  V30 51 1 24 49
M  V30 52 1 25 50
M  V30 53 1 26 51
M  V30 54 1 27 52
M  V30 END BOND
M  V30 END CTAB
M  END
>  <Dataset>  (322) 
ChEMBL_Kinases

>  <Ligand_Instance>  (322) 
nan

>  <PDB_ID>  (322) 
nan

>  <Standardized_SMILES>  (322) 
CN(C)CCC(NC(=O)Nc1ccc(-c2cn[nH]c2)cc1)c1ccccc1

>  <Name>  (322) 
nan

>  <Pocket>  (322) 
nan

>  <ATP_Site>  (322) 
nan

>  <Peripheral>  (322) 
nan

>  <Num_H_Atoms_ProtBoundConf>  (322) 
nan

>  <Num_Resolved_Atoms>  (322) 
nan

>  <Num_Not_Resolved_Atoms>  (322) 
nan

$$$$
CHEMBL3699666
     RDKit          3D

  0  0  0  0  0  0  0  0  0  0999 V3000
M  V30 BEGIN CTAB
M  V30 COUNTS 53 58 0 0 0
M  V30 BEGIN ATOM
M  V30 1 N -4.188628 -4.714089 -0.584382 0
M  V30 2 C -2.860420 -4.810845 -1.160778 0
M  V30 3 C -1.914390 -3.774962 -0.753058 0
M  V30 4 C -2.504117 -2.510134 -0.820688 0
M  V30 5 C -1.797516 -1.357212 -0.481131 0
M  V30 6 C -0.461529 -1.414862 -0.056028 0
M  V30 7 C 0.204256 -0.170172 0.274595 0
M  V30 8 N 0.453174 0.723943 -0.701676 0
M  V30 9 C 1.072097 1.789793 -0.162169 0
M  V30 10 N 1.509787 2.924237 -0.763213 0
M  V30 11 C 2.108384 3.857505 0.005286 0
M  V30 12 C 2.626248 5.142245 -0.552347 0
M  V30 13 C 3.741011 5.831922 0.109299 0
M  V30 14 C 2.397130 6.387862 0.347884 0
M  V30 15 C 2.284304 3.683836 1.381421 0
M  V30 16 C 1.821037 2.502220 1.968306 0
M  V30 17 N 1.219916 1.576219 1.168729 0
M  V30 18 C 0.683380 0.359359 1.451357 0
M  V30 19 C 0.598255 -0.320378 2.737529 0
M  V30 20 C 1.240921 -1.474197 3.128963 0
M  V30 21 C 1.076741 -2.030289 4.379425 0
M  V30 22 C 0.243187 -1.439339 5.311701 0
M  V30 23 C -0.408160 -0.283437 4.937409 0
M  V30 24 C -0.250594 0.281632 3.685485 0
M  V30 25 C 0.077782 -2.655725 -0.002262 0
M  V30 26 C -0.605490 -3.802667 -0.333577 0
M  V30 27 C -2.257949 -6.192385 -1.105170 0
M  V30 28 C -1.739928 -5.933744 -2.516108 0
M  V30 29 C -2.960127 -5.017737 -2.678672 0
M  V30 30 H -4.697658 -3.972002 -1.069213 0
M  V30 31 H -4.179745 -4.703088 0.442003 0
M  V30 32 H -3.533982 -2.288811 -1.131542 0
M  V30 33 H -2.260441 -0.360223 -0.534137 0
M  V30 34 H 2.505268 5.317533 -1.647101 0
M  V30 35 H 4.424767 6.467069 -0.511564 0
M  V30 36 H 4.259528 5.421493 1.016467 0
M  V30 37 H 1.898198 6.222779 1.315392 0
M  V30 38 H 2.093777 7.313311 -0.191629 0
M  V30 39 H 2.752039 4.394792 2.025647 0
M  V30 40 H 1.908716 2.272586 3.030439 0
M  V30 41 H 1.883777 -1.912890 2.390553 0
M  V30 42 H 1.654469 -2.948064 4.544616 0
M  V30 43 H 0.183076 -1.949160 6.260254 0
M  V30 44 H -1.049621 0.146110 5.694213 0
M  V30 45 H -0.826966 1.194864 3.527736 0
M  V30 46 H 1.101392 -2.759178 0.313240 0
M  V30 47 H -0.195863 -4.799215 -0.296030 0
M  V30 48 H -1.457710 -6.355466 -0.386955 0
M  V30 49 H -3.033867 -7.002847 -1.073134 0
M  V30 50 H -1.761157 -6.813014 -3.173844 0
M  V30 51 H -0.830003 -5.337676 -2.528944 0
M  V30 52 H -3.874290 -5.606946 -2.899989 0
M  V30 53 H -2.786402 -4.114537 -3.265005 0
M  V30 END ATOM
M  V30 BEGIN BOND
M  V30 1 1 1 2
M  V30 2 1 2 3
M  V30 3 2 3 4
M  V30 4 1 4 5
M  V30 5 2 5 6
M  V30 6 1 6 7
M  V30 7 1 7 8
M  V30 8 2 8 9
M  V30 9 1 9 10
M  V30 10 2 10 11
M  V30 11 1 11 12
M  V30 12 1 12 13
M  V30 13 1 13 14
M  V30 14 1 11 15
M  V30 15 2 15 16
M  V30 16 1 16 17
M  V30 17 1 17 18
M  V30 18 1 18 19
M  V30 19 2 19 20
M  V30 20 1 20 21
M  V30 21 2 21 22
M  V30 22 1 22 23
M  V30 23 2 23 24
M  V30 24 1 6 25
M  V30 25 2 25 26
M  V30 26 1 2 27
M  V30 27 1 27 28
M  V30 28 1 28 29
M  V30 29 1 29 2
M  V30 30 1 26 3
M  V30 31 2 18 7
M  V30 32 1 24 19
M  V30 33 1 17 9
M  V30 34 1 14 12
M  V30 35 1 1 30
M  V30 36 1 1 31
M  V30 37 1 4 32
M  V30 38 1 5 33
M  V30 39 1 12 34
M  V30 40 1 13 35
M  V30 41 1 13 36
M  V30 42 1 14 37
M  V30 43 1 14 38
M  V30 44 1 15 39
M  V30 45 1 16 40
M  V30 46 1 20 41
M  V30 47 1 21 42
M  V30 48 1 22 43
M  V30 49 1 23 44
M  V30 50 1 24 45
M  V30 51 1 25 46
M  V30 52 1 26 47
M  V30 53 1 27 48
M  V30 54 1 27 49
M  V30 55 1 28 50
M  V30 56 1 28 51
M  V30 57 1 29 52
M  V30 58 1 29 53
M  V30 END BOND
M  V30 END CTAB
M  END
>  <Dataset>  (323) 
ChEMBL_Kinases

>  <Ligand_Instance>  (323) 
nan

>  <PDB_ID>  (323) 
nan

>  <Standardized_SMILES>  (323) 
NC1(c2ccc(-c3nc4nc(C5CC5)ccn4c3-c3ccccc3)cc2)CCC1

>  <Name>  (323) 
nan

>  <Pocket>  (323) 
nan

>  <ATP_Site>  (323) 
nan

>  <Peripheral>  (323) 
nan

>  <Num_H_Atoms_ProtBoundConf>  (323) 
nan

>  <Num_Resolved_Atoms>  (323) 
nan

>  <Num_Not_Resolved_Atoms>  (323) 
nan

$$$$
CHEMBL2332063
     RDKit          3D

  0  0  0  0  0  0  0  0  0  0999 V3000
M  V30 BEGIN CTAB
M  V30 COUNTS 55 57 0 0 0
M  V30 BEGIN ATOM
M  V30 1 C 4.259944 -0.928592 5.494380 0
M  V30 2 O 4.389607 -2.064132 4.661952 0
M  V30 3 C 3.974326 -2.000966 3.341667 0
M  V30 4 C 4.146913 -3.168851 2.617746 0
M  V30 5 C 3.774903 -3.243717 1.288223 0
M  V30 6 C 3.221793 -2.103786 0.706559 0
M  V30 7 C 3.037088 -0.925854 1.401165 0
M  V30 8 C 2.450118 0.231483 0.726450 0
M  V30 9 N 1.024072 0.265759 0.834952 0
M  V30 10 C 0.372297 0.938458 1.931243 0
M  V30 11 C 0.119598 2.376936 1.549461 0
M  V30 12 N -0.524976 3.162326 2.552768 0
M  V30 13 C -0.757416 4.531728 2.167781 0
M  V30 14 C -1.610682 2.559425 3.242753 0
M  V30 15 C 0.211315 -0.367872 -0.143500 0
M  V30 16 O 0.652943 -0.985847 -1.143660 0
M  V30 17 N -1.206601 -0.359620 -0.077454 0
M  V30 18 C -1.907290 -1.039647 -1.133857 0
M  V30 19 C -2.336725 -0.521634 -2.323626 0
M  V30 20 C -2.997411 -1.340866 -3.215817 0
M  V30 21 C -3.201157 -2.675180 -2.862927 0
M  V30 22 C -3.897514 -3.561625 -3.789024 0
M  V30 23 C -4.685097 -4.630284 -3.356363 0
M  V30 24 N -5.187493 -5.251616 -4.432176 0
M  V30 25 N -4.757726 -4.629546 -5.538460 0
M  V30 26 C -3.967575 -3.593156 -5.171215 0
M  V30 27 C -2.754152 -3.174122 -1.647874 0
M  V30 28 N -2.104182 -2.344322 -0.784014 0
M  V30 29 C 3.423315 -0.893573 2.730731 0
M  V30 30 H 5.060065 -0.203648 5.237212 0
M  V30 31 H 3.285058 -0.419312 5.320719 0
M  V30 32 H 4.385555 -1.188190 6.566309 0
M  V30 33 H 4.582948 -4.073911 3.069072 0
M  V30 34 H 3.920997 -4.171182 0.743448 0
M  V30 35 H 2.958152 -2.247819 -0.336662 0
M  V30 36 H 2.929181 1.144804 1.178236 0
M  V30 37 H 2.734306 0.260160 -0.357951 0
M  V30 38 H 1.114601 0.968715 2.779147 0
M  V30 39 H -0.507779 0.438652 2.329222 0
M  V30 40 H 1.066990 2.883101 1.277794 0
M  V30 41 H -0.521172 2.380723 0.636995 0
M  V30 42 H -1.491464 4.652276 1.357802 0
M  V30 43 H -1.121010 5.059827 3.076904 0
M  V30 44 H 0.224058 4.983018 1.863486 0
M  V30 45 H -2.437869 3.329033 3.264895 0
M  V30 46 H -1.339451 2.426798 4.306760 0
M  V30 47 H -2.063464 1.678524 2.778755 0
M  V30 48 H -1.704658 0.122148 0.708089 0
M  V30 49 H -2.118745 0.513719 -2.472811 0
M  V30 50 H -3.330619 -0.930444 -4.144024 0
M  V30 51 H -4.931535 -5.002845 -2.364778 0
M  V30 52 H -4.877385 -4.742478 -6.577183 0
M  V30 53 H -3.419126 -2.838265 -5.710864 0
M  V30 54 H -2.918065 -4.226478 -1.376819 0
M  V30 55 H 3.303277 0.000832 3.325629 0
M  V30 END ATOM
M  V30 BEGIN BOND
M  V30 1 1 1 2
M  V30 2 1 2 3
M  V30 3 2 3 4
M  V30 4 1 4 5
M  V30 5 2 5 6
M  V30 6 1 6 7
M  V30 7 1 7 8
M  V30 8 1 8 9
M  V30 9 1 9 10
M  V30 10 1 10 11
M  V30 11 1 11 12
M  V30 12 1 12 13
M  V30 13 1 12 14
M  V30 14 1 9 15
M  V30 15 2 15 16
M  V30 16 1 15 17
M  V30 17 1 17 18
M  V30 18 2 18 19
M  V30 19 1 19 20
M  V30 20 2 20 21
M  V30 21 1 21 22
M  V30 22 1 22 23
M  V30 23 2 23 24
M  V30 24 1 24 25
M  V30 25 1 25 26
M  V30 26 1 21 27
M  V30 27 2 27 28
M  V30 28 2 7 29
M  V30 29 1 29 3
M  V30 30 1 28 18
M  V30 31 2 26 22
M  V30 32 1 1 30
M  V30 33 1 1 31
M  V30 34 1 1 32
M  V30 35 1 4 33
M  V30 36 1 5 34
M  V30 37 1 6 35
M  V30 38 1 8 36
M  V30 39 1 8 37
M  V30 40 1 10 38
M  V30 41 1 10 39
M  V30 42 1 11 40
M  V30 43 1 11 41
M  V30 44 1 13 42
M  V30 45 1 13 43
M  V30 46 1 13 44
M  V30 47 1 14 45
M  V30 48 1 14 46
M  V30 49 1 14 47
M  V30 50 1 17 48
M  V30 51 1 19 49
M  V30 52 1 20 50
M  V30 53 1 23 51
M  V30 54 1 25 52
M  V30 55 1 26 53
M  V30 56 1 27 54
M  V30 57 1 29 55
M  V30 END BOND
M  V30 END CTAB
M  END
>  <Dataset>  (324) 
ChEMBL_Kinases

>  <Ligand_Instance>  (324) 
nan

>  <PDB_ID>  (324) 
nan

>  <Standardized_SMILES>  (324) 
COc1cccc(CN(CCN(C)C)C(=O)Nc2ccc(-c3cn[nH]c3)cn2)c1

>  <Name>  (324) 
nan

>  <Pocket>  (324) 
nan

>  <ATP_Site>  (324) 
nan

>  <Peripheral>  (324) 
nan

>  <Num_H_Atoms_ProtBoundConf>  (324) 
nan

>  <Num_Resolved_Atoms>  (324) 
nan

>  <Num_Not_Resolved_Atoms>  (324) 
nan

$$$$
CHEMBL3699665
     RDKit          3D

  0  0  0  0  0  0  0  0  0  0999 V3000
M  V30 BEGIN CTAB
M  V30 COUNTS 49 53 0 0 0
M  V30 BEGIN ATOM
M  V30 1 C 1.707825 -7.664818 0.064503 0
M  V30 2 C 1.652536 -6.196983 -0.118712 0
M  V30 3 C 2.391726 -5.535238 -1.072984 0
M  V30 4 C 2.341963 -4.154049 -1.248329 0
M  V30 5 N 1.508451 -3.519014 -0.404373 0
M  V30 6 C 1.253530 -2.199060 -0.335351 0
M  V30 7 C 1.735277 -1.045689 -1.079338 0
M  V30 8 C 0.738407 -0.371221 -1.786039 0
M  V30 9 C 1.072463 0.741571 -2.530570 0
M  V30 10 C 2.366146 1.195227 -2.587627 0
M  V30 11 C 3.349559 0.514671 -1.879410 0
M  V30 12 C 3.039902 -0.606005 -1.123861 0
M  V30 13 C 0.336823 -1.986446 0.674662 0
M  V30 14 C -0.353621 -0.845937 1.273250 0
M  V30 15 C 0.324479 0.167021 1.917007 0
M  V30 16 C -0.363378 1.243504 2.480476 0
M  V30 17 C -1.759538 1.302719 2.395139 0
M  V30 18 C -2.305828 2.494758 3.042006 0
M  V30 19 N -1.843734 2.691941 4.425377 0
M  V30 20 C -3.798922 2.683333 3.018670 0
M  V30 21 C -3.556769 4.121860 2.545618 0
M  V30 22 C -2.130101 3.742783 2.200860 0
M  V30 23 C -2.404753 0.274954 1.745371 0
M  V30 24 C -1.730720 -0.792039 1.186324 0
M  V30 25 N 0.039115 -3.204198 1.218822 0
M  V30 26 C 0.762413 -4.145585 0.551868 0
M  V30 27 N 0.828535 -5.482893 0.701097 0
M  V30 28 H 2.388209 -7.955004 0.910487 0
M  V30 29 H 0.710541 -8.091370 0.329105 0
M  V30 30 H 2.075308 -8.186401 -0.845068 0
M  V30 31 H 3.056483 -6.090014 -1.737767 0
M  V30 32 H 2.914886 -3.618023 -1.992246 0
M  V30 33 H -0.316255 -0.676108 -1.787356 0
M  V30 34 H 0.339139 1.315617 -3.107763 0
M  V30 35 H 2.651588 2.059115 -3.160270 0
M  V30 36 H 4.397492 0.799905 -1.865935 0
M  V30 37 H 3.722981 -1.204516 -0.539844 0
M  V30 38 H 1.403434 0.074260 1.956105 0
M  V30 39 H 0.284369 1.980437 2.961486 0
M  V30 40 H -1.590806 1.774406 4.868344 0
M  V30 41 H -1.113848 3.415548 4.501798 0
M  V30 42 H -4.386143 2.081491 2.328709 0
M  V30 43 H -4.301749 2.706597 4.007715 0
M  V30 44 H -3.640118 4.875321 3.334868 0
M  V30 45 H -4.119804 4.375379 1.643216 0
M  V30 46 H -1.353450 4.416696 2.614834 0
M  V30 47 H -1.919663 3.563045 1.128451 0
M  V30 48 H -3.460228 0.377633 1.713718 0
M  V30 49 H -2.351251 -1.526634 0.708554 0
M  V30 END ATOM
M  V30 BEGIN BOND
M  V30 1 1 1 2
M  V30 2 1 2 3
M  V30 3 2 3 4
M  V30 4 1 4 5
M  V30 5 1 5 6
M  V30 6 1 6 7
M  V30 7 2 7 8
M  V30 8 1 8 9
M  V30 9 2 9 10
M  V30 10 1 10 11
M  V30 11 2 11 12
M  V30 12 2 6 13
M  V30 13 1 13 14
M  V30 14 2 14 15
M  V30 15 1 15 16
M  V30 16 2 16 17
M  V30 17 1 17 18
M  V30 18 1 18 19
M  V30 19 1 18 20
M  V30 20 1 20 21
M  V30 21 1 21 22
M  V30 22 1 17 23
M  V30 23 2 23 24
M  V30 24 1 13 25
M  V30 25 2 25 26
M  V30 26 1 26 27
M  V30 27 2 27 2
M  V30 28 1 26 5
M  V30 29 1 12 7
M  V30 30 1 24 14
M  V30 31 1 22 18
M  V30 32 1 1 28
M  V30 33 1 1 29
M  V30 34 1 1 30
M  V30 35 1 3 31
M  V30 36 1 4 32
M  V30 37 1 8 33
M  V30 38 1 9 34
M  V30 39 1 10 35
M  V30 40 1 11 36
M  V30 41 1 12 37
M  V30 42 1 15 38
M  V30 43 1 16 39
M  V30 44 1 19 40
M  V30 45 1 19 41
M  V30 46 1 20 42
M  V30 47 1 20 43
M  V30 48 1 21 44
M  V30 49 1 21 45
M  V30 50 1 22 46
M  V30 51 1 22 47
M  V30 52 1 23 48
M  V30 53 1 24 49
M  V30 END BOND
M  V30 END CTAB
M  END
>  <Dataset>  (325) 
ChEMBL_Kinases

>  <Ligand_Instance>  (325) 
nan

>  <PDB_ID>  (325) 
nan

>  <Standardized_SMILES>  (325) 
Cc1ccn2c(-c3ccccc3)c(-c3ccc(C4(N)CCC4)cc3)nc2n1

>  <Name>  (325) 
nan

>  <Pocket>  (325) 
nan

>  <ATP_Site>  (325) 
nan

>  <Peripheral>  (325) 
nan

>  <Num_H_Atoms_ProtBoundConf>  (325) 
nan

>  <Num_Resolved_Atoms>  (325) 
nan

>  <Num_Not_Resolved_Atoms>  (325) 
nan

$$$$
CHEMBL3699664
     RDKit          3D

  0  0  0  0  0  0  0  0  0  0999 V3000
M  V30 BEGIN CTAB
M  V30 COUNTS 46 50 0 0 0
M  V30 BEGIN ATOM
M  V30 1 N 1.511852 -3.738982 4.379015 0
M  V30 2 C 1.008157 -3.893424 3.028348 0
M  V30 3 C 1.164969 -2.697554 2.169857 0
M  V30 4 C 1.680816 -2.700407 0.887866 0
M  V30 5 C 1.814118 -1.584348 0.113700 0
M  V30 6 C 1.406503 -0.352493 0.638903 0
M  V30 7 C 1.501748 0.904603 -0.093404 0
M  V30 8 N 2.588279 1.551037 -0.571627 0
M  V30 9 C 2.179967 2.698067 -1.189704 0
M  V30 10 N 2.898905 3.664782 -1.815577 0
M  V30 11 C 2.254100 4.715836 -2.355418 0
M  V30 12 C 0.882536 4.868030 -2.307573 0
M  V30 13 C 0.221467 3.847042 -1.656318 0
M  V30 14 N 0.839413 2.781689 -1.105548 0
M  V30 15 C 0.402628 1.686707 -0.434016 0
M  V30 16 C -1.019223 1.487928 -0.179677 0
M  V30 17 C -1.506566 0.342281 -0.785274 0
M  V30 18 C -2.855940 0.023804 -0.628449 0
M  V30 19 C -3.666982 0.842771 0.115078 0
M  V30 20 C -3.186922 2.003465 0.732334 0
M  V30 21 C -1.849689 2.301360 0.565566 0
M  V30 22 C 0.893729 -0.346128 1.912036 0
M  V30 23 C 0.756931 -1.490736 2.706269 0
M  V30 24 C 1.435505 -5.198330 2.444486 0
M  V30 25 C 0.036495 -5.321998 1.841705 0
M  V30 26 C -0.423655 -4.386610 2.968661 0
M  V30 27 H 2.334642 -4.370430 4.522410 0
M  V30 28 H 0.773941 -4.043375 5.054388 0
M  V30 29 H 1.996198 -3.643329 0.479448 0
M  V30 30 H 2.222277 -1.606896 -0.891496 0
M  V30 31 H 2.825495 5.500764 -2.862567 0
M  V30 32 H 0.337398 5.700405 -2.732560 0
M  V30 33 H -0.872156 3.929149 -1.595108 0
M  V30 34 H -0.943845 -0.367193 -1.391477 0
M  V30 35 H -3.349502 -0.855833 -1.061399 0
M  V30 36 H -4.722100 0.656814 0.278572 0
M  V30 37 H -3.774529 2.685422 1.327965 0
M  V30 38 H -1.324875 3.163923 0.979759 0
M  V30 39 H 0.555478 0.575901 2.388159 0
M  V30 40 H 0.341688 -1.421491 3.712017 0
M  V30 41 H 1.587208 -5.958334 3.244480 0
M  V30 42 H 2.269360 -5.225324 1.742984 0
M  V30 43 H -0.090960 -4.903111 0.843233 0
M  V30 44 H -0.363380 -6.337451 1.972999 0
M  V30 45 H -1.148871 -3.623523 2.620302 0
M  V30 46 H -0.734313 -4.910953 3.874550 0
M  V30 END ATOM
M  V30 BEGIN BOND
M  V30 1 1 1 2
M  V30 2 1 2 3
M  V30 3 2 3 4
M  V30 4 1 4 5
M  V30 5 2 5 6
M  V30 6 1 6 7
M  V30 7 1 7 8
M  V30 8 2 8 9
M  V30 9 1 9 10
M  V30 10 2 10 11
M  V30 11 1 11 12
M  V30 12 2 12 13
M  V30 13 1 13 14
M  V30 14 1 14 15
M  V30 15 1 15 16
M  V30 16 2 16 17
M  V30 17 1 17 18
M  V30 18 2 18 19
M  V30 19 1 19 20
M  V30 20 2 20 21
M  V30 21 1 6 22
M  V30 22 2 22 23
M  V30 23 1 2 24
M  V30 24 1 24 25
M  V30 25 1 25 26
M  V30 26 1 26 2
M  V30 27 1 23 3
M  V30 28 2 15 7
M  V30 29 1 21 16
M  V30 30 1 14 9
M  V30 31 1 1 27
M  V30 32 1 1 28
M  V30 33 1 4 29
M  V30 34 1 5 30
M  V30 35 1 11 31
M  V30 36 1 12 32
M  V30 37 1 13 33
M  V30 38 1 17 34
M  V30 39 1 18 35
M  V30 40 1 19 36
M  V30 41 1 20 37
M  V30 42 1 21 38
M  V30 43 1 22 39
M  V30 44 1 23 40
M  V30 45 1 24 41
M  V30 46 1 24 42
M  V30 47 1 25 43
M  V30 48 1 25 44
M  V30 49 1 26 45
M  V30 50 1 26 46
M  V30 END BOND
M  V30 END CTAB
M  END
>  <Dataset>  (326) 
ChEMBL_Kinases

>  <Ligand_Instance>  (326) 
nan

>  <PDB_ID>  (326) 
nan

>  <Standardized_SMILES>  (326) 
NC1(c2ccc(-c3nc4ncccn4c3-c3ccccc3)cc2)CCC1

>  <Name>  (326) 
nan

>  <Pocket>  (326) 
nan

>  <ATP_Site>  (326) 
nan

>  <Peripheral>  (326) 
nan

>  <Num_H_Atoms_ProtBoundConf>  (326) 
nan

>  <Num_Resolved_Atoms>  (326) 
nan

>  <Num_Not_Resolved_Atoms>  (326) 
nan

$$$$
CHEMBL2332069
     RDKit          3D

  0  0  0  0  0  0  0  0  0  0999 V3000
M  V30 BEGIN CTAB
M  V30 COUNTS 60 63 0 0 0
M  V30 BEGIN ATOM
M  V30 1 C -0.983525 -1.828166 6.077308 0
M  V30 2 O 0.402931 -1.762326 6.346560 0
M  V30 3 C 1.263803 -1.034688 5.541493 0
M  V30 4 C 2.592935 -1.048596 5.909957 0
M  V30 5 C 3.529529 -0.343488 5.157814 0
M  V30 6 C 3.051687 0.353988 4.044085 0
M  V30 7 C 1.737231 0.399696 3.633389 0
M  V30 8 C 1.321718 1.166011 2.439627 0
M  V30 9 N 1.342355 0.392782 1.211950 0
M  V30 10 C 2.619291 0.461998 0.546630 0
M  V30 11 C 2.636301 1.669556 -0.376699 0
M  V30 12 N 1.632114 1.591083 -1.409438 0
M  V30 13 C 1.670470 2.865728 -2.164150 0
M  V30 14 C 0.940938 2.442200 -3.422776 0
M  V30 15 C 1.222717 0.936331 -3.555725 0
M  V30 16 C 2.226660 0.739015 -2.470273 0
M  V30 17 C 0.149815 -0.272939 0.849014 0
M  V30 18 O -0.837970 -0.120158 1.609766 0
M  V30 19 N -0.083926 -1.090049 -0.255971 0
M  V30 20 C -1.233117 -1.791567 -0.700641 0
M  V30 21 C -2.218156 -1.284601 -1.555599 0
M  V30 22 C -3.298649 -2.070501 -1.925812 0
M  V30 23 C -3.386230 -3.359706 -1.437176 0
M  V30 24 C -4.510173 -4.250798 -1.793666 0
M  V30 25 C -5.094720 -5.265720 -1.030522 0
M  V30 26 N -6.076418 -5.754175 -1.843009 0
M  V30 27 N -6.088551 -5.107655 -2.976434 0
M  V30 28 C -5.150911 -4.156629 -3.035160 0
M  V30 29 C -2.426444 -3.878696 -0.593135 0
M  V30 30 C -1.341636 -3.084843 -0.223710 0
M  V30 31 C 0.893017 -0.313792 4.422599 0
M  V30 32 H -1.162066 -2.559424 5.257615 0
M  V30 33 H -1.515576 -2.127381 7.005657 0
M  V30 34 H -1.394199 -0.845729 5.765973 0
M  V30 35 H 2.943908 -1.596957 6.778655 0
M  V30 36 H 4.560459 -0.361205 5.454252 0
M  V30 37 H 3.847230 0.872442 3.529697 0
M  V30 38 H 1.947507 2.077540 2.359710 0
M  V30 39 H 0.270535 1.535586 2.580993 0
M  V30 40 H 3.470807 0.466937 1.232953 0
M  V30 41 H 2.781765 -0.418629 -0.123673 0
M  V30 42 H 3.665033 1.813395 -0.816780 0
M  V30 43 H 2.495998 2.560643 0.300234 0
M  V30 44 H 1.201673 3.686441 -1.623729 0
M  V30 45 H 2.742081 3.013935 -2.424487 0
M  V30 46 H 1.324923 2.943946 -4.339230 0
M  V30 47 H -0.149716 2.552025 -3.298523 0
M  V30 48 H 1.632360 0.719316 -4.561020 0
M  V30 49 H 0.320965 0.334948 -3.342720 0
M  V30 50 H 3.163222 1.309919 -2.741848 0
M  V30 51 H 2.433164 -0.269732 -2.152892 0
M  V30 52 H 0.701689 -1.257814 -0.916372 0
M  V30 53 H -2.079058 -0.270587 -1.893557 0
M  V30 54 H -4.054513 -1.677545 -2.583140 0
M  V30 55 H -4.750583 -5.498137 -0.052160 0
M  V30 56 H -6.758438 -5.304516 -3.766165 0
M  V30 57 H -4.915140 -3.462366 -3.834190 0
M  V30 58 H -2.509197 -4.884390 -0.220320 0
M  V30 59 H -0.604010 -3.533264 0.446378 0
M  V30 60 H -0.157233 -0.363655 4.223263 0
M  V30 END ATOM
M  V30 BEGIN BOND
M  V30 1 1 1 2
M  V30 2 1 2 3
M  V30 3 2 3 4
M  V30 4 1 4 5
M  V30 5 2 5 6
M  V30 6 1 6 7
M  V30 7 1 7 8
M  V30 8 1 8 9
M  V30 9 1 9 10
M  V30 10 1 10 11
M  V30 11 1 11 12
M  V30 12 1 12 13
M  V30 13 1 13 14
M  V30 14 1 14 15
M  V30 15 1 15 16
M  V30 16 1 9 17
M  V30 17 2 17 18
M  V30 18 1 17 19
M  V30 19 1 19 20
M  V30 20 2 20 21
M  V30 21 1 21 22
M  V30 22 2 22 23
M  V30 23 1 23 24
M  V30 24 1 24 25
M  V30 25 2 25 26
M  V30 26 1 26 27
M  V30 27 1 27 28
M  V30 28 1 23 29
M  V30 29 2 29 30
M  V30 30 2 7 31
M  V30 31 1 31 3
M  V30 32 1 16 12
M  V30 33 1 30 20
M  V30 34 2 28 24
M  V30 35 1 1 32
M  V30 36 1 1 33
M  V30 37 1 1 34
M  V30 38 1 4 35
M  V30 39 1 5 36
M  V30 40 1 6 37
M  V30 41 1 8 38
M  V30 42 1 8 39
M  V30 43 1 10 40
M  V30 44 1 10 41
M  V30 45 1 11 42
M  V30 46 1 11 43
M  V30 47 1 13 44
M  V30 48 1 13 45
M  V30 49 1 14 46
M  V30 50 1 14 47
M  V30 51 1 15 48
M  V30 52 1 15 49
M  V30 53 1 16 50
M  V30 54 1 16 51
M  V30 55 1 19 52
M  V30 56 1 21 53
M  V30 57 1 22 54
M  V30 58 1 25 55
M  V30 59 1 27 56
M  V30 60 1 28 57
M  V30 61 1 29 58
M  V30 62 1 30 59
M  V30 63 1 31 60
M  V30 END BOND
M  V30 END CTAB
M  END
>  <Dataset>  (327) 
ChEMBL_Kinases

>  <Ligand_Instance>  (327) 
nan

>  <PDB_ID>  (327) 
nan

>  <Standardized_SMILES>  (327) 
COc1cccc(CN(CCN2CCCC2)C(=O)Nc2ccc(-c3cn[nH]c3)cc2)c1

>  <Name>  (327) 
nan

>  <Pocket>  (327) 
nan

>  <ATP_Site>  (327) 
nan

>  <Peripheral>  (327) 
nan

>  <Num_H_Atoms_ProtBoundConf>  (327) 
nan

>  <Num_Resolved_Atoms>  (327) 
nan

>  <Num_Not_Resolved_Atoms>  (327) 
nan

$$$$
CHEMBL4519471
     RDKit          3D

  0  0  0  0  0  0  0  0  0  0999 V3000
M  V30 BEGIN CTAB
M  V30 COUNTS 55 58 0 0 0
M  V30 BEGIN ATOM
M  V30 1 C 4.269922 -3.846505 4.150907 0
M  V30 2 C 4.020265 -3.521082 2.733740 0
M  V30 3 C 3.483680 -2.277499 2.417514 0
M  V30 4 C 3.227646 -1.915255 1.111263 0
M  V30 5 C 2.666259 -0.622970 0.733831 0
M  V30 6 O 2.428361 -0.287106 -0.471300 0
M  V30 7 N 2.319758 0.406285 1.644467 0
M  V30 8 C 1.796822 1.529883 0.896428 0
M  V30 9 C 2.660195 2.529112 0.442960 0
M  V30 10 C 2.122425 3.583484 -0.266552 0
M  V30 11 C 0.760706 3.649665 -0.522873 0
M  V30 12 C -0.080275 2.667510 -0.075953 0
M  V30 13 N -1.490279 2.578102 -0.248251 0
M  V30 14 C -2.333905 3.154219 0.714547 0
M  V30 15 O -1.763719 3.735889 1.701472 0
M  V30 16 C -3.802699 3.255017 0.867346 0
M  V30 17 O -4.548191 2.657000 -0.140341 0
M  V30 18 C -4.582411 1.348091 -0.517996 0
M  V30 19 C -5.471517 1.188945 -1.585226 0
M  V30 20 C -5.699598 -0.060381 -2.169757 0
M  V30 21 C -5.029129 -1.155573 -1.677455 0
M  V30 22 C -5.161728 -2.439371 -2.160577 0
M  V30 23 O -5.953161 -2.634297 -3.124292 0
M  V30 24 C -4.418848 -3.436274 -1.559340 0
M  V30 25 C -3.556988 -3.230788 -0.511599 0
M  V30 26 O -3.468511 -1.987343 -0.089797 0
M  V30 27 C -4.151232 -1.017920 -0.628678 0
M  V30 28 C -3.934149 0.212380 -0.061719 0
M  V30 29 C 0.422606 1.585478 0.644371 0
M  V30 30 C 3.501602 -2.789309 0.077448 0
M  V30 31 C 4.034106 -4.024024 0.388175 0
M  V30 32 C 4.290538 -4.386300 1.699040 0
M  V30 33 C 4.864101 -5.724210 1.986086 0
M  V30 34 F 6.068504 -5.673707 2.618824 0
M  V30 35 F 3.944181 -6.480706 2.722328 0
M  V30 36 F 5.045001 -6.424992 0.810145 0
M  V30 37 H 5.167706 -4.437164 4.328218 0
M  V30 38 H 3.352499 -4.282618 4.625331 0
M  V30 39 H 4.419342 -2.882469 4.710441 0
M  V30 40 H 3.262686 -1.579346 3.217909 0
M  V30 41 H 2.479884 0.225707 2.680717 0
M  V30 42 H 3.720300 2.484896 0.638110 0
M  V30 43 H 2.756229 4.379364 -0.636322 0
M  V30 44 H 0.289557 4.443943 -1.067936 0
M  V30 45 H -2.042520 2.135778 -1.015107 0
M  V30 46 H -4.019640 4.363749 0.888168 0
M  V30 47 H -4.076403 2.862231 1.874474 0
M  V30 48 H -6.070648 1.956506 -2.079418 0
M  V30 49 H -6.367693 -0.242478 -2.987807 0
M  V30 50 H -4.514166 -4.458443 -1.932043 0
M  V30 51 H -2.994633 -4.054086 -0.074087 0
M  V30 52 H -3.275293 0.461496 0.762875 0
M  V30 53 H -0.171816 0.759080 1.038521 0
M  V30 54 H 3.308875 -2.530586 -0.975531 0
M  V30 55 H 4.240474 -4.691947 -0.438452 0
M  V30 END ATOM
M  V30 BEGIN BOND
M  V30 1 1 1 2
M  V30 2 2 2 3
M  V30 3 1 3 4
M  V30 4 1 4 5
M  V30 5 2 5 6
M  V30 6 1 5 7
M  V30 7 1 7 8
M  V30 8 2 8 9
M  V30 9 1 9 10
M  V30 10 2 10 11
M  V30 11 1 11 12
M  V30 12 1 12 13
M  V30 13 1 13 14
M  V30 14 2 14 15
M  V30 15 1 14 16
M  V30 16 1 16 17
M  V30 17 1 17 18
M  V30 18 2 18 19
M  V30 19 1 19 20
M  V30 20 2 20 21
M  V30 21 1 21 22
M  V30 22 2 22 23
M  V30 23 1 22 24
M  V30 24 2 24 25
M  V30 25 1 25 26
M  V30 26 1 26 27
M  V30 27 2 27 28
M  V30 28 2 12 29
M  V30 29 2 4 30
M  V30 30 1 30 31
M  V30 31 2 31 32
M  V30 32 1 32 33
M  V30 33 1 33 34
M  V30 34 1 33 35
M  V30 35 1 33 36
M  V30 36 1 32 2
M  V30 37 1 29 8
M  V30 38 1 28 18
M  V30 39 1 27 21
M  V30 40 1 1 37
M  V30 41 1 1 38
M  V30 42 1 1 39
M  V30 43 1 3 40
M  V30 44 1 7 41
M  V30 45 1 9 42
M  V30 46 1 10 43
M  V30 47 1 11 44
M  V30 48 1 13 45
M  V30 49 1 16 46
M  V30 50 1 16 47
M  V30 51 1 19 48
M  V30 52 1 20 49
M  V30 53 1 24 50
M  V30 54 1 25 51
M  V30 55 1 28 52
M  V30 56 1 29 53
M  V30 57 1 30 54
M  V30 58 1 31 55
M  V30 END BOND
M  V30 END CTAB
M  END
>  <Dataset>  (328) 
ChEMBL_Kinases

>  <Ligand_Instance>  (328) 
nan

>  <PDB_ID>  (328) 
nan

>  <Standardized_SMILES>  (328) 
Cc1cc(C(=O)Nc2cccc(NC(=O)COc3ccc4c(=O)ccoc4c3)c2)ccc1C(F)(F)F

>  <Name>  (328) 
nan

>  <Pocket>  (328) 
nan

>  <ATP_Site>  (328) 
nan

>  <Peripheral>  (328) 
nan

>  <Num_H_Atoms_ProtBoundConf>  (328) 
nan

>  <Num_Resolved_Atoms>  (328) 
nan

>  <Num_Not_Resolved_Atoms>  (328) 
nan

$$$$
CHEMBL2332073
     RDKit          3D

  0  0  0  0  0  0  0  0  0  0999 V3000
M  V30 BEGIN CTAB
M  V30 COUNTS 63 66 0 0 0
M  V30 BEGIN ATOM
M  V30 1 C 3.257174 4.436293 1.974107 0
M  V30 2 O 3.525921 3.445610 2.943998 0
M  V30 3 C 3.456435 2.114860 2.565840 0
M  V30 4 C 3.706980 1.100000 3.462255 0
M  V30 5 C 3.628939 -0.208840 3.052428 0
M  V30 6 C 3.301465 -0.522425 1.748938 0
M  V30 7 C 3.033499 0.453681 0.781640 0
M  V30 8 C 2.685810 0.192501 -0.615958 0
M  V30 9 N 1.289253 0.039099 -0.899457 0
M  V30 10 C 0.308918 1.042750 -1.268497 0
M  V30 11 C -0.384581 1.619399 -0.071445 0
M  V30 12 N -1.365656 2.614810 -0.335061 0
M  V30 13 C -1.899807 3.045798 0.929010 0
M  V30 14 C -3.401843 3.179980 0.945044 0
M  V30 15 C -4.095054 1.922155 0.490529 0
M  V30 16 C -3.470476 1.384001 -0.759580 0
M  V30 17 C -2.394128 2.289489 -1.260563 0
M  V30 18 C 0.784973 -1.299917 -0.818381 0
M  V30 19 O 1.500245 -2.316844 -0.519994 0
M  V30 20 N -0.566902 -1.693686 -1.054094 0
M  V30 21 C -0.752285 -3.099769 -0.894887 0
M  V30 22 C -0.643801 -4.097556 -1.815512 0
M  V30 23 C -0.876605 -5.393656 -1.404081 0
M  V30 24 C -1.213333 -5.729593 -0.108913 0
M  V30 25 C -1.450860 -7.116730 0.281332 0
M  V30 26 C -0.871615 -8.277805 -0.213982 0
M  V30 27 N -1.396006 -9.333689 0.446159 0
M  V30 28 N -2.271686 -8.906296 1.328308 0
M  V30 29 C -2.337165 -7.562280 1.262462 0
M  V30 30 C -1.324200 -4.702697 0.835121 0
M  V30 31 C -1.091083 -3.392800 0.428757 0
M  V30 32 C 3.136319 1.740005 1.286286 0
M  V30 33 H 2.246893 4.209347 1.542920 0
M  V30 34 H 3.289358 5.458942 2.400804 0
M  V30 35 H 3.988549 4.437036 1.129947 0
M  V30 36 H 3.960784 1.374328 4.475328 0
M  V30 37 H 3.829675 -1.014615 3.771677 0
M  V30 38 H 3.246126 -1.557822 1.443603 0
M  V30 39 H 3.249857 -0.720158 -0.951070 0
M  V30 40 H 3.151949 1.018451 -1.217721 0
M  V30 41 H 0.927142 1.855350 -1.759339 0
M  V30 42 H -0.385876 0.729181 -2.057743 0
M  V30 43 H -0.875018 0.829402 0.552636 0
M  V30 44 H 0.360347 2.079331 0.610535 0
M  V30 45 H -1.489144 4.036426 1.250701 0
M  V30 46 H -1.636354 2.356797 1.762296 0
M  V30 47 H -3.758787 4.034564 0.366657 0
M  V30 48 H -3.703585 3.323356 2.012400 0
M  V30 49 H -4.083893 1.142293 1.303622 0
M  V30 50 H -5.168278 2.169104 0.356678 0
M  V30 51 H -3.187317 0.317726 -0.679691 0
M  V30 52 H -4.270606 1.392397 -1.557413 0
M  V30 53 H -2.017074 1.933102 -2.222767 0
M  V30 54 H -2.910604 3.266382 -1.504202 0
M  V30 55 H -1.251184 -0.942625 -1.307730 0
M  V30 56 H -0.381695 -3.762864 -2.790297 0
M  V30 57 H -0.778091 -6.159839 -2.176296 0
M  V30 58 H -0.124164 -8.203237 -1.011104 0
M  V30 59 H -2.857029 -9.464582 2.002758 0
M  V30 60 H -2.977576 -6.936672 1.876376 0
M  V30 61 H -1.587915 -4.974598 1.845607 0
M  V30 62 H -1.207879 -2.678982 1.255706 0
M  V30 63 H 2.937081 2.554061 0.573606 0
M  V30 END ATOM
M  V30 BEGIN BOND
M  V30 1 1 1 2
M  V30 2 1 2 3
M  V30 3 2 3 4
M  V30 4 1 4 5
M  V30 5 2 5 6
M  V30 6 1 6 7
M  V30 7 1 7 8
M  V30 8 1 8 9
M  V30 9 1 9 10
M  V30 10 1 10 11
M  V30 11 1 11 12
M  V30 12 1 12 13
M  V30 13 1 13 14
M  V30 14 1 14 15
M  V30 15 1 15 16
M  V30 16 1 16 17
M  V30 17 1 9 18
M  V30 18 2 18 19
M  V30 19 1 18 20
M  V30 20 1 20 21
M  V30 21 2 21 22
M  V30 22 1 22 23
M  V30 23 2 23 24
M  V30 24 1 24 25
M  V30 25 1 25 26
M  V30 26 2 26 27
M  V30 27 1 27 28
M  V30 28 1 28 29
M  V30 29 1 24 30
M  V30 30 2 30 31
M  V30 31 2 7 32
M  V30 32 1 32 3
M  V30 33 1 17 12
M  V30 34 1 31 21
M  V30 35 2 29 25
M  V30 36 1 1 33
M  V30 37 1 1 34
M  V30 38 1 1 35
M  V30 39 1 4 36
M  V30 40 1 5 37
M  V30 41 1 6 38
M  V30 42 1 8 39
M  V30 43 1 8 40
M  V30 44 1 10 41
M  V30 45 1 10 42
M  V30 46 1 11 43
M  V30 47 1 11 44
M  V30 48 1 13 45
M  V30 49 1 13 46
M  V30 50 1 14 47
M  V30 51 1 14 48
M  V30 52 1 15 49
M  V30 53 1 15 50
M  V30 54 1 16 51
M  V30 55 1 16 52
M  V30 56 1 17 53
M  V30 57 1 17 54
M  V30 58 1 20 55
M  V30 59 1 22 56
M  V30 60 1 23 57
M  V30 61 1 26 58
M  V30 62 1 28 59
M  V30 63 1 29 60
M  V30 64 1 30 61
M  V30 65 1 31 62
M  V30 66 1 32 63
M  V30 END BOND
M  V30 END CTAB
M  END
>  <Dataset>  (329) 
ChEMBL_Kinases

>  <Ligand_Instance>  (329) 
nan

>  <PDB_ID>  (329) 
nan

>  <Standardized_SMILES>  (329) 
COc1cccc(CN(CCN2CCCCC2)C(=O)Nc2ccc(-c3cn[nH]c3)cc2)c1

>  <Name>  (329) 
nan

>  <Pocket>  (329) 
nan

>  <ATP_Site>  (329) 
nan

>  <Peripheral>  (329) 
nan

>  <Num_H_Atoms_ProtBoundConf>  (329) 
nan

>  <Num_Resolved_Atoms>  (329) 
nan

>  <Num_Not_Resolved_Atoms>  (329) 
nan

$$$$
CHEMBL3702225
     RDKit          3D

  0  0  0  0  0  0  0  0  0  0999 V3000
M  V30 BEGIN CTAB
M  V30 COUNTS 62 66 0 0 0
M  V30 BEGIN ATOM
M  V30 1 C 4.852407 3.065840 2.302513 0
M  V30 2 C 4.306637 1.660081 2.219978 0
M  V30 3 C 3.692281 1.377894 0.864459 0 CFG=1
M  V30 4 C 3.173749 -0.026324 0.850772 0
M  V30 5 N 2.723857 2.377877 0.496460 0
M  V30 6 C 2.983538 3.467341 -0.248023 0
M  V30 7 C 4.144674 3.933769 -0.843781 0
M  V30 8 N 4.123556 5.090846 -1.555678 0
M  V30 9 C 2.973018 5.774447 -1.675998 0
M  V30 10 C 1.782594 5.368938 -1.110273 0
M  V30 11 C 1.801506 4.183384 -0.380012 0
M  V30 12 C 0.851792 3.492380 0.299539 0
M  V30 13 C -0.510637 3.712451 0.523959 0
M  V30 14 N -1.215488 2.850495 1.245556 0
M  V30 15 C -0.661248 1.728292 1.794769 0
M  V30 16 N -1.273318 0.718973 2.587306 0
M  V30 17 C -1.939651 -0.451010 2.067100 0
M  V30 18 C -2.512479 -1.414645 2.868707 0
M  V30 19 C -3.125967 -2.482498 2.280315 0
M  V30 20 C -3.218527 -2.675309 0.919808 0
M  V30 21 N -3.851231 -3.776358 0.288860 0
M  V30 22 C -3.951249 -3.988703 -1.141131 0
M  V30 23 C -3.862677 -5.450018 -1.516405 0
M  V30 24 C -3.026018 -6.228734 -0.517957 0
M  V30 25 N -1.670337 -5.731844 -0.479331 0
M  V30 26 C -1.031019 -5.841139 -1.784880 0
M  V30 27 C -3.616215 -6.116082 0.868112 0
M  V30 28 C -4.496128 -4.860015 0.964550 0
M  V30 29 C -2.627561 -1.679530 0.173684 0
M  V30 30 N -2.009571 -0.604693 0.732715 0
M  V30 31 N 0.656766 1.492376 1.591980 0
M  V30 32 C 1.409115 2.342839 0.865251 0
M  V30 33 H 5.806432 3.175144 1.745961 0
M  V30 34 H 4.098194 3.816643 2.051959 0
M  V30 35 H 5.128566 3.210397 3.376769 0
M  V30 36 H 3.545961 1.528750 3.023972 0
M  V30 37 H 5.137839 0.966596 2.448508 0
M  V30 38 H 4.554736 1.414370 0.135642 0
M  V30 39 H 4.089763 -0.688800 0.858164 0
M  V30 40 H 2.626013 -0.299626 -0.055286 0
M  V30 41 H 2.635651 -0.304890 1.774880 0
M  V30 42 H 5.054099 3.370866 -0.734654 0
M  V30 43 H 2.965571 6.706648 -2.251814 0
M  V30 44 H 0.849086 5.934595 -1.214305 0
M  V30 45 H -0.996124 4.570385 0.120513 0
M  V30 46 H -1.225826 0.853332 3.622373 0
M  V30 47 H -2.463311 -1.304061 3.928650 0
M  V30 48 H -3.553062 -3.200701 2.942922 0
M  V30 49 H -3.259488 -3.363814 -1.728217 0
M  V30 50 H -4.983311 -3.624495 -1.411366 0
M  V30 51 H -4.885447 -5.864762 -1.492124 0
M  V30 52 H -3.454015 -5.498279 -2.528361 0
M  V30 53 H -3.028442 -7.291877 -0.823677 0
M  V30 54 H -1.142587 -6.222788 0.255814 0
M  V30 55 H -1.142316 -4.864025 -2.315711 0
M  V30 56 H 0.051035 -5.986763 -1.607845 0
M  V30 57 H -1.407592 -6.702006 -2.377886 0
M  V30 58 H -2.796380 -6.002171 1.585912 0
M  V30 59 H -4.205464 -6.995106 1.143726 0
M  V30 60 H -5.489158 -5.150529 0.521520 0
M  V30 61 H -4.590211 -4.663103 2.038192 0
M  V30 62 H -2.597561 -1.653486 -0.903446 0
M  V30 END ATOM
M  V30 BEGIN BOND
M  V30 1 1 1 2
M  V30 2 1 2 3
M  V30 3 1 3 4
M  V30 4 1 3 5
M  V30 5 1 5 6
M  V30 6 2 6 7
M  V30 7 1 7 8
M  V30 8 2 8 9
M  V30 9 1 9 10
M  V30 10 2 10 11
M  V30 11 1 11 12
M  V30 12 2 12 13
M  V30 13 1 13 14
M  V30 14 2 14 15
M  V30 15 1 15 16
M  V30 16 1 16 17
M  V30 17 2 17 18
M  V30 18 1 18 19
M  V30 19 2 19 20
M  V30 20 1 20 21
M  V30 21 1 21 22
M  V30 22 1 22 23
M  V30 23 1 23 24
M  V30 24 1 24 25
M  V30 25 1 25 26
M  V30 26 1 24 27
M  V30 27 1 27 28
M  V30 28 1 20 29
M  V30 29 2 29 30
M  V30 30 1 15 31
M  V30 31 2 31 32
M  V30 32 1 32 5
M  V30 33 1 11 6
M  V30 34 1 32 12
M  V30 35 1 30 17
M  V30 36 1 28 21
M  V30 37 1 1 33
M  V30 38 1 1 34
M  V30 39 1 1 35
M  V30 40 1 2 36
M  V30 41 1 2 37
M  V30 42 1 3 38 CFG=3
M  V30 43 1 4 39
M  V30 44 1 4 40
M  V30 45 1 4 41
M  V30 46 1 7 42
M  V30 47 1 9 43
M  V30 48 1 10 44
M  V30 49 1 13 45
M  V30 50 1 16 46
M  V30 51 1 18 47
M  V30 52 1 19 48
M  V30 53 1 22 49
M  V30 54 1 22 50
M  V30 55 1 23 51
M  V30 56 1 23 52
M  V30 57 1 24 53
M  V30 58 1 25 54
M  V30 59 1 26 55
M  V30 60 1 26 56
M  V30 61 1 26 57
M  V30 62 1 27 58
M  V30 63 1 27 59
M  V30 64 1 28 60
M  V30 65 1 28 61
M  V30 66 1 29 62
M  V30 END BOND
M  V30 END CTAB
M  END
>  <Dataset>  (330) 
ChEMBL_Kinases

>  <Ligand_Instance>  (330) 
nan

>  <PDB_ID>  (330) 
nan

>  <Standardized_SMILES>  (330) 
CC[C@@H](C)n1c2cnccc2c2cnc(Nc3ccc(N4CCC(NC)CC4)cn3)nc21

>  <Name>  (330) 
nan

>  <Pocket>  (330) 
nan

>  <ATP_Site>  (330) 
nan

>  <Peripheral>  (330) 
nan

>  <Num_H_Atoms_ProtBoundConf>  (330) 
nan

>  <Num_Resolved_Atoms>  (330) 
nan

>  <Num_Not_Resolved_Atoms>  (330) 
nan

$$$$
CHEMBL2332076
     RDKit          3D

  0  0  0  0  0  0  0  0  0  0999 V3000
M  V30 BEGIN CTAB
M  V30 COUNTS 49 51 0 0 0
M  V30 BEGIN ATOM
M  V30 1 C 4.784692 -4.971327 1.237512 0
M  V30 2 O 5.059498 -4.235748 0.057527 0
M  V30 3 C 4.564179 -2.955962 -0.150847 0
M  V30 4 C 4.869218 -2.289665 -1.325810 0
M  V30 5 C 4.412038 -1.013533 -1.603451 0
M  V30 6 C 3.606951 -0.370625 -0.654607 0
M  V30 7 C 3.284176 -1.006651 0.527528 0
M  V30 8 C 2.436964 -0.367664 1.580582 0
M  V30 9 C 3.191642 0.433997 2.576445 0
M  V30 10 C 3.984481 1.575390 2.050525 0
M  V30 11 O 4.961926 1.211990 1.155689 0
M  V30 12 N 1.372870 0.344856 0.901924 0
M  V30 13 C 0.007448 -0.007487 1.018239 0
M  V30 14 O -0.238699 -0.976354 1.744708 0
M  V30 15 N -1.034734 0.661720 0.375947 0
M  V30 16 C -2.427442 0.411507 0.409153 0
M  V30 17 C -3.068149 -0.582436 1.107770 0
M  V30 18 C -4.427147 -0.809216 1.126756 0
M  V30 19 C -5.236298 0.025550 0.383928 0
M  V30 20 C -6.680892 -0.175098 0.373126 0
M  V30 21 C -7.609656 0.072941 -0.621178 0
M  V30 22 N -8.842194 -0.264652 -0.194146 0
M  V30 23 N -8.750663 -0.729445 1.057384 0
M  V30 24 C -7.433919 -0.679021 1.413808 0
M  V30 25 C -4.635272 1.038440 -0.334109 0
M  V30 26 C -3.268804 1.220867 -0.317710 0
M  V30 27 C 3.770017 -2.285984 0.753418 0
M  V30 28 H 5.577719 -4.707804 1.990089 0
M  V30 29 H 4.899878 -6.045323 0.981159 0
M  V30 30 H 3.783033 -4.793577 1.654447 0
M  V30 31 H 5.499061 -2.805266 -2.056869 0
M  V30 32 H 4.673372 -0.525811 -2.535774 0
M  V30 33 H 3.239697 0.625007 -0.864436 0
M  V30 34 H 1.908307 -1.192802 2.163402 0
M  V30 35 H 3.839377 -0.280567 3.147698 0
M  V30 36 H 2.437834 0.822892 3.310935 0
M  V30 37 H 3.312276 2.339653 1.612958 0
M  V30 38 H 4.513321 2.046980 2.916906 0
M  V30 39 H 5.049905 1.968652 0.498464 0
M  V30 40 H 1.649509 1.162877 0.296581 0
M  V30 41 H -0.688238 1.464378 -0.209134 0
M  V30 42 H -2.487024 -1.263534 1.704683 0
M  V30 43 H -4.859201 -1.615283 1.703569 0
M  V30 44 H -7.308441 0.486424 -1.592622 0
M  V30 45 H -9.534969 -1.074133 1.669492 0
M  V30 46 H -7.002940 -0.979945 2.361860 0
M  V30 47 H -5.224494 1.716009 -0.929180 0
M  V30 48 H -2.849557 2.037606 -0.904637 0
M  V30 49 H 3.512242 -2.770273 1.675895 0
M  V30 END ATOM
M  V30 BEGIN BOND
M  V30 1 1 1 2
M  V30 2 1 2 3
M  V30 3 2 3 4
M  V30 4 1 4 5
M  V30 5 2 5 6
M  V30 6 1 6 7
M  V30 7 1 7 8
M  V30 8 1 8 9
M  V30 9 1 9 10
M  V30 10 1 10 11
M  V30 11 1 8 12
M  V30 12 1 12 13
M  V30 13 2 13 14
M  V30 14 1 13 15
M  V30 15 1 15 16
M  V30 16 2 16 17
M  V30 17 1 17 18
M  V30 18 2 18 19
M  V30 19 1 19 20
M  V30 20 1 20 21
M  V30 21 2 21 22
M  V30 22 1 22 23
M  V30 23 1 23 24
M  V30 24 1 19 25
M  V30 25 2 25 26
M  V30 26 2 7 27
M  V30 27 1 27 3
M  V30 28 1 26 16
M  V30 29 2 24 20
M  V30 30 1 1 28
M  V30 31 1 1 29
M  V30 32 1 1 30
M  V30 33 1 4 31
M  V30 34 1 5 32
M  V30 35 1 6 33
M  V30 36 1 8 34
M  V30 37 1 9 35
M  V30 38 1 9 36
M  V30 39 1 10 37
M  V30 40 1 10 38
M  V30 41 1 11 39
M  V30 42 1 12 40
M  V30 43 1 15 41
M  V30 44 1 17 42
M  V30 45 1 18 43
M  V30 46 1 21 44
M  V30 47 1 23 45
M  V30 48 1 24 46
M  V30 49 1 25 47
M  V30 50 1 26 48
M  V30 51 1 27 49
M  V30 END BOND
M  V30 END CTAB
M  END
>  <Dataset>  (331) 
ChEMBL_Kinases

>  <Ligand_Instance>  (331) 
nan

>  <PDB_ID>  (331) 
nan

>  <Standardized_SMILES>  (331) 
COc1cccc(C(CCO)NC(=O)Nc2ccc(-c3cn[nH]c3)cc2)c1

>  <Name>  (331) 
nan

>  <Pocket>  (331) 
nan

>  <ATP_Site>  (331) 
nan

>  <Peripheral>  (331) 
nan

>  <Num_H_Atoms_ProtBoundConf>  (331) 
nan

>  <Num_Resolved_Atoms>  (331) 
nan

>  <Num_Not_Resolved_Atoms>  (331) 
nan

$$$$
CHEMBL4520619
     RDKit          3D

  0  0  0  0  0  0  0  0  0  0999 V3000
M  V30 BEGIN CTAB
M  V30 COUNTS 67 70 0 0 0
M  V30 BEGIN ATOM
M  V30 1 C 3.393925 -2.689746 5.663510 0
M  V30 2 C 3.433434 -1.346886 4.961346 0
M  V30 3 C 4.825106 -0.778075 5.277906 0
M  V30 4 C 3.366897 -1.595379 3.507690 0
M  V30 5 C 2.033627 -1.838874 2.928699 0
M  V30 6 N 1.804629 -1.136400 1.668580 0
M  V30 7 C 1.245730 -1.733615 0.528566 0
M  V30 8 O 0.892717 -2.935305 0.515217 0
M  V30 9 C 1.091613 -0.885620 -0.645916 0
M  V30 10 C 0.217963 -1.320836 -1.641632 0
M  V30 11 C 0.076293 -0.505210 -2.755983 0
M  V30 12 C 0.762274 0.697894 -2.898911 0
M  V30 13 N 0.434389 1.439922 -4.099628 0
M  V30 14 C -0.969921 1.431002 -4.451228 0
M  V30 15 N -1.442590 1.941191 -5.633531 0
M  V30 16 C -2.781241 1.921291 -5.859930 0
M  V30 17 C -3.681783 1.412516 -4.954960 0
M  V30 18 N -5.088993 1.340292 -5.075485 0 CHG=1 VAL=4
M  V30 19 O -5.875213 1.422751 -4.122002 0
M  V30 20 O -5.914229 1.182853 -6.152260 0 CHG=-1 VAL=1
M  V30 21 C -3.206970 0.903327 -3.772382 0
M  V30 22 N -3.846697 0.315403 -2.649961 0
M  V30 23 C -3.892651 -1.120440 -2.551169 0
M  V30 24 C -3.314499 -1.833084 -3.579588 0
M  V30 25 C -3.334540 -3.210524 -3.473255 0
M  V30 26 C -3.890036 -3.879777 -2.416636 0
M  V30 27 C -4.468977 -3.144782 -1.389555 0
M  V30 28 C -4.478493 -1.749963 -1.443080 0
M  V30 29 Cl -5.181071 -0.753899 -0.191681 0
M  V30 30 N -1.883843 0.948553 -3.605443 0
M  V30 31 C 1.626457 1.116982 -1.909139 0
M  V30 32 C 1.778870 0.317865 -0.794319 0
M  V30 33 C 0.898180 -1.424663 3.844895 0
M  V30 34 C 1.245177 -0.319198 4.790447 0
M  V30 35 C 0.104180 -0.235102 5.786996 0
M  V30 36 C 1.306495 1.047179 4.132091 0
M  V30 37 N 2.438596 -0.528774 5.533152 0
M  V30 38 O 2.244863 -0.713760 6.852110 0 RAD=2 VAL=1
M  V30 39 H 2.358578 -2.839265 6.023644 0
M  V30 40 H 4.048762 -2.684110 6.549259 0
M  V30 41 H 3.601536 -3.525369 4.963168 0
M  V30 42 H 4.887000 -0.437776 6.322130 0
M  V30 43 H 5.519143 -1.635653 5.177279 0
M  V30 44 H 5.140193 -0.031482 4.540866 0
M  V30 45 H 4.100410 -2.380819 3.222421 0
M  V30 46 H 3.782486 -0.674777 2.987326 0
M  V30 47 H 1.883329 -2.930235 2.792063 0
M  V30 48 H 2.130693 -0.152599 1.806846 0
M  V30 49 H -0.310070 -2.272123 -1.506866 0
M  V30 50 H -0.601973 -0.945586 -3.470816 0
M  V30 51 H 1.103445 1.945154 -4.694138 0
M  V30 52 H -3.211330 2.309558 -6.770031 0
M  V30 53 H -4.303648 0.863103 -1.860520 0
M  V30 54 H -2.860058 -1.371724 -4.440504 0
M  V30 55 H -2.892369 -3.799294 -4.255918 0
M  V30 56 H -3.902437 -4.957855 -2.332853 0
M  V30 57 H -4.917679 -3.639063 -0.535646 0
M  V30 58 H 2.133522 2.052484 -2.077988 0
M  V30 59 H 2.447278 0.648610 -0.034317 0
M  V30 60 H 0.600420 -2.295193 4.474426 0
M  V30 61 H 0.023006 -1.179316 3.242502 0
M  V30 62 H -0.338260 -1.241809 6.008312 0
M  V30 63 H -0.705037 0.359486 5.312318 0
M  V30 64 H 0.429275 0.252070 6.739481 0
M  V30 65 H 0.570884 1.137056 3.297312 0
M  V30 66 H 0.992662 1.831743 4.878597 0
M  V30 67 H 2.331334 1.335454 3.822892 0
M  V30 END ATOM
M  V30 BEGIN BOND
M  V30 1 1 1 2
M  V30 2 1 2 3
M  V30 3 1 2 4
M  V30 4 1 4 5
M  V30 5 1 5 6
M  V30 6 1 6 7
M  V30 7 2 7 8
M  V30 8 1 7 9
M  V30 9 2 9 10
M  V30 10 1 10 11
M  V30 11 2 11 12
M  V30 12 1 12 13
M  V30 13 1 13 14
M  V30 14 2 14 15
M  V30 15 1 15 16
M  V30 16 2 16 17
M  V30 17 1 17 18
M  V30 18 2 18 19
M  V30 19 1 18 20
M  V30 20 1 17 21
M  V30 21 1 21 22
M  V30 22 1 22 23
M  V30 23 2 23 24
M  V30 24 1 24 25
M  V30 25 2 25 26
M  V30 26 1 26 27
M  V30 27 2 27 28
M  V30 28 1 28 29
M  V30 29 2 21 30
M  V30 30 1 12 31
M  V30 31 2 31 32
M  V30 32 1 5 33
M  V30 33 1 33 34
M  V30 34 1 34 35
M  V30 35 1 34 36
M  V30 36 1 34 37
M  V30 37 1 37 38
M  V30 38 1 37 2
M  V30 39 1 32 9
M  V30 40 1 30 14
M  V30 41 1 28 23
M  V30 42 1 1 39
M  V30 43 1 1 40
M  V30 44 1 1 41
M  V30 45 1 3 42
M  V30 46 1 3 43
M  V30 47 1 3 44
M  V30 48 1 4 45
M  V30 49 1 4 46
M  V30 50 1 5 47
M  V30 51 1 6 48
M  V30 52 1 10 49
M  V30 53 1 11 50
M  V30 54 1 13 51
M  V30 55 1 16 52
M  V30 56 1 22 53
M  V30 57 1 24 54
M  V30 58 1 25 55
M  V30 59 1 26 56
M  V30 60 1 27 57
M  V30 61 1 31 58
M  V30 62 1 32 59
M  V30 63 1 33 60
M  V30 64 1 33 61
M  V30 65 1 35 62
M  V30 66 1 35 63
M  V30 67 1 35 64
M  V30 68 1 36 65
M  V30 69 1 36 66
M  V30 70 1 36 67
M  V30 END BOND
M  V30 END CTAB
M  END
>  <Dataset>  (332) 
ChEMBL_Kinases

>  <Ligand_Instance>  (332) 
nan

>  <PDB_ID>  (332) 
nan

>  <Standardized_SMILES>  (332) 
CC1(C)CC(NC(=O)c2ccc(Nc3ncc([N+](=O)[O-])c(Nc4ccccc4Cl)n3)cc2)CC(C)(C)N1[O]

>  <Name>  (332) 
nan

>  <Pocket>  (332) 
nan

>  <ATP_Site>  (332) 
nan

>  <Peripheral>  (332) 
nan

>  <Num_H_Atoms_ProtBoundConf>  (332) 
nan

>  <Num_Resolved_Atoms>  (332) 
nan

>  <Num_Not_Resolved_Atoms>  (332) 
nan

$$$$
CHEMBL3699304
     RDKit          3D

  0  0  0  0  0  0  0  0  0  0999 V3000
M  V30 BEGIN CTAB
M  V30 COUNTS 34 37 0 0 0
M  V30 BEGIN ATOM
M  V30 1 C -0.223793 -2.621740 5.823034 0 CHG=-1 VAL=3
M  V30 2 N 0.444431 -2.560377 4.868069 0 CHG=1 VAL=4
M  V30 3 C 1.241949 -2.510353 3.733136 0
M  V30 4 C 2.354675 -3.258164 3.409681 0
M  V30 5 N 2.735303 -2.802369 2.201972 0
M  V30 6 C 1.896668 -1.820617 1.801193 0
M  V30 7 C 1.945918 -1.088646 0.607003 0
M  V30 8 N 2.925696 -1.289280 -0.385079 0
M  V30 9 C 3.043097 -0.588421 -1.616315 0
M  V30 10 C 1.807011 -0.732055 -2.507140 0
M  V30 11 C 2.270637 0.588604 -2.008207 0
M  V30 12 N 0.966628 -0.174469 0.496648 0
M  V30 13 C 0.013876 0.047687 1.418279 0
M  V30 14 N -1.013532 1.025391 1.272099 0
M  V30 15 C -2.321428 0.931394 0.713181 0
M  V30 16 N -2.757571 -0.242915 0.210900 0
M  V30 17 C -4.001054 -0.363495 -0.327666 0
M  V30 18 C -4.501999 -1.594112 -0.871443 0
M  V30 19 N -4.919882 -2.584315 -1.299384 0
M  V30 20 N -4.789605 0.732692 -0.344614 0
M  V30 21 C -4.373983 1.915428 0.151641 0
M  V30 22 C -3.120281 2.063261 0.701924 0
M  V30 23 Cl -2.548840 3.576029 1.352859 0
M  V30 24 N 0.038876 -0.699301 2.537133 0
M  V30 25 N 0.963778 -1.633248 2.750122 0
M  V30 26 H 2.757560 -4.023576 4.054942 0
M  V30 27 H 3.625890 -2.041467 -0.161160 0
M  V30 28 H 4.025551 -0.721293 -2.158902 0
M  V30 29 H 0.884474 -1.119100 -2.071738 0
M  V30 30 H 1.988792 -1.067907 -3.547459 0
M  V30 31 H 1.626045 1.171942 -1.327541 0
M  V30 32 H 2.707424 1.261060 -2.801531 0
M  V30 33 H -0.656651 1.904041 1.662183 0
M  V30 34 H -5.037267 2.776206 0.120424 0
M  V30 END ATOM
M  V30 BEGIN BOND
M  V30 1 3 1 2
M  V30 2 1 2 3
M  V30 3 2 3 4
M  V30 4 1 4 5
M  V30 5 2 5 6
M  V30 6 1 6 7
M  V30 7 1 7 8
M  V30 8 1 8 9
M  V30 9 1 9 10
M  V30 10 1 10 11
M  V30 11 2 7 12
M  V30 12 1 12 13
M  V30 13 1 13 14
M  V30 14 1 14 15
M  V30 15 2 15 16
M  V30 16 1 16 17
M  V30 17 1 17 18
M  V30 18 3 18 19
M  V30 19 2 17 20
M  V30 20 1 20 21
M  V30 21 2 21 22
M  V30 22 1 22 23
M  V30 23 2 13 24
M  V30 24 1 24 25
M  V30 25 1 25 3
M  V30 26 1 25 6
M  V30 27 1 11 9
M  V30 28 1 22 15
M  V30 29 1 4 26
M  V30 30 1 8 27
M  V30 31 1 9 28
M  V30 32 1 10 29
M  V30 33 1 10 30
M  V30 34 1 11 31
M  V30 35 1 11 32
M  V30 36 1 14 33
M  V30 37 1 21 34
M  V30 END BOND
M  V30 END CTAB
M  END
>  <Dataset>  (333) 
ChEMBL_Kinases

>  <Ligand_Instance>  (333) 
nan

>  <PDB_ID>  (333) 
nan

>  <Standardized_SMILES>  (333) 
[C-]#[N+]c1cnc2c(NC3CC3)nc(Nc3nc(C#N)ncc3Cl)nn12

>  <Name>  (333) 
nan

>  <Pocket>  (333) 
nan

>  <ATP_Site>  (333) 
nan

>  <Peripheral>  (333) 
nan

>  <Num_H_Atoms_ProtBoundConf>  (333) 
nan

>  <Num_Resolved_Atoms>  (333) 
nan

>  <Num_Not_Resolved_Atoms>  (333) 
nan

$$$$
CHEMBL4519886
     RDKit          3D

  0  0  0  0  0  0  0  0  0  0999 V3000
M  V30 BEGIN CTAB
M  V30 COUNTS 58 61 0 0 0
M  V30 BEGIN ATOM
M  V30 1 C -1.701330 -0.074052 5.339210 0
M  V30 2 C -1.204960 0.891105 4.313508 0
M  V30 3 C -2.174834 1.099947 3.188305 0
M  V30 4 C 0.122936 0.431262 3.783067 0
M  V30 5 C 1.441154 0.743949 4.025712 0
M  V30 6 N 2.237836 0.020582 3.235602 0
M  V30 7 N 1.432893 -0.738195 2.504245 0
M  V30 8 C 1.820204 -1.642890 1.559605 0
M  V30 9 N 3.131740 -1.936686 1.157712 0
M  V30 10 C 3.694727 -1.399590 -0.078934 0
M  V30 11 C 3.616094 0.077371 -0.107485 0
M  V30 12 C 4.573541 0.959926 0.359299 0
M  V30 13 C 4.298285 2.304073 0.226791 0
M  V30 14 C 3.168640 2.826704 -0.321343 0
M  V30 15 C 2.198291 1.955119 -0.794079 0
M  V30 16 C 2.449613 0.605302 -0.674041 0
M  V30 17 C 0.862920 -2.359366 0.889049 0
M  V30 18 C -0.480350 -2.165659 1.167916 0
M  V30 19 N -1.673246 -2.725906 0.646676 0
M  V30 20 C -2.584732 -2.100276 -0.281876 0
M  V30 21 C -1.974436 -1.701387 -1.594222 0
M  V30 22 C -2.971985 -1.057693 -2.499058 0
M  V30 23 C -3.034322 -1.487679 -3.901387 0
M  V30 24 N -2.283044 -2.625072 -4.305185 0
M  V30 25 C -2.103437 -3.534981 -3.188129 0
M  V30 26 C -1.169386 -2.781079 -2.260019 0
M  V30 27 N -0.819840 -1.249729 2.120774 0
M  V30 28 C 0.134094 -0.543065 2.782143 0
M  V30 29 H -0.835951 -0.600590 5.789813 0
M  V30 30 H -2.352560 -0.832821 4.836825 0
M  V30 31 H -2.236639 0.470708 6.148166 0
M  V30 32 H -1.063863 1.881426 4.814029 0
M  V30 33 H -2.704189 0.176824 2.897427 0
M  V30 34 H -2.959379 1.829773 3.485061 0
M  V30 35 H -1.650683 1.512803 2.272171 0
M  V30 36 H 1.622835 1.494975 4.787875 0
M  V30 37 H 3.690204 -2.556738 1.783779 0
M  V30 38 H 4.750917 -1.757094 -0.205763 0
M  V30 39 H 3.143443 -1.805215 -0.924959 0
M  V30 40 H 5.455861 0.524361 0.786396 0
M  V30 41 H 5.042770 2.998409 0.589629 0
M  V30 42 H 2.953970 3.872524 -0.423781 0
M  V30 43 H 1.284290 2.312003 -1.237316 0
M  V30 44 H 1.669109 -0.048723 -1.054516 0
M  V30 45 H 0.977744 -3.107757 0.123321 0
M  V30 46 H -1.630258 -3.655867 1.143451 0
M  V30 47 H -2.914987 -1.148246 0.219544 0
M  V30 48 H -3.500742 -2.712495 -0.400429 0
M  V30 49 H -1.220934 -0.902178 -1.322365 0
M  V30 50 H -3.991783 -1.269604 -2.055383 0
M  V30 51 H -2.916124 0.068667 -2.418432 0
M  V30 52 H -2.699439 -0.625028 -4.551787 0
M  V30 53 H -4.090154 -1.663724 -4.268529 0
M  V30 54 H -1.321685 -2.328801 -4.610586 0
M  V30 55 H -3.075559 -3.716908 -2.725048 0
M  V30 56 H -1.586155 -4.463361 -3.489953 0
M  V30 57 H -0.393636 -2.324676 -2.877782 0
M  V30 58 H -0.708884 -3.452534 -1.517449 0
M  V30 END ATOM
M  V30 BEGIN BOND
M  V30 1 1 1 2
M  V30 2 1 2 3
M  V30 3 1 2 4
M  V30 4 1 4 5
M  V30 5 2 5 6
M  V30 6 1 6 7
M  V30 7 1 7 8
M  V30 8 1 8 9
M  V30 9 1 9 10
M  V30 10 1 10 11
M  V30 11 2 11 12
M  V30 12 1 12 13
M  V30 13 2 13 14
M  V30 14 1 14 15
M  V30 15 2 15 16
M  V30 16 2 8 17
M  V30 17 1 17 18
M  V30 18 1 18 19
M  V30 19 1 19 20
M  V30 20 1 20 21
M  V30 21 1 21 22
M  V30 22 1 22 23
M  V30 23 1 23 24
M  V30 24 1 24 25
M  V30 25 1 25 26
M  V30 26 2 18 27
M  V30 27 1 27 28
M  V30 28 2 28 4
M  V30 29 1 28 7
M  V30 30 1 16 11
M  V30 31 1 26 21
M  V30 32 1 1 29
M  V30 33 1 1 30
M  V30 34 1 1 31
M  V30 35 1 2 32
M  V30 36 1 3 33
M  V30 37 1 3 34
M  V30 38 1 3 35
M  V30 39 1 5 36
M  V30 40 1 9 37
M  V30 41 1 10 38
M  V30 42 1 10 39
M  V30 43 1 12 40
M  V30 44 1 13 41
M  V30 45 1 14 42
M  V30 46 1 15 43
M  V30 47 1 16 44
M  V30 48 1 17 45
M  V30 49 1 19 46
M  V30 50 1 20 47
M  V30 51 1 20 48
M  V30 52 1 21 49
M  V30 53 1 22 50
M  V30 54 1 22 51
M  V30 55 1 23 52
M  V30 56 1 23 53
M  V30 57 1 24 54
M  V30 58 1 25 55
M  V30 59 1 25 56
M  V30 60 1 26 57
M  V30 61 1 26 58
M  V30 END BOND
M  V30 END CTAB
M  END
>  <Dataset>  (334) 
ChEMBL_Kinases

>  <Ligand_Instance>  (334) 
nan

>  <PDB_ID>  (334) 
nan

>  <Standardized_SMILES>  (334) 
CC(C)c1cnn2c(NCc3ccccc3)cc(NCC3CCNCC3)nc12

>  <Name>  (334) 
nan

>  <Pocket>  (334) 
nan

>  <ATP_Site>  (334) 
nan

>  <Peripheral>  (334) 
nan

>  <Num_H_Atoms_ProtBoundConf>  (334) 
nan

>  <Num_Resolved_Atoms>  (334) 
nan

>  <Num_Not_Resolved_Atoms>  (334) 
nan

$$$$
CHEMBL4519757
     RDKit          3D

  0  0  0  0  0  0  0  0  0  0999 V3000
M  V30 BEGIN CTAB
M  V30 COUNTS 32 34 0 0 0
M  V30 BEGIN ATOM
M  V30 1 C -2.839365 -5.083244 3.585388 0
M  V30 2 C -1.993290 -4.129797 2.824100 0
M  V30 3 C -1.370286 -4.476172 1.643850 0
M  V30 4 C -0.579129 -3.607463 0.925321 0
M  V30 5 C -0.369845 -2.298666 1.378553 0
M  V30 6 C 0.463126 -1.358423 0.635373 0
M  V30 7 C 1.095769 -1.700698 -0.539291 0
M  V30 8 C 1.755562 -0.554132 -0.895185 0
M  V30 9 C 1.532463 0.440997 0.022999 0
M  V30 10 C 1.852723 1.827958 0.322090 0
M  V30 11 C 1.772982 2.834159 -0.510902 0
M  V30 12 N 2.062747 4.230282 -0.333368 0
M  V30 13 C 1.786330 4.951464 -1.543844 0
M  V30 14 S 1.963181 6.549157 -1.820404 0
M  V30 15 N 1.309036 4.013909 -2.525978 0
M  V30 16 C 1.311453 2.772234 -1.889133 0
M  V30 17 O 0.938188 1.737110 -2.494150 0
M  V30 18 O 0.736978 -0.115924 0.930464 0
M  V30 19 C -1.006996 -1.989017 2.558289 0
M  V30 20 C -1.804078 -2.829131 3.303054 0
M  V30 21 Cl -2.566347 -2.340346 4.788682 0
M  V30 22 H -3.913822 -4.784963 3.504548 0
M  V30 23 H -2.523194 -5.069005 4.668081 0
M  V30 24 H -2.643697 -6.106815 3.229607 0
M  V30 25 H -1.489997 -5.488934 1.226258 0
M  V30 26 H -0.119365 -3.937139 0.009860 0
M  V30 27 H 1.143938 -2.601487 -1.135857 0
M  V30 28 H 2.394231 -0.332359 -1.726760 0
M  V30 29 H 2.202975 2.158992 1.295562 0
M  V30 30 H 2.421910 4.657463 0.541555 0
M  V30 31 H 1.030119 4.258769 -3.499626 0
M  V30 32 H -0.856412 -0.973075 2.928239 0
M  V30 END ATOM
M  V30 BEGIN BOND
M  V30 1 1 1 2
M  V30 2 2 2 3
M  V30 3 1 3 4
M  V30 4 2 4 5
M  V30 5 1 5 6
M  V30 6 2 6 7
M  V30 7 1 7 8
M  V30 8 2 8 9
M  V30 9 1 9 10
M  V30 10 2 10 11
M  V30 11 1 11 12
M  V30 12 1 12 13
M  V30 13 2 13 14
M  V30 14 1 13 15
M  V30 15 1 15 16
M  V30 16 2 16 17
M  V30 17 1 9 18
M  V30 18 1 5 19
M  V30 19 2 19 20
M  V30 20 1 20 21
M  V30 21 1 20 2
M  V30 22 1 18 6
M  V30 23 1 16 11
M  V30 24 1 1 22
M  V30 25 1 1 23
M  V30 26 1 1 24
M  V30 27 1 3 25
M  V30 28 1 4 26
M  V30 29 1 7 27
M  V30 30 1 8 28
M  V30 31 1 10 29
M  V30 32 1 12 30
M  V30 33 1 15 31
M  V30 34 1 19 32
M  V30 END BOND
M  V30 END CTAB
M  END
>  <Dataset>  (335) 
ChEMBL_Kinases

>  <Ligand_Instance>  (335) 
nan

>  <PDB_ID>  (335) 
nan

>  <Standardized_SMILES>  (335) 
Cc1ccc(-c2ccc(/C=C3/NC(=S)NC3=O)o2)cc1Cl

>  <Name>  (335) 
nan

>  <Pocket>  (335) 
nan

>  <ATP_Site>  (335) 
nan

>  <Peripheral>  (335) 
nan

>  <Num_H_Atoms_ProtBoundConf>  (335) 
nan

>  <Num_Resolved_Atoms>  (335) 
nan

>  <Num_Not_Resolved_Atoms>  (335) 
nan

$$$$
CHEMBL3699303
     RDKit          3D

  0  0  0  0  0  0  0  0  0  0999 V3000
M  V30 BEGIN CTAB
M  V30 COUNTS 55 58 0 0 0
M  V30 BEGIN ATOM
M  V30 1 C 1.775508 -0.004646 6.502733 0
M  V30 2 C 3.260993 0.072712 6.322108 0
M  V30 3 N 3.641100 1.270334 5.570669 0
M  V30 4 C 3.154585 1.472921 4.227598 0
M  V30 5 N 2.355841 0.540958 3.697396 0
M  V30 6 C 1.868389 0.662780 2.454623 0
M  V30 7 N 1.022264 -0.345101 1.919762 0
M  V30 8 C 0.414578 -0.403871 0.638006 0
M  V30 9 C 0.545622 0.541403 -0.345980 0
M  V30 10 C -0.036359 0.494541 -1.587883 0
M  V30 11 C 0.143239 1.521937 -2.573211 0
M  V30 12 N 0.300971 2.340854 -3.380820 0
M  V30 13 C -0.827709 -0.594092 -1.890747 0
M  V30 14 C -0.992991 -1.574004 -0.936161 0
M  V30 15 N -1.809856 -2.693218 -1.249479 0
M  V30 16 C -3.028537 -3.085098 -0.570713 0
M  V30 17 C -3.991075 -3.830197 -1.426725 0
M  V30 18 N -3.582470 -4.118677 -2.754330 0
M  V30 19 C -3.668649 -3.083324 -3.716951 0
M  V30 20 C -5.033097 -2.635368 -4.109984 0
M  V30 21 F -4.943383 -1.612298 -5.066686 0
M  V30 22 F -5.807386 -2.134268 -3.105153 0
M  V30 23 C -2.201085 -4.575094 -2.706192 0
M  V30 24 C -1.265841 -3.432594 -2.369110 0
M  V30 25 C -0.385231 -1.471975 0.288635 0
M  V30 26 Cl -0.638556 -2.768263 1.466969 0
M  V30 27 N 2.250305 1.775549 1.820172 0
M  V30 28 N 3.032334 2.717859 2.299793 0
M  V30 29 C 3.480110 3.869981 1.758735 0
M  V30 30 C 3.222731 4.418433 0.458559 0
M  V30 31 N 3.031819 4.854316 -0.598811 0
M  V30 32 C 4.286486 4.495448 2.713960 0
M  V30 33 N 4.299917 3.690246 3.815427 0
M  V30 34 C 3.523845 2.605152 3.539485 0
M  V30 35 H 1.364744 -0.794744 5.816979 0
M  V30 36 H 1.228088 0.915926 6.214841 0
M  V30 37 H 1.541363 -0.226569 7.562513 0
M  V30 38 H 3.612932 -0.786207 5.700294 0
M  V30 39 H 3.755215 0.128218 7.301117 0
M  V30 40 H 4.275896 2.002821 5.998436 0
M  V30 41 H 0.818417 -1.152903 2.554409 0
M  V30 42 H 1.142144 1.411821 -0.185519 0
M  V30 43 H -1.302516 -0.664252 -2.859348 0
M  V30 44 H -3.511417 -2.160527 -0.133545 0
M  V30 45 H -2.721547 -3.666832 0.323437 0
M  V30 46 H -4.165726 -4.836323 -0.936649 0
M  V30 47 H -4.988954 -3.341980 -1.348252 0
M  V30 48 H -3.194833 -3.489102 -4.657518 0
M  V30 49 H -3.046304 -2.186028 -3.487669 0
M  V30 50 H -5.625714 -3.437401 -4.618049 0
M  V30 51 H -2.176897 -5.340814 -1.896948 0
M  V30 52 H -1.881881 -5.081919 -3.634931 0
M  V30 53 H -0.297717 -3.855529 -2.037437 0
M  V30 54 H -1.083596 -2.812125 -3.267587 0
M  V30 55 H 4.804973 5.450195 2.592981 0
M  V30 END ATOM
M  V30 BEGIN BOND
M  V30 1 1 1 2
M  V30 2 1 2 3
M  V30 3 1 3 4
M  V30 4 2 4 5
M  V30 5 1 5 6
M  V30 6 1 6 7
M  V30 7 1 7 8
M  V30 8 2 8 9
M  V30 9 1 9 10
M  V30 10 1 10 11
M  V30 11 3 11 12
M  V30 12 2 10 13
M  V30 13 1 13 14
M  V30 14 1 14 15
M  V30 15 1 15 16
M  V30 16 1 16 17
M  V30 17 1 17 18
M  V30 18 1 18 19
M  V30 19 1 19 20
M  V30 20 1 20 21
M  V30 21 1 20 22
M  V30 22 1 18 23
M  V30 23 1 23 24
M  V30 24 2 14 25
M  V30 25 1 25 26
M  V30 26 2 6 27
M  V30 27 1 27 28
M  V30 28 1 28 29
M  V30 29 1 29 30
M  V30 30 3 30 31
M  V30 31 2 29 32
M  V30 32 1 32 33
M  V30 33 2 33 34
M  V30 34 1 34 4
M  V30 35 1 25 8
M  V30 36 1 34 28
M  V30 37 1 24 15
M  V30 38 1 1 35
M  V30 39 1 1 36
M  V30 40 1 1 37
M  V30 41 1 2 38
M  V30 42 1 2 39
M  V30 43 1 3 40
M  V30 44 1 7 41
M  V30 45 1 9 42
M  V30 46 1 13 43
M  V30 47 1 16 44
M  V30 48 1 16 45
M  V30 49 1 17 46
M  V30 50 1 17 47
M  V30 51 1 19 48
M  V30 52 1 19 49
M  V30 53 1 20 50
M  V30 54 1 23 51
M  V30 55 1 23 52
M  V30 56 1 24 53
M  V30 57 1 24 54
M  V30 58 1 32 55
M  V30 END BOND
M  V30 END CTAB
M  END
>  <Dataset>  (336) 
ChEMBL_Kinases

>  <Ligand_Instance>  (336) 
nan

>  <PDB_ID>  (336) 
nan

>  <Standardized_SMILES>  (336) 
CCNc1nc(Nc2cc(C#N)cc(N3CCN(CC(F)F)CC3)c2Cl)nn2c(C#N)cnc12

>  <Name>  (336) 
nan

>  <Pocket>  (336) 
nan

>  <ATP_Site>  (336) 
nan

>  <Peripheral>  (336) 
nan

>  <Num_H_Atoms_ProtBoundConf>  (336) 
nan

>  <Num_Resolved_Atoms>  (336) 
nan

>  <Num_Not_Resolved_Atoms>  (336) 
nan

$$$$
CHEMBL3699302
     RDKit          3D

  0  0  0  0  0  0  0  0  0  0999 V3000
M  V30 BEGIN CTAB
M  V30 COUNTS 52 56 0 0 0
M  V30 BEGIN ATOM
M  V30 1 N -2.829762 1.409085 5.268426 0
M  V30 2 C -2.642484 0.712396 4.365376 0
M  V30 3 C -2.382488 -0.159216 3.234978 0
M  V30 4 C -1.195229 0.022139 2.561020 0
M  V30 5 C -0.968346 -0.821921 1.503291 0
M  V30 6 N 0.237694 -0.754010 0.799535 0
M  V30 7 C 1.177755 0.260213 1.101234 0
M  V30 8 N 1.644756 1.280607 0.406183 0
M  V30 9 C 2.530742 2.187628 0.841208 0
M  V30 10 N 2.981166 3.237238 0.000742 0
M  V30 11 C 2.605192 3.466287 -1.347058 0
M  V30 12 C 1.149340 3.703115 -1.653763 0
M  V30 13 C 1.903333 2.512376 -2.215080 0
M  V30 14 C 2.971572 2.007109 2.136865 0
M  V30 15 N 3.838159 2.708217 2.887967 0
M  V30 16 C 3.977345 2.176125 4.112211 0
M  V30 17 C 3.126578 1.073692 4.080929 0
M  V30 18 C 2.875896 0.136010 5.132109 0
M  V30 19 N 2.673361 -0.627303 5.999129 0
M  V30 20 N 2.519610 0.976375 2.881223 0
M  V30 21 N 1.645663 0.126438 2.373168 0
M  V30 22 C -1.822140 -1.815685 1.071815 0
M  V30 23 O -1.823166 -2.711201 0.118649 0
M  V30 24 C -1.172933 -3.209741 -0.947701 0
M  V30 25 C -2.043243 -3.309589 -2.203810 0
M  V30 26 C -3.070679 -4.403302 -2.092129 0
M  V30 27 N -2.690004 -5.375670 -1.070107 0
M  V30 28 C -1.268854 -5.676953 -1.286711 0
M  V30 29 C -0.475872 -4.541997 -0.692679 0
M  V30 30 C -3.006872 -1.925515 1.819786 0
M  V30 31 C -3.322322 -1.118008 2.905564 0
M  V30 32 F -4.442707 -1.186347 3.655760 0
M  V30 33 H -0.529529 0.794934 2.888434 0
M  V30 34 H 0.838112 -1.149097 0.080760 0
M  V30 35 H 3.662470 3.893052 0.459938 0
M  V30 36 H 3.288096 4.168931 -1.914369 0
M  V30 37 H 0.426512 3.538579 -0.815811 0
M  V30 38 H 0.835055 4.486000 -2.347157 0
M  V30 39 H 1.468104 1.558568 -1.928766 0
M  V30 40 H 2.090784 2.548654 -3.326107 0
M  V30 41 H 4.579680 2.471934 4.965507 0
M  V30 42 H -0.333606 -2.530018 -1.266962 0
M  V30 43 H -2.597335 -2.344122 -2.279333 0
M  V30 44 H -1.402205 -3.401786 -3.077543 0
M  V30 45 H -4.091091 -4.059720 -1.914044 0
M  V30 46 H -3.073062 -4.954105 -3.068830 0
M  V30 47 H -2.741985 -4.901280 -0.137219 0
M  V30 48 H -0.999215 -6.599258 -0.701014 0
M  V30 49 H -1.080060 -5.824796 -2.356927 0
M  V30 50 H 0.554703 -4.571942 -1.094411 0
M  V30 51 H -0.399014 -4.736726 0.406876 0
M  V30 52 H -3.833137 -2.642934 1.662535 0
M  V30 END ATOM
M  V30 BEGIN BOND
M  V30 1 3 1 2
M  V30 2 1 2 3
M  V30 3 2 3 4
M  V30 4 1 4 5
M  V30 5 1 5 6
M  V30 6 1 6 7
M  V30 7 1 7 8
M  V30 8 2 8 9
M  V30 9 1 9 10
M  V30 10 1 10 11
M  V30 11 1 11 12
M  V30 12 1 12 13
M  V30 13 1 9 14
M  V30 14 2 14 15
M  V30 15 1 15 16
M  V30 16 2 16 17
M  V30 17 1 17 18
M  V30 18 3 18 19
M  V30 19 1 17 20
M  V30 20 1 20 21
M  V30 21 2 5 22
M  V30 22 1 22 23
M  V30 23 1 23 24
M  V30 24 1 24 25
M  V30 25 1 25 26
M  V30 26 1 26 27
M  V30 27 1 27 28
M  V30 28 1 28 29
M  V30 29 1 22 30
M  V30 30 2 30 31
M  V30 31 1 31 32
M  V30 32 1 31 3
M  V30 33 2 21 7
M  V30 34 1 29 24
M  V30 35 1 13 11
M  V30 36 1 20 14
M  V30 37 1 4 33
M  V30 38 1 6 34
M  V30 39 1 10 35
M  V30 40 1 11 36
M  V30 41 1 12 37
M  V30 42 1 12 38
M  V30 43 1 13 39
M  V30 44 1 13 40
M  V30 45 1 16 41
M  V30 46 1 24 42
M  V30 47 1 25 43
M  V30 48 1 25 44
M  V30 49 1 26 45
M  V30 50 1 26 46
M  V30 51 1 27 47
M  V30 52 1 28 48
M  V30 53 1 28 49
M  V30 54 1 29 50
M  V30 55 1 29 51
M  V30 56 1 30 52
M  V30 END BOND
M  V30 END CTAB
M  END
>  <Dataset>  (337) 
ChEMBL_Kinases

>  <Ligand_Instance>  (337) 
nan

>  <PDB_ID>  (337) 
nan

>  <Standardized_SMILES>  (337) 
N#Cc1cc(Nc2nc(NC3CC3)c3ncc(C#N)n3n2)c(OC2CCNCC2)cc1F

>  <Name>  (337) 
nan

>  <Pocket>  (337) 
nan

>  <ATP_Site>  (337) 
nan

>  <Peripheral>  (337) 
nan

>  <Num_H_Atoms_ProtBoundConf>  (337) 
nan

>  <Num_Resolved_Atoms>  (337) 
nan

>  <Num_Not_Resolved_Atoms>  (337) 
nan

$$$$
CHEMBL2332071
     RDKit          3D

  0  0  0  0  0  0  0  0  0  0999 V3000
M  V30 BEGIN CTAB
M  V30 COUNTS 61 64 0 0 0
M  V30 BEGIN ATOM
M  V30 1 C 1.335381 2.646681 5.324832 0
M  V30 2 O 1.240009 1.264918 5.519895 0
M  V30 3 C 1.413483 0.394068 4.465051 0
M  V30 4 C 1.290489 -0.941989 4.820007 0
M  V30 5 C 1.448346 -1.896838 3.833174 0
M  V30 6 C 1.717657 -1.519134 2.547130 0
M  V30 7 C 1.854542 -0.197237 2.116634 0
M  V30 8 C 2.158755 0.189020 0.742303 0
M  V30 9 N 1.032365 0.345403 -0.151011 0
M  V30 10 C 0.148169 1.376601 -0.595236 0
M  V30 11 C -1.129181 1.510704 0.153339 0
M  V30 12 N -0.994345 1.854608 1.556229 0
M  V30 13 C -2.313112 1.865508 2.191744 0
M  V30 14 C -3.142741 3.031355 1.657057 0
M  V30 15 O -2.464652 4.221702 1.646998 0
M  V30 16 C -1.221095 4.204834 1.069343 0
M  V30 17 C -0.369173 3.164797 1.708980 0
M  V30 18 C 0.772154 -0.927743 -0.796702 0
M  V30 19 O 1.336489 -2.078846 -0.752809 0
M  V30 20 N -0.293716 -1.194588 -1.723342 0
M  V30 21 C -0.305598 -2.546917 -2.205962 0
M  V30 22 C 0.377866 -2.937242 -3.340461 0
M  V30 23 C 0.340384 -4.249725 -3.770987 0
M  V30 24 C -0.391823 -5.201447 -3.061459 0
M  V30 25 C -0.479015 -6.606606 -3.455321 0
M  V30 26 C -0.448813 -7.144704 -4.724461 0
M  V30 27 N -0.559714 -8.485254 -4.618441 0
M  V30 28 N -0.659926 -8.829628 -3.331500 0
M  V30 29 C -0.611971 -7.687328 -2.604715 0
M  V30 30 C -1.067542 -4.755513 -1.917390 0
M  V30 31 C -1.047106 -3.448885 -1.464454 0
M  V30 32 C 1.685493 0.694729 3.149921 0
M  V30 33 H 0.306322 3.003614 5.064352 0
M  V30 34 H 1.660628 3.154444 6.283423 0
M  V30 35 H 2.076926 2.965611 4.569471 0
M  V30 36 H 1.079278 -1.268896 5.820315 0
M  V30 37 H 1.349640 -2.948140 4.124376 0
M  V30 38 H 1.826822 -2.344343 1.863380 0
M  V30 39 H 2.967410 -0.461379 0.294777 0
M  V30 40 H 2.657201 1.213077 0.737328 0
M  V30 41 H 0.682705 2.369808 -0.520538 0
M  V30 42 H -0.063421 1.269913 -1.668641 0
M  V30 43 H -1.750318 2.275570 -0.326700 0
M  V30 44 H -1.739613 0.569242 0.111480 0
M  V30 45 H -2.854256 0.947016 1.901630 0
M  V30 46 H -2.187828 1.938485 3.284082 0
M  V30 47 H -3.968022 3.137032 2.416486 0
M  V30 48 H -3.636570 2.793427 0.718838 0
M  V30 49 H -1.212602 4.197240 -0.041138 0
M  V30 50 H -0.746334 5.197468 1.336661 0
M  V30 51 H -0.374490 3.371132 2.803798 0
M  V30 52 H 0.659073 3.086528 1.354065 0
M  V30 53 H -0.982141 -0.426027 -1.986764 0
M  V30 54 H 0.948952 -2.199678 -3.895839 0
M  V30 55 H 0.872046 -4.569650 -4.659517 0
M  V30 56 H -0.352060 -6.586100 -5.656635 0
M  V30 57 H -0.756896 -9.822034 -2.994715 0
M  V30 58 H -0.669654 -7.633353 -1.513796 0
M  V30 59 H -1.629497 -5.513324 -1.383617 0
M  V30 60 H -1.614924 -3.243828 -0.565330 0
M  V30 61 H 1.771745 1.751227 2.975812 0
M  V30 END ATOM
M  V30 BEGIN BOND
M  V30 1 1 1 2
M  V30 2 1 2 3
M  V30 3 2 3 4
M  V30 4 1 4 5
M  V30 5 2 5 6
M  V30 6 1 6 7
M  V30 7 1 7 8
M  V30 8 1 8 9
M  V30 9 1 9 10
M  V30 10 1 10 11
M  V30 11 1 11 12
M  V30 12 1 12 13
M  V30 13 1 13 14
M  V30 14 1 14 15
M  V30 15 1 15 16
M  V30 16 1 16 17
M  V30 17 1 9 18
M  V30 18 2 18 19
M  V30 19 1 18 20
M  V30 20 1 20 21
M  V30 21 2 21 22
M  V30 22 1 22 23
M  V30 23 2 23 24
M  V30 24 1 24 25
M  V30 25 1 25 26
M  V30 26 2 26 27
M  V30 27 1 27 28
M  V30 28 1 28 29
M  V30 29 1 24 30
M  V30 30 2 30 31
M  V30 31 2 7 32
M  V30 32 1 32 3
M  V30 33 1 17 12
M  V30 34 1 31 21
M  V30 35 2 29 25
M  V30 36 1 1 33
M  V30 37 1 1 34
M  V30 38 1 1 35
M  V30 39 1 4 36
M  V30 40 1 5 37
M  V30 41 1 6 38
M  V30 42 1 8 39
M  V30 43 1 8 40
M  V30 44 1 10 41
M  V30 45 1 10 42
M  V30 46 1 11 43
M  V30 47 1 11 44
M  V30 48 1 13 45
M  V30 49 1 13 46
M  V30 50 1 14 47
M  V30 51 1 14 48
M  V30 52 1 16 49
M  V30 53 1 16 50
M  V30 54 1 17 51
M  V30 55 1 17 52
M  V30 56 1 20 53
M  V30 57 1 22 54
M  V30 58 1 23 55
M  V30 59 1 26 56
M  V30 60 1 28 57
M  V30 61 1 29 58
M  V30 62 1 30 59
M  V30 63 1 31 60
M  V30 64 1 32 61
M  V30 END BOND
M  V30 END CTAB
M  END
>  <Dataset>  (338) 
ChEMBL_Kinases

>  <Ligand_Instance>  (338) 
nan

>  <PDB_ID>  (338) 
nan

>  <Standardized_SMILES>  (338) 
COc1cccc(CN(CCN2CCOCC2)C(=O)Nc2ccc(-c3cn[nH]c3)cc2)c1

>  <Name>  (338) 
nan

>  <Pocket>  (338) 
nan

>  <ATP_Site>  (338) 
nan

>  <Peripheral>  (338) 
nan

>  <Num_H_Atoms_ProtBoundConf>  (338) 
nan

>  <Num_Resolved_Atoms>  (338) 
nan

>  <Num_Not_Resolved_Atoms>  (338) 
nan

$$$$
CHEMBL3699713
     RDKit          3D

  0  0  0  0  0  0  0  0  0  0999 V3000
M  V30 BEGIN CTAB
M  V30 COUNTS 53 57 0 0 0
M  V30 BEGIN ATOM
M  V30 1 C 2.439541 -8.402724 3.564918 0
M  V30 2 O 2.074537 -7.037970 3.670513 0
M  V30 3 C 1.769572 -6.258327 2.564441 0
M  V30 4 O 1.952927 -7.179207 1.733664 0
M  V30 5 C 1.394537 -4.853934 2.672530 0
M  V30 6 C 1.345880 -4.301530 3.934772 0
M  V30 7 C 0.984570 -2.973421 3.933651 0
M  V30 8 C 0.697359 -2.259640 2.772783 0
M  V30 9 N 0.328646 -0.974751 2.519200 0
M  V30 10 C 0.187673 -0.853224 1.165580 0
M  V30 11 C -0.206994 0.481934 0.739363 0
M  V30 12 C 0.514226 1.377667 -0.018125 0
M  V30 13 C 0.032621 2.623399 -0.364749 0
M  V30 14 C -1.215725 3.009995 0.051507 0
M  V30 15 C -1.609503 4.380615 -0.392768 0
M  V30 16 N -1.035118 4.755446 -1.669150 0
M  V30 17 C -1.173210 5.412814 0.656274 0
M  V30 18 C -2.596576 5.377946 1.174932 0
M  V30 19 C -3.010332 4.799396 -0.138849 0
M  V30 20 C -1.989624 2.160228 0.812921 0
M  V30 21 C -1.476793 0.916638 1.143318 0
M  V30 22 C 0.467345 -2.062127 0.564287 0
M  V30 23 C 0.391924 -2.202077 -0.861832 0
M  V30 24 C 1.159282 -1.630883 -1.856569 0
M  V30 25 C 0.941784 -1.876324 -3.190973 0
M  V30 26 C -0.089670 -2.733164 -3.572700 0
M  V30 27 C -0.882049 -3.325844 -2.596116 0
M  V30 28 C -0.641147 -3.060950 -1.255353 0
M  V30 29 N 0.775693 -2.901984 1.574647 0
M  V30 30 C 1.121762 -4.201321 1.486065 0
M  V30 31 H 3.233783 -8.545465 2.786372 0
M  V30 32 H 1.598000 -9.061209 3.266737 0
M  V30 33 H 2.817776 -8.790144 4.534289 0
M  V30 34 H 1.564805 -4.843968 4.821658 0
M  V30 35 H 0.914430 -2.439474 4.870527 0
M  V30 36 H 1.492519 1.037160 -0.324095 0
M  V30 37 H 0.720399 3.219719 -0.968078 0
M  V30 38 H -1.580604 5.549822 -2.036058 0
M  V30 39 H -0.053188 5.118700 -1.563920 0
M  V30 40 H -1.004323 6.418230 0.200543 0
M  V30 41 H -0.406968 5.069037 1.357670 0
M  V30 42 H -2.617089 4.692049 2.055299 0
M  V30 43 H -3.031288 6.390695 1.396897 0
M  V30 44 H -3.801464 4.029399 -0.142002 0
M  V30 45 H -3.299146 5.617138 -0.833253 0
M  V30 46 H -2.947212 2.512803 1.106432 0
M  V30 47 H -2.176656 0.331359 1.747302 0
M  V30 48 H 1.924918 -0.994256 -1.492979 0
M  V30 49 H 1.615337 -1.364546 -3.864243 0
M  V30 50 H -0.203702 -2.881040 -4.643071 0
M  V30 51 H -1.665900 -3.980605 -2.954441 0
M  V30 52 H -1.344191 -3.597698 -0.605300 0
M  V30 53 H 1.182694 -4.708363 0.533137 0
M  V30 END ATOM
M  V30 BEGIN BOND
M  V30 1 1 1 2
M  V30 2 1 2 3
M  V30 3 2 3 4
M  V30 4 1 3 5
M  V30 5 1 5 6
M  V30 6 2 6 7
M  V30 7 1 7 8
M  V30 8 2 8 9
M  V30 9 1 9 10
M  V30 10 1 10 11
M  V30 11 2 11 12
M  V30 12 1 12 13
M  V30 13 2 13 14
M  V30 14 1 14 15
M  V30 15 1 15 16
M  V30 16 1 15 17
M  V30 17 1 17 18
M  V30 18 1 18 19
M  V30 19 1 14 20
M  V30 20 2 20 21
M  V30 21 2 10 22
M  V30 22 1 22 23
M  V30 23 2 23 24
M  V30 24 1 24 25
M  V30 25 2 25 26
M  V30 26 1 26 27
M  V30 27 2 27 28
M  V30 28 1 22 29
M  V30 29 1 29 30
M  V30 30 2 30 5
M  V30 31 1 29 8
M  V30 32 1 21 11
M  V30 33 1 28 23
M  V30 34 1 19 15
M  V30 35 1 1 31
M  V30 36 1 1 32
M  V30 37 1 1 33
M  V30 38 1 6 34
M  V30 39 1 7 35
M  V30 40 1 12 36
M  V30 41 1 13 37
M  V30 42 1 16 38
M  V30 43 1 16 39
M  V30 44 1 17 40
M  V30 45 1 17 41
M  V30 46 1 18 42
M  V30 47 1 18 43
M  V30 48 1 19 44
M  V30 49 1 19 45
M  V30 50 1 20 46
M  V30 51 1 21 47
M  V30 52 1 24 48
M  V30 53 1 25 49
M  V30 54 1 26 50
M  V30 55 1 27 51
M  V30 56 1 28 52
M  V30 57 1 30 53
M  V30 END BOND
M  V30 END CTAB
M  END
>  <Dataset>  (339) 
ChEMBL_Kinases

>  <Ligand_Instance>  (339) 
nan

>  <PDB_ID>  (339) 
nan

>  <Standardized_SMILES>  (339) 
COC(=O)c1ccc2nc(-c3ccc(C4(N)CCC4)cc3)c(-c3ccccc3)n2c1

>  <Name>  (339) 
nan

>  <Pocket>  (339) 
nan

>  <ATP_Site>  (339) 
nan

>  <Peripheral>  (339) 
nan

>  <Num_H_Atoms_ProtBoundConf>  (339) 
nan

>  <Num_Resolved_Atoms>  (339) 
nan

>  <Num_Not_Resolved_Atoms>  (339) 
nan

$$$$
CHEMBL2322136
     RDKit          3D

  0  0  0  0  0  0  0  0  0  0999 V3000
M  V30 BEGIN CTAB
M  V30 COUNTS 37 40 0 0 0
M  V30 BEGIN ATOM
M  V30 1 C -2.576294 -0.767758 2.899183 0
M  V30 2 N -1.380076 -0.459594 2.109011 0
M  V30 3 N -1.282558 -0.717307 0.818197 0
M  V30 4 C -0.061838 -0.306398 0.428623 0
M  V30 5 C 0.390942 -0.424738 -0.956207 0
M  V30 6 C 1.225834 -1.629866 -1.235410 0
M  V30 7 C 0.557150 -2.939054 -1.253732 0
M  V30 8 C -0.919821 -2.960399 -1.266422 0
M  V30 9 C -1.597394 -1.746044 -1.776656 0
M  V30 10 C -0.795722 -0.511397 -1.907248 0
M  V30 11 C 0.565394 0.207140 1.542424 0
M  V30 12 C 1.809110 0.760604 1.743742 0
M  V30 13 C 2.844188 0.975480 0.861368 0
M  V30 14 C 3.849685 1.554663 1.606263 0
M  V30 15 N 3.403933 1.670654 2.889161 0
M  V30 16 C 2.152526 1.191471 3.007855 0
M  V30 17 N 1.316646 1.092283 4.059752 0
M  V30 18 C 0.083760 0.546191 3.874146 0
M  V30 19 C -0.274475 0.111508 2.619941 0
M  V30 20 H -2.541585 -0.289924 3.879903 0
M  V30 21 H -2.579082 -1.878722 2.985496 0
M  V30 22 H -3.454812 -0.443855 2.310404 0
M  V30 23 H 0.950558 0.464965 -1.302599 0
M  V30 24 H 2.102149 -1.575115 -0.541068 0
M  V30 25 H 1.700302 -1.444386 -2.244810 0
M  V30 26 H 0.988184 -3.576770 -2.076056 0
M  V30 27 H 0.900660 -3.489814 -0.328868 0
M  V30 28 H -1.245353 -3.817409 -1.931981 0
M  V30 29 H -1.342992 -3.293684 -0.271752 0
M  V30 30 H -2.460952 -1.511381 -1.090576 0
M  V30 31 H -2.111028 -1.915013 -2.767996 0
M  V30 32 H -0.388207 -0.431701 -2.949553 0
M  V30 33 H -1.387243 0.413259 -1.742592 0
M  V30 34 H 2.978269 0.783361 -0.190732 0
M  V30 35 H 4.826434 1.871141 1.264656 0
M  V30 36 H 3.970381 2.080533 3.670540 0
M  V30 37 H -0.619027 0.450653 4.706563 0
M  V30 END ATOM
M  V30 BEGIN BOND
M  V30 1 1 1 2
M  V30 2 1 2 3
M  V30 3 2 3 4
M  V30 4 1 4 5
M  V30 5 1 5 6
M  V30 6 1 6 7
M  V30 7 1 7 8
M  V30 8 1 8 9
M  V30 9 1 9 10
M  V30 10 1 4 11
M  V30 11 2 11 12
M  V30 12 1 12 13
M  V30 13 2 13 14
M  V30 14 1 14 15
M  V30 15 1 15 16
M  V30 16 2 16 17
M  V30 17 1 17 18
M  V30 18 2 18 19
M  V30 19 1 19 2
M  V30 20 1 10 5
M  V30 21 1 19 11
M  V30 22 1 16 12
M  V30 23 1 1 20
M  V30 24 1 1 21
M  V30 25 1 1 22
M  V30 26 1 5 23
M  V30 27 1 6 24
M  V30 28 1 6 25
M  V30 29 1 7 26
M  V30 30 1 7 27
M  V30 31 1 8 28
M  V30 32 1 8 29
M  V30 33 1 9 30
M  V30 34 1 9 31
M  V30 35 1 10 32
M  V30 36 1 10 33
M  V30 37 1 13 34
M  V30 38 1 14 35
M  V30 39 1 15 36
M  V30 40 1 18 37
M  V30 END BOND
M  V30 END CTAB
M  END
>  <Dataset>  (340) 
ChEMBL_Kinases

>  <Ligand_Instance>  (340) 
nan

>  <PDB_ID>  (340) 
nan

>  <Standardized_SMILES>  (340) 
Cn1nc(C2CCCCC2)c2c3cc[nH]c3ncc21

>  <Name>  (340) 
nan

>  <Pocket>  (340) 
nan

>  <ATP_Site>  (340) 
nan

>  <Peripheral>  (340) 
nan

>  <Num_H_Atoms_ProtBoundConf>  (340) 
nan

>  <Num_Resolved_Atoms>  (340) 
nan

>  <Num_Not_Resolved_Atoms>  (340) 
nan

$$$$
CHEMBL2322137
     RDKit          3D

  0  0  0  0  0  0  0  0  0  0999 V3000
M  V30 BEGIN CTAB
M  V30 COUNTS 33 36 0 0 0
M  V30 BEGIN ATOM
M  V30 1 C 1.187220 -4.057616 1.006453 0
M  V30 2 C 0.696524 -2.776262 0.859983 0
M  V30 3 C 1.743851 -1.909024 0.861850 0
M  V30 4 C 2.884321 -2.662931 1.010264 0
M  V30 5 N 4.080042 -2.043485 1.043010 0
M  V30 6 C 4.171553 -0.693842 0.931990 0
M  V30 7 C 3.049588 0.087941 0.782507 0
M  V30 8 O 2.759296 1.361972 0.650226 0
M  V30 9 N 1.494477 1.570236 0.540437 0
M  V30 10 C 0.810142 0.393403 0.593717 0
M  V30 11 C -0.653494 0.271218 0.503507 0
M  V30 12 C -1.112830 0.042892 -0.929492 0
M  V30 13 C -2.566164 -0.333720 -0.862192 0
M  V30 14 C -3.221190 0.043867 0.427533 0
M  V30 15 C -2.779108 1.365601 0.970934 0
M  V30 16 C -1.308243 1.615642 0.874331 0
M  V30 17 C 1.806794 -0.542082 0.747406 0
M  V30 18 N 2.545233 -3.957136 1.097139 0
M  V30 19 H 0.665832 -5.024766 1.051775 0
M  V30 20 H -0.351160 -2.655050 0.771818 0
M  V30 21 H 5.124056 -0.176713 0.955960 0
M  V30 22 H -1.108352 -0.445356 1.209238 0
M  V30 23 H -0.487680 -0.688809 -1.472713 0
M  V30 24 H -1.019682 1.016425 -1.453004 0
M  V30 25 H -3.151425 0.078483 -1.706153 0
M  V30 26 H -2.652706 -1.456283 -0.947533 0
M  V30 27 H -3.173214 -0.768074 1.188938 0
M  V30 28 H -4.325271 0.148546 0.221552 0
M  V30 29 H -3.044399 1.407714 2.063269 0
M  V30 30 H -3.373999 2.183060 0.488694 0
M  V30 31 H -1.134114 2.284573 -0.014686 0
M  V30 32 H -0.847652 2.076128 1.753460 0
M  V30 33 H 3.232734 -4.738625 1.214890 0
M  V30 END ATOM
M  V30 BEGIN BOND
M  V30 1 2 1 2
M  V30 2 1 2 3
M  V30 3 2 3 4
M  V30 4 1 4 5
M  V30 5 2 5 6
M  V30 6 1 6 7
M  V30 7 1 7 8
M  V30 8 1 8 9
M  V30 9 2 9 10
M  V30 10 1 10 11
M  V30 11 1 11 12
M  V30 12 1 12 13
M  V30 13 1 13 14
M  V30 14 1 14 15
M  V30 15 1 15 16
M  V30 16 1 10 17
M  V30 17 1 4 18
M  V30 18 1 18 1
M  V30 19 1 17 3
M  V30 20 2 17 7
M  V30 21 1 16 11
M  V30 22 1 1 19
M  V30 23 1 2 20
M  V30 24 1 6 21
M  V30 25 1 11 22
M  V30 26 1 12 23
M  V30 27 1 12 24
M  V30 28 1 13 25
M  V30 29 1 13 26
M  V30 30 1 14 27
M  V30 31 1 14 28
M  V30 32 1 15 29
M  V30 33 1 15 30
M  V30 34 1 16 31
M  V30 35 1 16 32
M  V30 36 1 18 33
M  V30 END BOND
M  V30 END CTAB
M  END
>  <Dataset>  (341) 
ChEMBL_Kinases

>  <Ligand_Instance>  (341) 
nan

>  <PDB_ID>  (341) 
nan

>  <Standardized_SMILES>  (341) 
c1cc2c(ncc3onc(C4CCCCC4)c32)[nH]1

>  <Name>  (341) 
nan

>  <Pocket>  (341) 
nan

>  <ATP_Site>  (341) 
nan

>  <Peripheral>  (341) 
nan

>  <Num_H_Atoms_ProtBoundConf>  (341) 
nan

>  <Num_Resolved_Atoms>  (341) 
nan

>  <Num_Not_Resolved_Atoms>  (341) 
nan

$$$$
CHEMBL2322138
     RDKit          3D

  0  0  0  0  0  0  0  0  0  0999 V3000
M  V30 BEGIN CTAB
M  V30 COUNTS 34 37 0 0 0
M  V30 BEGIN ATOM
M  V30 1 C 0.867598 -3.270156 2.454989 0
M  V30 2 C 0.581019 -2.384782 1.446182 0
M  V30 3 C 1.335758 -1.277785 1.589357 0
M  V30 4 C 2.087032 -1.511180 2.706814 0
M  V30 5 N 2.982097 -0.580766 3.141822 0
M  V30 6 C 3.120765 0.571710 2.460860 0
M  V30 7 C 2.343683 0.768228 1.338506 0
M  V30 8 N 2.245949 1.793531 0.444875 0
M  V30 9 C 1.324051 1.457886 -0.468109 0
M  V30 10 N 0.767424 0.214455 -0.236427 0
M  V30 11 C -0.182320 -0.203282 -1.114321 0
M  V30 12 C -1.022018 -1.335799 -1.240787 0
M  V30 13 C -2.288048 -1.423691 -0.408173 0
M  V30 14 C -2.329339 -0.368034 0.671529 0
M  V30 15 C -1.992929 1.002873 0.137113 0
M  V30 16 C -1.254120 0.949390 -1.174912 0
M  V30 17 C 1.416601 -0.147063 0.853228 0
M  V30 18 N 1.826894 -2.721919 3.264035 0
M  V30 19 H 0.514274 -4.250254 2.726029 0
M  V30 20 H -0.149041 -2.773144 0.800573 0
M  V30 21 H 3.805903 1.364039 2.733884 0
M  V30 22 H 1.220409 2.238719 -1.201833 0
M  V30 23 H 0.275059 -0.048198 -2.172201 0
M  V30 24 H -0.574844 -2.355801 -1.454182 0
M  V30 25 H -1.487257 -1.235086 -2.294340 0
M  V30 26 H -3.226775 -1.311649 -0.983482 0
M  V30 27 H -2.412538 -2.409198 0.098539 0
M  V30 28 H -1.728900 -0.641013 1.564502 0
M  V30 29 H -3.367858 -0.315673 1.062130 0
M  V30 30 H -1.440756 1.538730 0.935318 0
M  V30 31 H -2.922939 1.576280 -0.050712 0
M  V30 32 H -1.931262 0.765416 -2.007690 0
M  V30 33 H -0.692224 1.882564 -1.287812 0
M  V30 34 H 2.287046 -3.102832 4.122939 0
M  V30 END ATOM
M  V30 BEGIN BOND
M  V30 1 2 1 2
M  V30 2 1 2 3
M  V30 3 2 3 4
M  V30 4 1 4 5
M  V30 5 2 5 6
M  V30 6 1 6 7
M  V30 7 1 7 8
M  V30 8 2 8 9
M  V30 9 1 9 10
M  V30 10 1 10 11
M  V30 11 1 11 12
M  V30 12 1 12 13
M  V30 13 1 13 14
M  V30 14 1 14 15
M  V30 15 1 15 16
M  V30 16 1 10 17
M  V30 17 1 4 18
M  V30 18 1 18 1
M  V30 19 1 17 3
M  V30 20 2 17 7
M  V30 21 1 16 11
M  V30 22 1 1 19
M  V30 23 1 2 20
M  V30 24 1 6 21
M  V30 25 1 9 22
M  V30 26 1 11 23
M  V30 27 1 12 24
M  V30 28 1 12 25
M  V30 29 1 13 26
M  V30 30 1 13 27
M  V30 31 1 14 28
M  V30 32 1 14 29
M  V30 33 1 15 30
M  V30 34 1 15 31
M  V30 35 1 16 32
M  V30 36 1 16 33
M  V30 37 1 18 34
M  V30 END BOND
M  V30 END CTAB
M  END
>  <Dataset>  (342) 
ChEMBL_Kinases

>  <Ligand_Instance>  (342) 
nan

>  <PDB_ID>  (342) 
nan

>  <Standardized_SMILES>  (342) 
c1cc2c(ncc3ncn(C4CCCCC4)c32)[nH]1

>  <Name>  (342) 
nan

>  <Pocket>  (342) 
nan

>  <ATP_Site>  (342) 
nan

>  <Peripheral>  (342) 
nan

>  <Num_H_Atoms_ProtBoundConf>  (342) 
nan

>  <Num_Resolved_Atoms>  (342) 
nan

>  <Num_Not_Resolved_Atoms>  (342) 
nan

$$$$
CHEMBL2322139
     RDKit          3D

  0  0  0  0  0  0  0  0  0  0999 V3000
M  V30 BEGIN CTAB
M  V30 COUNTS 37 40 0 0 0
M  V30 BEGIN ATOM
M  V30 1 F 0.524385 0.719047 5.003375 0
M  V30 2 C -0.312263 0.262022 3.951571 0
M  V30 3 F -1.508220 0.813244 4.250772 0
M  V30 4 F -0.404795 -1.095725 4.237420 0
M  V30 5 C 0.339924 0.593300 2.706523 0
M  V30 6 N 1.103260 1.731894 2.618427 0
M  V30 7 C 1.616625 1.846059 1.406545 0
M  V30 8 C 2.438130 2.839868 0.914029 0
M  V30 9 N 2.840008 2.721198 -0.384335 0
M  V30 10 C 2.445300 1.677265 -1.136106 0
M  V30 11 N 2.733921 1.375056 -2.413862 0
M  V30 12 C 2.105019 0.205145 -2.726089 0
M  V30 13 C 1.438414 -0.172890 -1.597779 0
M  V30 14 C 1.624652 0.719574 -0.583912 0
M  V30 15 C 1.160110 0.748314 0.722597 0
M  V30 16 N 0.372528 -0.039524 1.492165 0
M  V30 17 C -0.272574 -1.224338 1.090062 0
M  V30 18 C 0.545005 -2.455013 0.896455 0
M  V30 19 C -0.356786 -3.422905 0.158772 0
M  V30 20 C -1.607821 -2.831353 -0.387923 0
M  V30 21 C -2.508862 -2.153984 0.588458 0
M  V30 22 C -1.604298 -1.571777 1.704732 0
M  V30 23 H 2.744103 3.674877 1.543319 0
M  V30 24 H 3.335041 1.935725 -3.059583 0
M  V30 25 H 2.179923 -0.252838 -3.700099 0
M  V30 26 H 0.880146 -1.081244 -1.621207 0
M  V30 27 H -0.591261 -0.996261 0.018485 0
M  V30 28 H 1.497528 -2.270456 0.368170 0
M  V30 29 H 0.829877 -2.974919 1.826900 0
M  V30 30 H -0.634910 -4.312429 0.758117 0
M  V30 31 H 0.230116 -3.780234 -0.724033 0
M  V30 32 H -1.443543 -2.246172 -1.340874 0
M  V30 33 H -2.199843 -3.719221 -0.766344 0
M  V30 34 H -3.316074 -2.765389 0.988994 0
M  V30 35 H -2.980686 -1.257362 0.110000 0
M  V30 36 H -1.562810 -2.484035 2.362569 0
M  V30 37 H -2.081621 -0.710943 2.166661 0
M  V30 END ATOM
M  V30 BEGIN BOND
M  V30 1 1 1 2
M  V30 2 1 2 3
M  V30 3 1 2 4
M  V30 4 1 2 5
M  V30 5 2 5 6
M  V30 6 1 6 7
M  V30 7 2 7 8
M  V30 8 1 8 9
M  V30 9 2 9 10
M  V30 10 1 10 11
M  V30 11 1 11 12
M  V30 12 2 12 13
M  V30 13 1 13 14
M  V30 14 2 14 15
M  V30 15 1 15 16
M  V30 16 1 16 17
M  V30 17 1 17 18
M  V30 18 1 18 19
M  V30 19 1 19 20
M  V30 20 1 20 21
M  V30 21 1 21 22
M  V30 22 1 16 5
M  V30 23 1 22 17
M  V30 24 1 15 7
M  V30 25 1 14 10
M  V30 26 1 8 23
M  V30 27 1 11 24
M  V30 28 1 12 25
M  V30 29 1 13 26
M  V30 30 1 17 27
M  V30 31 1 18 28
M  V30 32 1 18 29
M  V30 33 1 19 30
M  V30 34 1 19 31
M  V30 35 1 20 32
M  V30 36 1 20 33
M  V30 37 1 21 34
M  V30 38 1 21 35
M  V30 39 1 22 36
M  V30 40 1 22 37
M  V30 END BOND
M  V30 END CTAB
M  END
>  <Dataset>  (343) 
ChEMBL_Kinases

>  <Ligand_Instance>  (343) 
nan

>  <PDB_ID>  (343) 
nan

>  <Standardized_SMILES>  (343) 
FC(F)(F)c1nc2cnc3[nH]ccc3c2n1C1CCCCC1

>  <Name>  (343) 
nan

>  <Pocket>  (343) 
nan

>  <ATP_Site>  (343) 
nan

>  <Peripheral>  (343) 
nan

>  <Num_H_Atoms_ProtBoundConf>  (343) 
nan

>  <Num_Resolved_Atoms>  (343) 
nan

>  <Num_Not_Resolved_Atoms>  (343) 
nan

$$$$
CHEMBL2322141
     RDKit          3D

  0  0  0  0  0  0  0  0  0  0999 V3000
M  V30 BEGIN CTAB
M  V30 COUNTS 33 36 0 0 0
M  V30 BEGIN ATOM
M  V30 1 C 1.204759 -3.706007 2.228797 0
M  V30 2 C 0.678267 -2.604327 1.593706 0
M  V30 3 C 1.720758 -1.827189 1.224432 0
M  V30 4 C 2.858219 -2.453586 1.632203 0
M  V30 5 N 4.076749 -1.888663 1.389424 0
M  V30 6 C 4.152105 -0.709722 0.745361 0
M  V30 7 C 2.971659 -0.114212 0.352180 0
M  V30 8 N 2.719943 1.055463 -0.304998 0
M  V30 9 N 1.396031 1.157363 -0.434751 0
M  V30 10 C 0.801276 0.080874 0.124055 0
M  V30 11 C -0.644883 0.076719 0.045795 0
M  V30 12 C -1.162046 0.363206 -1.356141 0
M  V30 13 C -2.632958 0.121250 -1.355896 0
M  V30 14 C -3.206910 -0.084592 0.027839 0
M  V30 15 C -2.712102 0.915148 1.023219 0
M  V30 16 C -1.248298 1.252602 0.848433 0
M  V30 17 N 1.773587 -0.668997 0.590524 0
M  V30 18 N 2.557559 -3.625990 2.260126 0
M  V30 19 H 0.783244 -4.588046 2.690329 0
M  V30 20 H -0.367623 -2.612984 1.540226 0
M  V30 21 H 5.135181 -0.257922 0.551670 0
M  V30 22 H -1.088116 -0.790240 0.498021 0
M  V30 23 H -0.592076 -0.173529 -2.134095 0
M  V30 24 H -0.980651 1.440977 -1.544083 0
M  V30 25 H -3.204553 0.924137 -1.855893 0
M  V30 26 H -2.818834 -0.803011 -1.935564 0
M  V30 27 H -3.110143 -1.141392 0.357607 0
M  V30 28 H -4.312866 0.075115 -0.081792 0
M  V30 29 H -2.833006 0.473286 2.033378 0
M  V30 30 H -3.351562 1.825954 0.979904 0
M  V30 31 H -1.200244 2.182120 0.241068 0
M  V30 32 H -0.717132 1.388899 1.807555 0
M  V30 33 H 3.295642 -4.264775 2.652469 0
M  V30 END ATOM
M  V30 BEGIN BOND
M  V30 1 2 1 2
M  V30 2 1 2 3
M  V30 3 2 3 4
M  V30 4 1 4 5
M  V30 5 2 5 6
M  V30 6 1 6 7
M  V30 7 2 7 8
M  V30 8 1 8 9
M  V30 9 2 9 10
M  V30 10 1 10 11
M  V30 11 1 11 12
M  V30 12 1 12 13
M  V30 13 1 13 14
M  V30 14 1 14 15
M  V30 15 1 15 16
M  V30 16 1 10 17
M  V30 17 1 4 18
M  V30 18 1 18 1
M  V30 19 1 17 3
M  V30 20 1 17 7
M  V30 21 1 16 11
M  V30 22 1 1 19
M  V30 23 1 2 20
M  V30 24 1 6 21
M  V30 25 1 11 22
M  V30 26 1 12 23
M  V30 27 1 12 24
M  V30 28 1 13 25
M  V30 29 1 13 26
M  V30 30 1 14 27
M  V30 31 1 14 28
M  V30 32 1 15 29
M  V30 33 1 15 30
M  V30 34 1 16 31
M  V30 35 1 16 32
M  V30 36 1 18 33
M  V30 END BOND
M  V30 END CTAB
M  END
>  <Dataset>  (344) 
ChEMBL_Kinases

>  <Ligand_Instance>  (344) 
nan

>  <PDB_ID>  (344) 
nan

>  <Standardized_SMILES>  (344) 
c1cc2c(ncc3nnc(C4CCCCC4)n32)[nH]1

>  <Name>  (344) 
nan

>  <Pocket>  (344) 
nan

>  <ATP_Site>  (344) 
nan

>  <Peripheral>  (344) 
nan

>  <Num_H_Atoms_ProtBoundConf>  (344) 
nan

>  <Num_Resolved_Atoms>  (344) 
nan

>  <Num_Not_Resolved_Atoms>  (344) 
nan

$$$$
CHEMBL4526234
     RDKit          3D

  0  0  0  0  0  0  0  0  0  0999 V3000
M  V30 BEGIN CTAB
M  V30 COUNTS 62 67 0 0 0
M  V30 BEGIN ATOM
M  V30 1 C 3.770354 -4.895445 5.298663 0
M  V30 2 N 3.103902 -5.090947 4.027827 0
M  V30 3 C 3.129548 -6.409183 3.470041 0
M  V30 4 C 2.298022 -6.608128 2.247927 0
M  V30 5 O 1.838196 -5.424633 1.640100 0
M  V30 6 C 1.845624 -4.181663 2.216391 0
M  V30 7 C 2.469331 -3.967358 3.417806 0
M  V30 8 C 2.496554 -2.734156 4.028231 0
M  V30 9 N 1.874223 -1.754756 3.374386 0
M  V30 10 N 1.278089 -1.972643 2.221356 0
M  V30 11 C 0.641077 -1.059493 1.509789 0
M  V30 12 C 0.252091 0.256298 1.423517 0
M  V30 13 C 0.685976 0.810311 2.710871 0
M  V30 14 C 0.553218 2.152003 3.207406 0
M  V30 15 C -0.092727 3.032691 2.297394 0
M  V30 16 C -0.239438 4.355228 2.761710 0
M  V30 17 C -0.880090 5.215735 1.856825 0
M  V30 18 C -1.297762 4.735256 0.644631 0
M  V30 19 C -1.132991 3.430566 0.231331 0
M  V30 20 N -1.467578 2.795010 -0.982023 0
M  V30 21 C -1.467081 1.564285 -1.688606 0
M  V30 22 C -1.854761 1.844983 -3.143958 0
M  V30 23 C -2.960108 0.958832 -3.638030 0
M  V30 24 C -2.648405 -0.486752 -3.430002 0
M  V30 25 C -1.540421 -0.932092 -4.365179 0
M  V30 26 C -3.875381 -1.302925 -3.774904 0
M  V30 27 C -2.281027 -0.724565 -1.980890 0
M  V30 28 C -2.468714 0.535103 -1.140110 0
M  V30 29 C -0.531521 2.548495 1.036836 0
M  V30 30 N -0.088083 1.408236 1.348705 0
M  V30 31 N 0.172113 -1.683125 0.391817 0
M  V30 32 N 0.517297 -2.981106 0.409883 0
M  V30 33 C 1.203953 -3.136842 1.558474 0
M  V30 34 H 3.054012 -4.858956 6.137456 0
M  V30 35 H 4.406845 -3.959490 5.296513 0
M  V30 36 H 4.548926 -5.702022 5.443324 0
M  V30 37 H 4.191090 -6.714678 3.253526 0
M  V30 38 H 2.793225 -7.122389 4.278847 0
M  V30 39 H 1.383396 -7.190516 2.491066 0
M  V30 40 H 2.823658 -7.223603 1.476025 0
M  V30 41 H 2.982911 -2.547306 4.973323 0
M  V30 42 H 1.212963 0.347060 3.615938 0
M  V30 43 H 0.888264 2.570204 4.203094 0
M  V30 44 H 0.069081 4.782474 3.697483 0
M  V30 45 H -1.095762 6.258713 2.001663 0
M  V30 46 H -1.794703 5.362697 -0.084798 0
M  V30 47 H -1.867837 3.577705 -1.533839 0
M  V30 48 H -0.489854 1.040769 -1.722379 0
M  V30 49 H -1.000054 1.757198 -3.827354 0
M  V30 50 H -2.223072 2.905834 -3.234279 0
M  V30 51 H -3.920816 1.199996 -3.136724 0
M  V30 52 H -3.077471 1.183529 -4.721084 0
M  V30 53 H -1.853210 -0.755342 -5.397567 0
M  V30 54 H -1.318831 -2.008362 -4.261904 0
M  V30 55 H -0.585060 -0.385833 -4.142256 0
M  V30 56 H -3.839309 -2.281913 -3.261135 0
M  V30 57 H -3.909979 -1.378298 -4.875593 0
M  V30 58 H -4.767552 -0.696672 -3.442283 0
M  V30 59 H -1.202477 -0.972728 -1.893545 0
M  V30 60 H -2.859107 -1.531165 -1.539586 0
M  V30 61 H -3.492836 0.934442 -1.177056 0
M  V30 62 H -2.161101 0.289191 -0.121385 0
M  V30 END ATOM
M  V30 BEGIN BOND
M  V30 1 1 1 2
M  V30 2 1 2 3
M  V30 3 1 3 4
M  V30 4 1 4 5
M  V30 5 1 5 6
M  V30 6 2 6 7
M  V30 7 1 7 8
M  V30 8 2 8 9
M  V30 9 1 9 10
M  V30 10 1 10 11
M  V30 11 1 11 12
M  V30 12 2 12 13
M  V30 13 1 13 14
M  V30 14 2 14 15
M  V30 15 1 15 16
M  V30 16 2 16 17
M  V30 17 1 17 18
M  V30 18 2 18 19
M  V30 19 1 19 20
M  V30 20 1 20 21
M  V30 21 1 21 22
M  V30 22 1 22 23
M  V30 23 1 23 24
M  V30 24 1 24 25
M  V30 25 1 24 26
M  V30 26 1 24 27
M  V30 27 1 27 28
M  V30 28 1 19 29
M  V30 29 2 29 30
M  V30 30 2 11 31
M  V30 31 1 31 32
M  V30 32 2 32 33
M  V30 33 1 7 2
M  V30 34 1 33 10
M  V30 35 1 33 6
M  V30 36 1 30 12
M  V30 37 1 29 15
M  V30 38 1 28 21
M  V30 39 1 1 34
M  V30 40 1 1 35
M  V30 41 1 1 36
M  V30 42 1 3 37
M  V30 43 1 3 38
M  V30 44 1 4 39
M  V30 45 1 4 40
M  V30 46 1 8 41
M  V30 47 1 13 42
M  V30 48 1 14 43
M  V30 49 1 16 44
M  V30 50 1 17 45
M  V30 51 1 18 46
M  V30 52 1 20 47
M  V30 53 1 21 48
M  V30 54 1 22 49
M  V30 55 1 22 50
M  V30 56 1 23 51
M  V30 57 1 23 52
M  V30 58 1 25 53
M  V30 59 1 25 54
M  V30 60 1 25 55
M  V30 61 1 26 56
M  V30 62 1 26 57
M  V30 63 1 26 58
M  V30 64 1 27 59
M  V30 65 1 27 60
M  V30 66 1 28 61
M  V30 67 1 28 62
M  V30 END BOND
M  V30 END CTAB
M  END
>  <Dataset>  (345) 
ChEMBL_Kinases

>  <Ligand_Instance>  (345) 
nan

>  <PDB_ID>  (345) 
nan

>  <Standardized_SMILES>  (345) 
CN1CCOc2c1cnn1c(-c3ccc4cccc(NC5CCC(C)(C)CC5)c4n3)nnc21

>  <Name>  (345) 
nan

>  <Pocket>  (345) 
nan

>  <ATP_Site>  (345) 
nan

>  <Peripheral>  (345) 
nan

>  <Num_H_Atoms_ProtBoundConf>  (345) 
nan

>  <Num_Resolved_Atoms>  (345) 
nan

>  <Num_Not_Resolved_Atoms>  (345) 
nan

$$$$
CHEMBL4526143
     RDKit          3D

  0  0  0  0  0  0  0  0  0  0999 V3000
M  V30 BEGIN CTAB
M  V30 COUNTS 38 40 0 0 0
M  V30 BEGIN ATOM
M  V30 1 O 1.665148 -1.948342 3.415103 0
M  V30 2 C 0.937009 -1.488200 2.476187 0
M  V30 3 N 0.583200 -2.269437 1.340048 0
M  V30 4 C 1.011424 -3.642482 1.139818 0
M  V30 5 C 2.421940 -3.723977 0.684898 0
M  V30 6 C 3.571750 -3.834519 1.436585 0
M  V30 7 C 4.835934 -3.892274 0.891306 0
M  V30 8 N 5.007336 -3.839989 -0.461885 0
M  V30 9 C 3.947026 -3.731664 -1.279994 0
M  V30 10 C 2.680146 -3.675917 -0.695992 0
M  V30 11 C 0.459197 -0.108795 2.587750 0
M  V30 12 C -0.304012 0.580341 1.647265 0
M  V30 13 C -0.568748 1.866099 2.099589 0
M  V30 14 C -1.342494 2.852275 1.354641 0
M  V30 15 O -1.166393 4.046801 1.758704 0
M  V30 16 C -2.213559 2.445998 0.263532 0
M  V30 17 C -2.022146 3.271839 -0.845964 0
M  V30 18 C -2.763513 3.038126 -2.012326 0
M  V30 19 C -3.668551 2.004587 -2.063068 0
M  V30 20 C -3.845574 1.191635 -0.947533 0
M  V30 21 C -3.120045 1.410344 0.214309 0
M  V30 22 F -3.207432 0.688941 1.359637 0
M  V30 23 C 0.048047 1.932085 3.324341 0
M  V30 24 N 0.650988 0.755858 3.597501 0
M  V30 25 H -0.033845 -1.782512 0.617070 0
M  V30 26 H 0.387877 -4.065336 0.330453 0
M  V30 27 H 0.920152 -4.215286 2.085534 0
M  V30 28 H 3.394864 -3.874292 2.522084 0
M  V30 29 H 5.687857 -3.975574 1.561681 0
M  V30 30 H 3.995283 -3.682293 -2.368701 0
M  V30 31 H 1.822595 -3.590497 -1.355367 0
M  V30 32 H -0.644844 0.176879 0.695695 0
M  V30 33 H -1.362955 4.113849 -0.962602 0
M  V30 34 H -2.683040 3.623141 -2.912002 0
M  V30 35 H -4.274640 1.772620 -2.945613 0
M  V30 36 H -4.544151 0.348643 -0.901901 0
M  V30 37 H 0.020442 2.833609 3.947750 0
M  V30 38 H 1.192447 0.566581 4.483649 0
M  V30 END ATOM
M  V30 BEGIN BOND
M  V30 1 2 1 2
M  V30 2 1 2 3
M  V30 3 1 3 4
M  V30 4 1 4 5
M  V30 5 2 5 6
M  V30 6 1 6 7
M  V30 7 2 7 8
M  V30 8 1 8 9
M  V30 9 2 9 10
M  V30 10 1 2 11
M  V30 11 2 11 12
M  V30 12 1 12 13
M  V30 13 1 13 14
M  V30 14 2 14 15
M  V30 15 1 14 16
M  V30 16 2 16 17
M  V30 17 1 17 18
M  V30 18 2 18 19
M  V30 19 1 19 20
M  V30 20 2 20 21
M  V30 21 1 21 22
M  V30 22 2 13 23
M  V30 23 1 23 24
M  V30 24 1 10 5
M  V30 25 1 24 11
M  V30 26 1 21 16
M  V30 27 1 3 25
M  V30 28 1 4 26
M  V30 29 1 4 27
M  V30 30 1 6 28
M  V30 31 1 7 29
M  V30 32 1 9 30
M  V30 33 1 10 31
M  V30 34 1 12 32
M  V30 35 1 17 33
M  V30 36 1 18 34
M  V30 37 1 19 35
M  V30 38 1 20 36
M  V30 39 1 23 37
M  V30 40 1 24 38
M  V30 END BOND
M  V30 END CTAB
M  END
>  <Dataset>  (346) 
ChEMBL_Kinases

>  <Ligand_Instance>  (346) 
nan

>  <PDB_ID>  (346) 
nan

>  <Standardized_SMILES>  (346) 
O=C(NCc1ccncc1)c1cc(C(=O)c2ccccc2F)c[nH]1

>  <Name>  (346) 
nan

>  <Pocket>  (346) 
nan

>  <ATP_Site>  (346) 
nan

>  <Peripheral>  (346) 
nan

>  <Num_H_Atoms_ProtBoundConf>  (346) 
nan

>  <Num_Resolved_Atoms>  (346) 
nan

>  <Num_Not_Resolved_Atoms>  (346) 
nan

$$$$
CHEMBL3699681
     RDKit          3D

  0  0  0  0  0  0  0  0  0  0999 V3000
M  V30 BEGIN CTAB
M  V30 COUNTS 47 51 0 0 0
M  V30 BEGIN ATOM
M  V30 1 N 1.283012 -4.832344 2.942366 0
M  V30 2 C 0.181118 -4.526919 2.074784 0
M  V30 3 C 0.422863 -3.300449 1.295877 0
M  V30 4 C 0.208232 -3.103367 -0.029362 0
M  V30 5 C 0.459165 -1.925163 -0.666169 0
M  V30 6 C 0.959652 -0.888359 0.101660 0
M  V30 7 C 1.245544 0.400276 -0.516733 0
M  V30 8 N 2.073096 0.798501 -1.510743 0
M  V30 9 C 1.946533 2.130922 -1.693259 0
M  V30 10 N 2.553864 2.996238 -2.559178 0
M  V30 11 C 2.210266 4.302966 -2.499316 0
M  V30 12 O 2.833032 5.185210 -3.385881 0
M  V30 13 C 1.286634 4.836827 -1.625226 0
M  V30 14 C 0.676686 3.932089 -0.746886 0
M  V30 15 N 1.044045 2.641308 -0.836310 0
M  V30 16 C 0.604721 1.573786 -0.103230 0
M  V30 17 C -0.406673 1.669796 0.974111 0
M  V30 18 C -1.629163 0.994162 0.901502 0
M  V30 19 C -2.532216 1.124210 1.937566 0
M  V30 20 C -2.239189 1.908875 3.033590 0
M  V30 21 C -1.016857 2.561647 3.066873 0
M  V30 22 C -0.072803 2.469654 2.059708 0
M  V30 23 C 1.199977 -1.022652 1.450273 0
M  V30 24 C 0.925413 -2.241532 2.038185 0
M  V30 25 C -0.358689 -5.704669 1.293616 0
M  V30 26 C -1.755936 -5.213144 1.608460 0
M  V30 27 C -1.152010 -4.519080 2.830899 0
M  V30 28 H 2.115290 -4.290333 2.627953 0
M  V30 29 H 1.016047 -4.619793 3.921133 0
M  V30 30 H -0.177175 -3.922838 -0.586395 0
M  V30 31 H 0.263058 -1.843892 -1.724348 0
M  V30 32 H 2.522345 5.188104 -4.348373 0
M  V30 33 H 1.037364 5.881406 -1.604457 0
M  V30 34 H -0.056988 4.279994 -0.034251 0
M  V30 35 H -1.806899 0.390201 0.015206 0
M  V30 36 H -3.487375 0.589693 1.869961 0
M  V30 37 H -2.957096 2.005645 3.847024 0
M  V30 38 H -0.774125 3.187647 3.933400 0
M  V30 39 H 0.872801 2.976896 2.089269 0
M  V30 40 H 1.586767 -0.194520 2.000277 0
M  V30 41 H 1.137547 -2.286499 3.114444 0
M  V30 42 H -0.077593 -5.779202 0.240092 0
M  V30 43 H -0.203422 -6.687776 1.776659 0
M  V30 44 H -2.508297 -5.967108 1.856191 0
M  V30 45 H -2.151064 -4.446044 0.892301 0
M  V30 46 H -1.155622 -5.133352 3.742947 0
M  V30 47 H -1.555792 -3.521289 3.055387 0
M  V30 END ATOM
M  V30 BEGIN BOND
M  V30 1 1 1 2
M  V30 2 1 2 3
M  V30 3 2 3 4
M  V30 4 1 4 5
M  V30 5 2 5 6
M  V30 6 1 6 7
M  V30 7 1 7 8
M  V30 8 2 8 9
M  V30 9 1 9 10
M  V30 10 2 10 11
M  V30 11 1 11 12
M  V30 12 1 11 13
M  V30 13 2 13 14
M  V30 14 1 14 15
M  V30 15 1 15 16
M  V30 16 1 16 17
M  V30 17 2 17 18
M  V30 18 1 18 19
M  V30 19 2 19 20
M  V30 20 1 20 21
M  V30 21 2 21 22
M  V30 22 1 6 23
M  V30 23 2 23 24
M  V30 24 1 2 25
M  V30 25 1 25 26
M  V30 26 1 26 27
M  V30 27 1 27 2
M  V30 28 1 24 3
M  V30 29 2 16 7
M  V30 30 1 22 17
M  V30 31 1 15 9
M  V30 32 1 1 28
M  V30 33 1 1 29
M  V30 34 1 4 30
M  V30 35 1 5 31
M  V30 36 1 12 32
M  V30 37 1 13 33
M  V30 38 1 14 34
M  V30 39 1 18 35
M  V30 40 1 19 36
M  V30 41 1 20 37
M  V30 42 1 21 38
M  V30 43 1 22 39
M  V30 44 1 23 40
M  V30 45 1 24 41
M  V30 46 1 25 42
M  V30 47 1 25 43
M  V30 48 1 26 44
M  V30 49 1 26 45
M  V30 50 1 27 46
M  V30 51 1 27 47
M  V30 END BOND
M  V30 END CTAB
M  END
>  <Dataset>  (347) 
ChEMBL_Kinases

>  <Ligand_Instance>  (347) 
nan

>  <PDB_ID>  (347) 
nan

>  <Standardized_SMILES>  (347) 
NC1(c2ccc(-c3nc4nc(O)ccn4c3-c3ccccc3)cc2)CCC1

>  <Name>  (347) 
nan

>  <Pocket>  (347) 
nan

>  <ATP_Site>  (347) 
nan

>  <Peripheral>  (347) 
nan

>  <Num_H_Atoms_ProtBoundConf>  (347) 
nan

>  <Num_Resolved_Atoms>  (347) 
nan

>  <Num_Not_Resolved_Atoms>  (347) 
nan

$$$$
CHEMBL4525614
     RDKit          3D

  0  0  0  0  0  0  0  0  0  0999 V3000
M  V30 BEGIN CTAB
M  V30 COUNTS 68 71 0 0 0
M  V30 BEGIN ATOM
M  V30 1 C 4.885277 -1.451306 4.491836 0
M  V30 2 C 5.067305 -0.037227 3.962480 0
M  V30 3 C 6.575519 0.134676 3.741071 0
M  V30 4 C 4.405850 0.164028 2.644228 0
M  V30 5 C 2.935648 0.246749 2.821140 0
M  V30 6 N 2.217293 0.582415 1.596756 0
M  V30 7 C 1.201259 -0.252249 1.062050 0
M  V30 8 O 0.954269 -1.319262 1.723525 0
M  V30 9 C 0.441566 0.023434 -0.157873 0
M  V30 10 C 0.689979 1.098968 -0.983979 0
M  V30 11 C -0.033694 1.359327 -2.118356 0
M  V30 12 C -1.085120 0.521106 -2.496986 0
M  V30 13 N -1.836233 0.772394 -3.672753 0
M  V30 14 C -3.046693 0.155531 -4.123474 0
M  V30 15 N -3.555844 0.490530 -5.298279 0
M  V30 16 C -4.685660 -0.025421 -5.785656 0
M  V30 17 C -5.367385 -0.956868 -5.037454 0
M  V30 18 N -6.581068 -1.598090 -5.413348 0 CHG=1 VAL=4
M  V30 19 O -6.936648 -1.795506 -6.596582 0
M  V30 20 O -7.548566 -2.100733 -4.588012 0 CHG=-1 VAL=1
M  V30 21 C -4.842931 -1.308902 -3.815767 0
M  V30 22 N -5.380457 -2.242004 -2.891815 0
M  V30 23 C -5.224388 -3.605458 -2.571900 0
M  V30 24 C -4.344134 -4.395657 -3.246847 0
M  V30 25 C -4.187872 -5.740777 -2.926187 0
M  V30 26 C -4.970351 -6.199416 -1.902142 0
M  V30 27 C -5.856381 -5.411190 -1.220682 0
M  V30 28 C -5.998549 -4.067001 -1.555822 0
M  V30 29 O -6.913746 -3.335003 -0.822083 0
M  V30 30 N -3.709952 -0.749943 -3.396761 0
M  V30 31 C -1.310711 -0.543925 -1.655724 0
M  V30 32 C -0.578753 -0.803879 -0.511766 0
M  V30 33 C 2.488084 1.133858 3.950535 0
M  V30 34 C 3.562779 1.661985 4.835759 0
M  V30 35 C 2.949002 1.841976 6.218921 0
M  V30 36 C 3.992392 3.044612 4.379673 0
M  V30 37 N 4.710173 0.859412 4.998570 0
M  V30 38 O 4.799751 0.269758 6.208367 0 RAD=2 VAL=1
M  V30 39 H 3.959718 -1.567514 5.091350 0
M  V30 40 H 4.989717 -2.204865 3.692649 0
M  V30 41 H 5.719988 -1.631152 5.201672 0
M  V30 42 H 6.819225 0.120802 2.661418 0
M  V30 43 H 7.156764 -0.689353 4.219573 0
M  V30 44 H 6.919685 1.131537 4.125006 0
M  V30 45 H 4.860727 1.028065 2.130787 0
M  V30 46 H 4.633960 -0.761424 2.037768 0
M  V30 47 H 2.576835 -0.785784 3.107971 0
M  V30 48 H 2.410293 1.445946 1.052789 0
M  V30 49 H 1.492401 1.783330 -0.741341 0
M  V30 50 H 0.192004 2.210023 -2.734038 0
M  V30 51 H -1.431729 1.524191 -4.293321 0
M  V30 52 H -5.099602 0.244448 -6.737562 0
M  V30 53 H -6.044488 -1.589603 -2.406120 0
M  V30 54 H -3.735129 -4.011302 -4.055549 0
M  V30 55 H -3.485944 -6.371464 -3.462615 0
M  V30 56 H -4.899776 -7.234385 -1.600618 0
M  V30 57 H -6.462473 -5.830665 -0.404559 0
M  V30 58 H -6.693419 -2.985817 0.095270 0
M  V30 59 H -2.082586 -1.258024 -1.839577 0
M  V30 60 H -0.785776 -1.654745 0.130387 0
M  V30 61 H 1.657563 0.673796 4.528870 0
M  V30 62 H 2.002781 2.029319 3.473545 0
M  V30 63 H 1.884951 2.186991 6.143156 0
M  V30 64 H 3.567795 2.518470 6.816225 0
M  V30 65 H 2.926590 0.808291 6.665574 0
M  V30 66 H 3.535237 3.849608 5.010778 0
M  V30 67 H 5.096304 3.176884 4.443502 0
M  V30 68 H 3.620151 3.242591 3.337119 0
M  V30 END ATOM
M  V30 BEGIN BOND
M  V30 1 1 1 2
M  V30 2 1 2 3
M  V30 3 1 2 4
M  V30 4 1 4 5
M  V30 5 1 5 6
M  V30 6 1 6 7
M  V30 7 2 7 8
M  V30 8 1 7 9
M  V30 9 2 9 10
M  V30 10 1 10 11
M  V30 11 2 11 12
M  V30 12 1 12 13
M  V30 13 1 13 14
M  V30 14 2 14 15
M  V30 15 1 15 16
M  V30 16 2 16 17
M  V30 17 1 17 18
M  V30 18 2 18 19
M  V30 19 1 18 20
M  V30 20 1 17 21
M  V30 21 1 21 22
M  V30 22 1 22 23
M  V30 23 2 23 24
M  V30 24 1 24 25
M  V30 25 2 25 26
M  V30 26 1 26 27
M  V30 27 2 27 28
M  V30 28 1 28 29
M  V30 29 2 21 30
M  V30 30 1 12 31
M  V30 31 2 31 32
M  V30 32 1 5 33
M  V30 33 1 33 34
M  V30 34 1 34 35
M  V30 35 1 34 36
M  V30 36 1 34 37
M  V30 37 1 37 38
M  V30 38 1 37 2
M  V30 39 1 32 9
M  V30 40 1 30 14
M  V30 41 1 28 23
M  V30 42 1 1 39
M  V30 43 1 1 40
M  V30 44 1 1 41
M  V30 45 1 3 42
M  V30 46 1 3 43
M  V30 47 1 3 44
M  V30 48 1 4 45
M  V30 49 1 4 46
M  V30 50 1 5 47
M  V30 51 1 6 48
M  V30 52 1 10 49
M  V30 53 1 11 50
M  V30 54 1 13 51
M  V30 55 1 16 52
M  V30 56 1 22 53
M  V30 57 1 24 54
M  V30 58 1 25 55
M  V30 59 1 26 56
M  V30 60 1 27 57
M  V30 61 1 29 58
M  V30 62 1 31 59
M  V30 63 1 32 60
M  V30 64 1 33 61
M  V30 65 1 33 62
M  V30 66 1 35 63
M  V30 67 1 35 64
M  V30 68 1 35 65
M  V30 69 1 36 66
M  V30 70 1 36 67
M  V30 71 1 36 68
M  V30 END BOND
M  V30 END CTAB
M  END
>  <Dataset>  (348) 
ChEMBL_Kinases

>  <Ligand_Instance>  (348) 
nan

>  <PDB_ID>  (348) 
nan

>  <Standardized_SMILES>  (348) 
CC1(C)CC(NC(=O)c2ccc(Nc3ncc([N+](=O)[O-])c(Nc4ccccc4O)n3)cc2)CC(C)(C)N1[O]

>  <Name>  (348) 
nan

>  <Pocket>  (348) 
nan

>  <ATP_Site>  (348) 
nan

>  <Peripheral>  (348) 
nan

>  <Num_H_Atoms_ProtBoundConf>  (348) 
nan

>  <Num_Resolved_Atoms>  (348) 
nan

>  <Num_Not_Resolved_Atoms>  (348) 
nan

$$$$
CHEMBL2322701
     RDKit          3D

  0  0  0  0  0  0  0  0  0  0999 V3000
M  V30 BEGIN CTAB
M  V30 COUNTS 37 40 0 0 0
M  V30 BEGIN ATOM
M  V30 1 C 0.524196 -2.014591 4.894079 0
M  V30 2 C 0.969680 -2.728826 3.661472 0
M  V30 3 N 1.437018 -3.994438 3.542796 0
M  V30 4 N 1.728362 -4.254940 2.266672 0
M  V30 5 C 1.460248 -3.166253 1.509977 0
M  V30 6 C 0.976054 -2.184326 2.382062 0
M  V30 7 N 0.553811 -0.848850 2.052713 0
M  V30 8 C 0.345878 -0.366045 0.870053 0
M  V30 9 C -0.074423 1.024950 0.902036 0
M  V30 10 C 0.813904 2.039310 0.610963 0
M  V30 11 C 0.366074 3.362028 0.654050 0
M  V30 12 C -0.948403 3.617444 0.985494 0
M  V30 13 C -1.811627 2.568021 1.271943 0
M  V30 14 C -1.389465 1.259678 1.234798 0
M  V30 15 Cl -2.559369 0.019251 1.612731 0
M  V30 16 C 0.459621 -0.968121 -0.455479 0
M  V30 17 C -0.111534 -0.155111 -1.416441 0
M  V30 18 C -0.050357 -0.646778 -2.707746 0
M  V30 19 N -0.617489 0.131728 -3.761147 0
M  V30 20 C 0.525079 -1.855385 -3.081839 0
M  V30 21 C 1.086502 -2.639735 -2.086225 0
M  V30 22 C 1.037402 -2.172654 -0.800088 0
M  V30 23 N 1.666003 -3.118479 0.081594 0
M  V30 24 H 1.085423 -1.089847 5.072120 0
M  V30 25 H -0.579635 -1.803922 4.886096 0
M  V30 26 H 0.646838 -2.740833 5.742141 0
M  V30 27 H 1.542293 -4.644928 4.347228 0
M  V30 28 H 1.842622 1.813235 0.353054 0
M  V30 29 H 1.037691 4.187283 0.430683 0
M  V30 30 H -1.256228 4.660130 1.007564 0
M  V30 31 H -2.829259 2.806618 1.526219 0
M  V30 32 H -0.567386 0.783202 -1.186038 0
M  V30 33 H -0.441767 0.775859 -4.560475 0
M  V30 34 H -1.661158 -0.040465 -3.659134 0
M  V30 35 H 0.531103 -2.167206 -4.116686 0
M  V30 36 H 1.542853 -3.577458 -2.311377 0
M  V30 37 H 2.317092 -3.825968 -0.312893 0
M  V30 END ATOM
M  V30 BEGIN BOND
M  V30 1 1 1 2
M  V30 2 1 2 3
M  V30 3 1 3 4
M  V30 4 2 4 5
M  V30 5 1 5 6
M  V30 6 1 6 7
M  V30 7 2 7 8
M  V30 8 1 8 9
M  V30 9 2 9 10
M  V30 10 1 10 11
M  V30 11 2 11 12
M  V30 12 1 12 13
M  V30 13 2 13 14
M  V30 14 1 14 15
M  V30 15 1 8 16
M  V30 16 2 16 17
M  V30 17 1 17 18
M  V30 18 1 18 19
M  V30 19 2 18 20
M  V30 20 1 20 21
M  V30 21 2 21 22
M  V30 22 1 22 23
M  V30 23 2 6 2
M  V30 24 1 14 9
M  V30 25 1 22 16
M  V30 26 1 23 5
M  V30 27 1 1 24
M  V30 28 1 1 25
M  V30 29 1 1 26
M  V30 30 1 3 27
M  V30 31 1 10 28
M  V30 32 1 11 29
M  V30 33 1 12 30
M  V30 34 1 13 31
M  V30 35 1 17 32
M  V30 36 1 19 33
M  V30 37 1 19 34
M  V30 38 1 20 35
M  V30 39 1 21 36
M  V30 40 1 23 37
M  V30 END BOND
M  V30 END CTAB
M  END
>  <Dataset>  (349) 
ChEMBL_Kinases

>  <Ligand_Instance>  (349) 
nan

>  <PDB_ID>  (349) 
nan

>  <Standardized_SMILES>  (349) 
Cc1[nH]nc2c1N=C(c1ccccc1Cl)c1cc(N)ccc1N2

>  <Name>  (349) 
nan

>  <Pocket>  (349) 
nan

>  <ATP_Site>  (349) 
nan

>  <Peripheral>  (349) 
nan

>  <Num_H_Atoms_ProtBoundConf>  (349) 
nan

>  <Num_Resolved_Atoms>  (349) 
nan

>  <Num_Not_Resolved_Atoms>  (349) 
nan

$$$$
CHEMBL2324266
     RDKit          3D

  0  0  0  0  0  0  0  0  0  0999 V3000
M  V30 BEGIN CTAB
M  V30 COUNTS 49 53 0 0 0
M  V30 BEGIN ATOM
M  V30 1 O -1.056060 -0.245529 1.571119 0
M  V30 2 C -0.383678 -0.654183 2.578847 0
M  V30 3 C 0.386943 0.357890 3.347417 0
M  V30 4 S 0.059018 1.954495 2.515283 0
M  V30 5 C 0.763320 1.953003 0.850796 0
M  V30 6 N 0.014576 1.517594 -0.147764 0
M  V30 7 C 0.463865 1.484021 -1.424820 0
M  V30 8 C 1.757442 1.941995 -1.572593 0
M  V30 9 C 2.494417 2.381285 -0.521583 0
M  V30 10 O 3.655906 2.773931 -0.772687 0
M  V30 11 N 2.024971 2.403510 0.730934 0
M  V30 12 C 2.805560 2.867139 1.825444 0
M  V30 13 C 2.205038 3.973910 2.434502 0
M  V30 14 C 2.806012 4.582393 3.525990 0
M  V30 15 C 4.015709 4.120870 4.051645 0
M  V30 16 C 4.556877 3.023249 3.403399 0
M  V30 17 C 3.986161 2.400568 2.322397 0
M  V30 18 S 2.071714 1.780176 -3.343366 0
M  V30 19 C 0.691942 0.622784 -3.676497 0
M  V30 20 C -0.270791 1.025607 -2.603519 0
M  V30 21 N -0.396732 -2.015250 2.916750 0
M  V30 22 C -1.106479 -3.048997 2.234802 0
M  V30 23 N -1.344988 -4.200780 2.223213 0
M  V30 24 C -2.103613 -4.855893 1.368506 0
M  V30 25 C -2.379324 -6.228577 1.366768 0
M  V30 26 C -3.187809 -6.741206 0.405840 0
M  V30 27 C -3.792175 -6.033581 -0.609217 0
M  V30 28 C -4.679290 -6.560653 -1.673712 0
M  V30 29 F -3.996882 -6.449231 -2.892729 0
M  V30 30 F -5.104502 -7.835201 -1.419246 0
M  V30 31 F -5.730142 -5.646451 -1.788817 0
M  V30 32 C -3.534580 -4.679284 -0.626987 0
M  V30 33 C -2.704902 -4.134625 0.354007 0
M  V30 34 S -2.107410 -2.487149 0.719647 0
M  V30 35 H -0.045799 0.432970 4.349136 0
M  V30 36 H 1.480183 0.165115 3.355519 0
M  V30 37 H 1.264836 4.445115 2.137751 0
M  V30 38 H 2.383219 5.438023 4.030429 0
M  V30 39 H 4.492604 4.591321 4.905550 0
M  V30 40 H 5.494741 2.635865 3.781693 0
M  V30 41 H 4.369971 1.557796 1.798929 0
M  V30 42 H 0.277932 0.926288 -4.664425 0
M  V30 43 H 1.016617 -0.433581 -3.641518 0
M  V30 44 H -0.989887 1.770710 -3.004187 0
M  V30 45 H -0.846549 0.111100 -2.341674 0
M  V30 46 H 0.127887 -2.386428 3.717957 0
M  V30 47 H -1.988185 -6.942514 2.093490 0
M  V30 48 H -3.420091 -7.819578 0.382992 0
M  V30 49 H -3.904691 -3.947480 -1.329811 0
M  V30 END ATOM
M  V30 BEGIN BOND
M  V30 1 2 1 2
M  V30 2 1 2 3
M  V30 3 1 3 4
M  V30 4 1 4 5
M  V30 5 2 5 6
M  V30 6 1 6 7
M  V30 7 2 7 8
M  V30 8 1 8 9
M  V30 9 2 9 10
M  V30 10 1 9 11
M  V30 11 1 11 12
M  V30 12 2 12 13
M  V30 13 1 13 14
M  V30 14 2 14 15
M  V30 15 1 15 16
M  V30 16 2 16 17
M  V30 17 1 8 18
M  V30 18 1 18 19
M  V30 19 1 19 20
M  V30 20 1 2 21
M  V30 21 1 21 22
M  V30 22 2 22 23
M  V30 23 1 23 24
M  V30 24 2 24 25
M  V30 25 1 25 26
M  V30 26 2 26 27
M  V30 27 1 27 28
M  V30 28 1 28 29
M  V30 29 1 28 30
M  V30 30 1 28 31
M  V30 31 1 27 32
M  V30 32 2 32 33
M  V30 33 1 33 34
M  V30 34 1 11 5
M  V30 35 1 17 12
M  V30 36 1 34 22
M  V30 37 1 20 7
M  V30 38 1 33 24
M  V30 39 1 3 35
M  V30 40 1 3 36
M  V30 41 1 13 37
M  V30 42 1 14 38
M  V30 43 1 15 39
M  V30 44 1 16 40
M  V30 45 1 17 41
M  V30 46 1 19 42
M  V30 47 1 19 43
M  V30 48 1 20 44
M  V30 49 1 20 45
M  V30 50 1 21 46
M  V30 51 1 25 47
M  V30 52 1 26 48
M  V30 53 1 32 49
M  V30 END BOND
M  V30 END CTAB
M  END
>  <Dataset>  (350) 
ChEMBL_Kinases

>  <Ligand_Instance>  (350) 
nan

>  <PDB_ID>  (350) 
nan

>  <Standardized_SMILES>  (350) 
O=C(CSc1nc2c(c(=O)n1-c1ccccc1)SCC2)Nc1nc2ccc(C(F)(F)F)cc2s1

>  <Name>  (350) 
nan

>  <Pocket>  (350) 
nan

>  <ATP_Site>  (350) 
nan

>  <Peripheral>  (350) 
nan

>  <Num_H_Atoms_ProtBoundConf>  (350) 
nan

>  <Num_Resolved_Atoms>  (350) 
nan

>  <Num_Not_Resolved_Atoms>  (350) 
nan

$$$$
CHEMBL3699712
     RDKit          3D

  0  0  0  0  0  0  0  0  0  0999 V3000
M  V30 BEGIN CTAB
M  V30 COUNTS 53 57 0 0 0
M  V30 BEGIN ATOM
M  V30 1 C 4.144342 -0.362027 8.490833 0
M  V30 2 O 3.731298 0.104837 7.197008 0
M  V30 3 C 2.895156 -0.654456 6.391939 0
M  V30 4 O 2.549262 -1.769273 6.911845 0
M  V30 5 C 2.441439 -0.236004 5.070238 0
M  V30 6 C 2.762294 0.944529 4.431748 0
M  V30 7 C 2.249909 1.211513 3.159503 0
M  V30 8 N 1.439890 0.338285 2.527598 0
M  V30 9 C 0.820089 0.361117 1.310908 0
M  V30 10 C 0.902468 1.425787 0.326928 0
M  V30 11 C -0.038235 2.287558 -0.184510 0
M  V30 12 C 0.328941 3.217845 -1.133195 0
M  V30 13 C 1.609152 3.347393 -1.617516 0
M  V30 14 C 2.563575 2.473521 -1.098673 0
M  V30 15 C 2.211342 1.525863 -0.138656 0
M  V30 16 C 0.090707 -0.824565 1.169820 0
M  V30 17 C -0.745382 -1.285001 0.067273 0
M  V30 18 C -1.970596 -0.671089 -0.228176 0
M  V30 19 C -2.724612 -1.134735 -1.284418 0
M  V30 20 C -2.325925 -2.205682 -2.093583 0
M  V30 21 C -3.280668 -2.538263 -3.162431 0
M  V30 22 N -4.031903 -1.390394 -3.644773 0
M  V30 23 C -4.284542 -3.585116 -2.669914 0
M  V30 24 C -4.005760 -4.439232 -3.910640 0
M  V30 25 C -2.847537 -3.501970 -4.214888 0
M  V30 26 C -1.123649 -2.784794 -1.779094 0
M  V30 27 C -0.332546 -2.357844 -0.732972 0
M  V30 28 N 0.280143 -1.541120 2.296142 0
M  V30 29 C 1.103725 -0.836135 3.130530 0
M  V30 30 C 1.610730 -1.098022 4.386063 0
M  V30 31 H 4.931541 -1.125402 8.433971 0
M  V30 32 H 3.221375 -0.853468 8.907001 0
M  V30 33 H 4.401467 0.458856 9.171257 0
M  V30 34 H 3.420209 1.621453 4.978842 0
M  V30 35 H 2.518197 2.144049 2.682314 0
M  V30 36 H -1.001684 2.122362 0.244552 0
M  V30 37 H -0.457946 3.867300 -1.498364 0
M  V30 38 H 1.847587 4.094930 -2.363426 0
M  V30 39 H 3.557834 2.604820 -1.502733 0
M  V30 40 H 3.085176 0.932892 0.148518 0
M  V30 41 H -2.320577 0.150812 0.363974 0
M  V30 42 H -3.674186 -0.599054 -1.451233 0
M  V30 43 H -4.955184 -1.280308 -3.169597 0
M  V30 44 H -3.475906 -0.506621 -3.657011 0
M  V30 45 H -5.334648 -3.237986 -2.613455 0
M  V30 46 H -3.937006 -4.092692 -1.728853 0
M  V30 47 H -3.615751 -5.450982 -3.703670 0
M  V30 48 H -4.852286 -4.378539 -4.630285 0
M  V30 49 H -1.847786 -3.939521 -4.142179 0
M  V30 50 H -3.020073 -3.051240 -5.227701 0
M  V30 51 H -0.847524 -3.600236 -2.414186 0
M  V30 52 H 0.610629 -2.872440 -0.548116 0
M  V30 53 H 1.309499 -2.045496 4.813046 0
M  V30 END ATOM
M  V30 BEGIN BOND
M  V30 1 1 1 2
M  V30 2 1 2 3
M  V30 3 2 3 4
M  V30 4 1 3 5
M  V30 5 1 5 6
M  V30 6 2 6 7
M  V30 7 1 7 8
M  V30 8 1 8 9
M  V30 9 1 9 10
M  V30 10 2 10 11
M  V30 11 1 11 12
M  V30 12 2 12 13
M  V30 13 1 13 14
M  V30 14 2 14 15
M  V30 15 2 9 16
M  V30 16 1 16 17
M  V30 17 2 17 18
M  V30 18 1 18 19
M  V30 19 2 19 20
M  V30 20 1 20 21
M  V30 21 1 21 22
M  V30 22 1 21 23
M  V30 23 1 23 24
M  V30 24 1 24 25
M  V30 25 1 20 26
M  V30 26 2 26 27
M  V30 27 1 16 28
M  V30 28 2 28 29
M  V30 29 1 29 30
M  V30 30 2 30 5
M  V30 31 1 29 8
M  V30 32 1 15 10
M  V30 33 1 27 17
M  V30 34 1 25 21
M  V30 35 1 1 31
M  V30 36 1 1 32
M  V30 37 1 1 33
M  V30 38 1 6 34
M  V30 39 1 7 35
M  V30 40 1 11 36
M  V30 41 1 12 37
M  V30 42 1 13 38
M  V30 43 1 14 39
M  V30 44 1 15 40
M  V30 45 1 18 41
M  V30 46 1 19 42
M  V30 47 1 22 43
M  V30 48 1 22 44
M  V30 49 1 23 45
M  V30 50 1 23 46
M  V30 51 1 24 47
M  V30 52 1 24 48
M  V30 53 1 25 49
M  V30 54 1 25 50
M  V30 55 1 26 51
M  V30 56 1 27 52
M  V30 57 1 30 53
M  V30 END BOND
M  V30 END CTAB
M  END
>  <Dataset>  (351) 
ChEMBL_Kinases

>  <Ligand_Instance>  (351) 
nan

>  <PDB_ID>  (351) 
nan

>  <Standardized_SMILES>  (351) 
COC(=O)c1ccn2c(-c3ccccc3)c(-c3ccc(C4(N)CCC4)cc3)nc2c1

>  <Name>  (351) 
nan

>  <Pocket>  (351) 
nan

>  <ATP_Site>  (351) 
nan

>  <Peripheral>  (351) 
nan

>  <Num_H_Atoms_ProtBoundConf>  (351) 
nan

>  <Num_Resolved_Atoms>  (351) 
nan

>  <Num_Not_Resolved_Atoms>  (351) 
nan

$$$$
CHEMBL3699711
     RDKit          3D

  0  0  0  0  0  0  0  0  0  0999 V3000
M  V30 BEGIN CTAB
M  V30 COUNTS 57 62 0 0 0
M  V30 BEGIN ATOM
M  V30 1 N 1.161023 -7.011824 -0.474981 0
M  V30 2 C 0.630633 -6.157131 -1.521635 0
M  V30 3 C 0.572086 -4.752581 -1.117302 0
M  V30 4 C 0.311629 -4.482092 0.212615 0
M  V30 5 C 0.232171 -3.192942 0.706530 0
M  V30 6 C 0.417476 -2.109553 -0.146220 0
M  V30 7 C 0.348693 -0.720274 0.307940 0
M  V30 8 N 1.322891 0.209938 0.268254 0
M  V30 9 C 0.902500 1.385920 0.771991 0
M  V30 10 C 1.397069 2.654360 0.997716 0
M  V30 11 C 0.660967 3.674541 1.559668 0
M  V30 12 C 1.259537 4.992239 1.765193 0
M  V30 13 C 0.930425 5.872159 2.793986 0
M  V30 14 C 1.570433 7.101904 2.885842 0
M  V30 15 C 2.548307 7.480245 1.958361 0
M  V30 16 F 3.158331 8.704961 2.084017 0
M  V30 17 C 2.886562 6.620066 0.932355 0
M  V30 18 C 2.228136 5.410921 0.877799 0
M  V30 19 C -0.648692 3.449450 1.929540 0
M  V30 20 C -1.152986 2.184921 1.708250 0
M  V30 21 N -0.394957 1.206018 1.151605 0
M  V30 22 C -0.758687 -0.081710 0.876277 0
M  V30 23 C -2.068425 -0.671780 1.134898 0
M  V30 24 C -2.406447 -0.653986 2.480862 0
M  V30 25 C -3.612907 -1.164491 2.969463 0
M  V30 26 C -4.477425 -1.703178 2.020097 0
M  V30 27 C -4.151267 -1.728325 0.661532 0
M  V30 28 C -2.943629 -1.207833 0.243581 0
M  V30 29 C 0.677410 -2.400467 -1.475096 0
M  V30 30 C 0.761957 -3.676509 -1.993713 0
M  V30 31 C -0.739276 -6.654411 -1.966016 0
M  V30 32 C -0.241756 -6.666111 -3.394870 0
M  V30 33 C 1.178263 -6.521548 -2.832666 0
M  V30 34 H 0.473234 -7.725252 -0.162293 0
M  V30 35 H 2.107202 -7.367355 -0.653252 0
M  V30 36 H 0.158384 -5.275439 0.924180 0
M  V30 37 H 0.033555 -2.909861 1.725539 0
M  V30 38 H 2.442185 2.786069 0.687191 0
M  V30 39 H 0.173962 5.530194 3.476424 0
M  V30 40 H 1.277559 7.736181 3.695664 0
M  V30 41 H 3.642754 6.899645 0.205626 0
M  V30 42 H 2.533053 4.768494 0.047681 0
M  V30 43 H -1.261865 4.218626 2.372945 0
M  V30 44 H -2.178445 2.004070 1.996459 0
M  V30 45 H -1.779616 -0.250030 3.269695 0
M  V30 46 H -3.875518 -1.150624 4.014052 0
M  V30 47 H -5.443919 -2.122611 2.332077 0
M  V30 48 H -4.820007 -2.144593 -0.066872 0
M  V30 49 H -2.605922 -1.185457 -0.797637 0
M  V30 50 H 0.832727 -1.583102 -2.196352 0
M  V30 51 H 0.962427 -3.903759 -3.018132 0
M  V30 52 H -1.051472 -7.630200 -1.546770 0
M  V30 53 H -1.538947 -5.873132 -1.875312 0
M  V30 54 H -0.543244 -5.785077 -3.995650 0
M  V30 55 H -0.472240 -7.646830 -3.840931 0
M  V30 56 H 1.769094 -5.776923 -3.392476 0
M  V30 57 H 1.667029 -7.517684 -2.886639 0
M  V30 END ATOM
M  V30 BEGIN BOND
M  V30 1 1 1 2
M  V30 2 1 2 3
M  V30 3 2 3 4
M  V30 4 1 4 5
M  V30 5 2 5 6
M  V30 6 1 6 7
M  V30 7 1 7 8
M  V30 8 2 8 9
M  V30 9 1 9 10
M  V30 10 2 10 11
M  V30 11 1 11 12
M  V30 12 2 12 13
M  V30 13 1 13 14
M  V30 14 2 14 15
M  V30 15 1 15 16
M  V30 16 1 15 17
M  V30 17 2 17 18
M  V30 18 1 11 19
M  V30 19 2 19 20
M  V30 20 1 20 21
M  V30 21 1 21 22
M  V30 22 1 22 23
M  V30 23 2 23 24
M  V30 24 1 24 25
M  V30 25 2 25 26
M  V30 26 1 26 27
M  V30 27 2 27 28
M  V30 28 1 6 29
M  V30 29 2 29 30
M  V30 30 1 2 31
M  V30 31 1 31 32
M  V30 32 1 32 33
M  V30 33 1 33 2
M  V30 34 1 30 3
M  V30 35 2 22 7
M  V30 36 1 28 23
M  V30 37 1 21 9
M  V30 38 1 18 12
M  V30 39 1 1 34
M  V30 40 1 1 35
M  V30 41 1 4 36
M  V30 42 1 5 37
M  V30 43 1 10 38
M  V30 44 1 13 39
M  V30 45 1 14 40
M  V30 46 1 17 41
M  V30 47 1 18 42
M  V30 48 1 19 43
M  V30 49 1 20 44
M  V30 50 1 24 45
M  V30 51 1 25 46
M  V30 52 1 26 47
M  V30 53 1 27 48
M  V30 54 1 28 49
M  V30 55 1 29 50
M  V30 56 1 30 51
M  V30 57 1 31 52
M  V30 58 1 31 53
M  V30 59 1 32 54
M  V30 60 1 32 55
M  V30 61 1 33 56
M  V30 62 1 33 57
M  V30 END BOND
M  V30 END CTAB
M  END
>  <Dataset>  (352) 
ChEMBL_Kinases

>  <Ligand_Instance>  (352) 
nan

>  <PDB_ID>  (352) 
nan

>  <Standardized_SMILES>  (352) 
NC1(c2ccc(-c3nc4cc(-c5ccc(F)cc5)ccn4c3-c3ccccc3)cc2)CCC1

>  <Name>  (352) 
nan

>  <Pocket>  (352) 
nan

>  <ATP_Site>  (352) 
nan

>  <Peripheral>  (352) 
nan

>  <Num_H_Atoms_ProtBoundConf>  (352) 
nan

>  <Num_Resolved_Atoms>  (352) 
nan

>  <Num_Not_Resolved_Atoms>  (352) 
nan

$$$$
CHEMBL2325727
     RDKit          3D

  0  0  0  0  0  0  0  0  0  0999 V3000
M  V30 BEGIN CTAB
M  V30 COUNTS 62 65 0 0 0
M  V30 BEGIN ATOM
M  V30 1 C 4.582508 0.308738 -3.598154 0
M  V30 2 N 3.307867 -0.204796 -3.083702 0
M  V30 3 C 3.190657 -1.591272 -3.412897 0
M  V30 4 C 3.379131 0.037860 -1.634318 0
M  V30 5 C 2.124760 -0.448827 -0.991645 0
M  V30 6 C 2.063257 -0.260876 0.503160 0 CFG=2
M  V30 7 N 0.786821 -0.791058 0.916992 0
M  V30 8 C 0.698340 -1.933521 1.728170 0
M  V30 9 O 1.496171 -2.759573 2.288686 0
M  V30 10 C -0.293382 -2.808634 2.377271 0
M  V30 11 N 0.477768 -3.831069 3.083196 0
M  V30 12 C -1.135847 -2.127797 3.418680 0
M  V30 13 C -2.118623 -1.164154 2.862525 0
M  V30 14 N -2.853648 -1.680841 1.730501 0
M  V30 15 C -4.187787 -1.165070 1.632654 0
M  V30 16 N -4.796954 -0.625115 2.712978 0
M  V30 17 C -6.044198 -0.169438 2.674670 0
M  V30 18 N -6.808560 -0.198855 1.581280 0
M  V30 19 C -6.267936 -0.725527 0.454453 0
M  V30 20 N -6.775103 -0.878499 -0.779098 0
M  V30 21 C -5.830946 -1.440306 -1.537168 0
M  V30 22 C -4.720745 -1.636131 -0.750576 0
M  V30 23 C -4.980027 -1.192011 0.507852 0
M  V30 24 C -2.277228 -2.645247 0.814910 0
M  V30 25 C -1.200355 -3.504349 1.424452 0
M  V30 26 C 2.313413 1.103091 0.943070 0
M  V30 27 C 3.519320 1.544780 1.498628 0
M  V30 28 C 3.672317 2.862088 1.890805 0
M  V30 29 C 2.662413 3.778523 1.753684 0
M  V30 30 Cl 2.895168 5.442241 2.263620 0
M  V30 31 C 1.493166 3.326006 1.208842 0
M  V30 32 C 1.282707 2.015384 0.797279 0
M  V30 33 H 4.656320 0.257619 -4.686124 0
M  V30 34 H 4.728323 1.358187 -3.251802 0
M  V30 35 H 5.396015 -0.315469 -3.157879 0
M  V30 36 H 3.488250 -1.683304 -4.491662 0
M  V30 37 H 2.141810 -1.959231 -3.383121 0
M  V30 38 H 3.882675 -2.249983 -2.850612 0
M  V30 39 H 4.288756 -0.455492 -1.281302 0
M  V30 40 H 3.412464 1.162550 -1.561233 0
M  V30 41 H 1.265781 0.054271 -1.513530 0
M  V30 42 H 2.015766 -1.525888 -1.235299 0
M  V30 43 H 2.837424 -0.920762 0.943814 0
M  V30 44 H -0.199947 -0.532781 0.764028 0
M  V30 45 H 0.120197 -4.031771 4.030204 0
M  V30 46 H 0.564232 -4.703218 2.519658 0
M  V30 47 H -0.488388 -1.649481 4.154161 0
M  V30 48 H -1.696649 -2.952418 3.934823 0
M  V30 49 H -2.842435 -0.935489 3.683407 0
M  V30 50 H -1.642479 -0.183745 2.637587 0
M  V30 51 H -6.468111 0.250928 3.581787 0
M  V30 52 H -7.746029 -0.595212 -1.061191 0
M  V30 53 H -5.994999 -1.666233 -2.573171 0
M  V30 54 H -3.857418 -2.066059 -1.179421 0
M  V30 55 H -1.837827 -2.090735 -0.016547 0
M  V30 56 H -3.083534 -3.371022 0.527519 0
M  V30 57 H -0.618726 -3.941142 0.582316 0
M  V30 58 H -1.656128 -4.395004 1.939772 0
M  V30 59 H 4.276346 0.776598 1.580603 0
M  V30 60 H 4.621515 3.107373 2.302054 0
M  V30 61 H 0.677030 4.031518 1.089057 0
M  V30 62 H 0.304142 1.767413 0.375011 0
M  V30 END ATOM
M  V30 BEGIN BOND
M  V30 1 1 1 2
M  V30 2 1 2 3
M  V30 3 1 2 4
M  V30 4 1 4 5
M  V30 5 1 5 6
M  V30 6 1 6 7
M  V30 7 1 7 8
M  V30 8 2 8 9
M  V30 9 1 8 10
M  V30 10 1 10 11
M  V30 11 1 10 12
M  V30 12 1 12 13
M  V30 13 1 13 14
M  V30 14 1 14 15
M  V30 15 2 15 16
M  V30 16 1 16 17
M  V30 17 2 17 18
M  V30 18 1 18 19
M  V30 19 1 19 20
M  V30 20 1 20 21
M  V30 21 2 21 22
M  V30 22 1 22 23
M  V30 23 1 14 24
M  V30 24 1 24 25
M  V30 25 1 6 26
M  V30 26 2 26 27
M  V30 27 1 27 28
M  V30 28 2 28 29
M  V30 29 1 29 30
M  V30 30 1 29 31
M  V30 31 2 31 32
M  V30 32 1 25 10
M  V30 33 1 32 26
M  V30 34 1 23 15
M  V30 35 2 23 19
M  V30 36 1 1 33
M  V30 37 1 1 34
M  V30 38 1 1 35
M  V30 39 1 3 36
M  V30 40 1 3 37
M  V30 41 1 3 38
M  V30 42 1 4 39
M  V30 43 1 4 40
M  V30 44 1 5 41
M  V30 45 1 5 42
M  V30 46 1 6 43 CFG=1
M  V30 47 1 7 44
M  V30 48 1 11 45
M  V30 49 1 11 46
M  V30 50 1 12 47
M  V30 51 1 12 48
M  V30 52 1 13 49
M  V30 53 1 13 50
M  V30 54 1 17 51
M  V30 55 1 20 52
M  V30 56 1 21 53
M  V30 57 1 22 54
M  V30 58 1 24 55
M  V30 59 1 24 56
M  V30 60 1 25 57
M  V30 61 1 25 58
M  V30 62 1 27 59
M  V30 63 1 28 60
M  V30 64 1 31 61
M  V30 65 1 32 62
M  V30 END BOND
M  V30 END CTAB
M  END
>  <Dataset>  (353) 
ChEMBL_Kinases

>  <Ligand_Instance>  (353) 
nan

>  <PDB_ID>  (353) 
nan

>  <Standardized_SMILES>  (353) 
CN(C)CC[C@H](NC(=O)C1(N)CCN(c2ncnc3[nH]ccc23)CC1)c1ccc(Cl)cc1

>  <Name>  (353) 
nan

>  <Pocket>  (353) 
nan

>  <ATP_Site>  (353) 
nan

>  <Peripheral>  (353) 
nan

>  <Num_H_Atoms_ProtBoundConf>  (353) 
nan

>  <Num_Resolved_Atoms>  (353) 
nan

>  <Num_Not_Resolved_Atoms>  (353) 
nan

$$$$
CHEMBL3699710
     RDKit          3D

  0  0  0  0  0  0  0  0  0  0999 V3000
M  V30 BEGIN CTAB
M  V30 COUNTS 52 56 0 0 0
M  V30 BEGIN ATOM
M  V30 1 C -1.778968 -6.820785 4.149691 0
M  V30 2 C -0.552516 -6.764005 3.226077 0
M  V30 3 C -0.066811 -5.366426 3.058557 0
M  V30 4 C 0.870728 -4.898868 3.954598 0
M  V30 5 N 1.354462 -3.647876 3.869879 0
M  V30 6 C 0.920416 -2.811065 2.883889 0
M  V30 7 N 1.194839 -1.522924 2.525205 0
M  V30 8 C 0.430931 -1.231145 1.432079 0
M  V30 9 C 0.593856 0.116741 0.898968 0
M  V30 10 C 1.140679 0.234303 -0.382076 0
M  V30 11 C 1.347556 1.452887 -1.005241 0
M  V30 12 C 1.012861 2.621250 -0.367056 0
M  V30 13 C 1.139910 4.026192 -0.799380 0
M  V30 14 N 0.040589 4.852935 -0.401825 0
M  V30 15 C 2.457634 4.668141 -0.344858 0
M  V30 16 C 2.549690 5.269356 -1.728231 0
M  V30 17 C 1.533911 4.260362 -2.238308 0
M  V30 18 C 0.464003 2.519371 0.917018 0
M  V30 19 C 0.263127 1.299022 1.525212 0
M  V30 20 C -0.318525 -2.346237 1.114910 0
M  V30 21 C -1.202887 -2.239541 -0.021813 0
M  V30 22 C -1.150056 -2.964888 -1.191324 0
M  V30 23 C -2.038850 -2.801340 -2.232866 0
M  V30 24 C -3.031360 -1.833539 -2.046370 0
M  V30 25 C -3.133719 -1.072573 -0.889487 0
M  V30 26 C -2.206783 -1.295901 0.107255 0
M  V30 27 N 0.005484 -3.288655 2.020646 0
M  V30 28 C -0.518479 -4.533137 2.052957 0
M  V30 29 H -1.552389 -7.342456 5.102154 0
M  V30 30 H -2.682542 -7.174172 3.637357 0
M  V30 31 H -1.972138 -5.757030 4.453646 0
M  V30 32 H 0.232141 -7.352728 3.721851 0
M  V30 33 H -0.791761 -7.262478 2.263942 0
M  V30 34 H 1.289356 -5.482366 4.783588 0
M  V30 35 H 1.449690 -0.609198 -1.000455 0
M  V30 36 H 1.758309 1.596519 -1.972875 0
M  V30 37 H -0.101479 5.651126 -1.035867 0
M  V30 38 H 0.064279 5.137732 0.583376 0
M  V30 39 H 2.319449 5.405981 0.476564 0
M  V30 40 H 3.183994 3.894894 -0.078509 0
M  V30 41 H 3.570943 5.175984 -2.148894 0
M  V30 42 H 2.160659 6.292868 -1.731269 0
M  V30 43 H 1.978967 3.436170 -2.789351 0
M  V30 44 H 0.700431 4.704486 -2.830283 0
M  V30 45 H 0.151288 3.347359 1.545103 0
M  V30 46 H -0.158610 1.179243 2.519703 0
M  V30 47 H -0.344808 -3.686391 -1.235385 0
M  V30 48 H -1.967564 -3.388164 -3.135295 0
M  V30 49 H -3.772469 -1.651964 -2.836745 0
M  V30 50 H -3.903275 -0.325965 -0.751968 0
M  V30 51 H -2.315304 -0.677641 1.010987 0
M  V30 52 H -1.254546 -4.890005 1.344209 0
M  V30 END ATOM
M  V30 BEGIN BOND
M  V30 1 1 1 2
M  V30 2 1 2 3
M  V30 3 1 3 4
M  V30 4 2 4 5
M  V30 5 1 5 6
M  V30 6 2 6 7
M  V30 7 1 7 8
M  V30 8 1 8 9
M  V30 9 2 9 10
M  V30 10 1 10 11
M  V30 11 2 11 12
M  V30 12 1 12 13
M  V30 13 1 13 14
M  V30 14 1 13 15
M  V30 15 1 15 16
M  V30 16 1 16 17
M  V30 17 1 12 18
M  V30 18 2 18 19
M  V30 19 2 8 20
M  V30 20 1 20 21
M  V30 21 2 21 22
M  V30 22 1 22 23
M  V30 23 2 23 24
M  V30 24 1 24 25
M  V30 25 2 25 26
M  V30 26 1 20 27
M  V30 27 1 27 28
M  V30 28 2 28 3
M  V30 29 1 27 6
M  V30 30 1 19 9
M  V30 31 1 26 21
M  V30 32 1 17 13
M  V30 33 1 1 29
M  V30 34 1 1 30
M  V30 35 1 1 31
M  V30 36 1 2 32
M  V30 37 1 2 33
M  V30 38 1 4 34
M  V30 39 1 10 35
M  V30 40 1 11 36
M  V30 41 1 14 37
M  V30 42 1 14 38
M  V30 43 1 15 39
M  V30 44 1 15 40
M  V30 45 1 16 41
M  V30 46 1 16 42
M  V30 47 1 17 43
M  V30 48 1 17 44
M  V30 49 1 18 45
M  V30 50 1 19 46
M  V30 51 1 22 47
M  V30 52 1 23 48
M  V30 53 1 24 49
M  V30 54 1 25 50
M  V30 55 1 26 51
M  V30 56 1 28 52
M  V30 END BOND
M  V30 END CTAB
M  END
>  <Dataset>  (354) 
ChEMBL_Kinases

>  <Ligand_Instance>  (354) 
nan

>  <PDB_ID>  (354) 
nan

>  <Standardized_SMILES>  (354) 
CCc1cnc2nc(-c3ccc(C4(N)CCC4)cc3)c(-c3ccccc3)n2c1

>  <Name>  (354) 
nan

>  <Pocket>  (354) 
nan

>  <ATP_Site>  (354) 
nan

>  <Peripheral>  (354) 
nan

>  <Num_H_Atoms_ProtBoundConf>  (354) 
nan

>  <Num_Resolved_Atoms>  (354) 
nan

>  <Num_Not_Resolved_Atoms>  (354) 
nan

$$$$
CHEMBL3699709
     RDKit          3D

  0  0  0  0  0  0  0  0  0  0999 V3000
M  V30 BEGIN CTAB
M  V30 COUNTS 57 62 0 0 0
M  V30 BEGIN ATOM
M  V30 1 N -0.940233 -4.528958 -4.347555 0
M  V30 2 C 0.197763 -4.669219 -3.480040 0
M  V30 3 C 0.176387 -3.768806 -2.298659 0
M  V30 4 C 0.522565 -4.032471 -0.989643 0
M  V30 5 C 0.418995 -3.028435 -0.049656 0
M  V30 6 C -0.021528 -1.764066 -0.378014 0
M  V30 7 C -0.140372 -0.686494 0.593101 0
M  V30 8 N 0.527530 0.504263 0.593621 0
M  V30 9 C 0.147342 1.239882 1.655162 0
M  V30 10 N 0.522891 2.462992 2.070802 0
M  V30 11 C -0.009641 3.016865 3.199313 0
M  V30 12 O 0.294526 4.263189 3.727509 0
M  V30 13 C 1.218431 5.105877 3.123084 0
M  V30 14 C 2.566537 5.119544 3.397583 0
M  V30 15 C 3.363193 6.031308 2.700465 0
M  V30 16 C 2.789734 6.891822 1.759827 0
M  V30 17 C 1.428216 6.863764 1.496149 0
M  V30 18 C 0.635967 5.948025 2.197992 0
M  V30 19 C -0.953289 2.284588 3.912579 0
M  V30 20 C -1.326377 1.013411 3.457461 0
M  V30 21 N -0.765675 0.501746 2.322817 0
M  V30 22 C -0.978277 -0.688917 1.712959 0
M  V30 23 C -1.889429 -1.740912 2.141990 0
M  V30 24 C -1.770985 -2.395266 3.359000 0
M  V30 25 C -2.674326 -3.382439 3.694736 0
M  V30 26 C -3.718668 -3.755234 2.846438 0
M  V30 27 C -3.825443 -3.086310 1.622083 0
M  V30 28 C -2.928900 -2.097528 1.274391 0
M  V30 29 C -0.370726 -1.492604 -1.690512 0
M  V30 30 C -0.274712 -2.494262 -2.664270 0
M  V30 31 C 0.648500 -6.078189 -3.251596 0
M  V30 32 C 1.445731 -5.953333 -4.556465 0
M  V30 33 C 1.485444 -4.464340 -4.285936 0
M  V30 34 H -1.704476 -4.000675 -3.881793 0
M  V30 35 H -0.683626 -4.083600 -5.247055 0
M  V30 36 H 0.848538 -5.027646 -0.831758 0
M  V30 37 H 0.695491 -3.261361 0.963554 0
M  V30 38 H 2.945554 4.430892 4.133238 0
M  V30 39 H 4.418223 6.012289 2.943408 0
M  V30 40 H 3.455099 7.590608 1.237387 0
M  V30 41 H 1.000758 7.537185 0.764816 0
M  V30 42 H -0.411750 5.989242 1.935602 0
M  V30 43 H -1.425962 2.625789 4.801779 0
M  V30 44 H -2.074630 0.445571 4.032930 0
M  V30 45 H -0.955753 -2.115399 4.038989 0
M  V30 46 H -2.549519 -3.873338 4.657864 0
M  V30 47 H -4.411207 -4.543703 3.153883 0
M  V30 48 H -4.641559 -3.378188 0.960340 0
M  V30 49 H -3.064675 -1.611856 0.304930 0
M  V30 50 H -0.721587 -0.479318 -1.942177 0
M  V30 51 H -0.573049 -2.165558 -3.646082 0
M  V30 52 H -0.211436 -6.795584 -3.386294 0
M  V30 53 H 1.280328 -6.273011 -2.387691 0
M  V30 54 H 0.913138 -6.250005 -5.465944 0
M  V30 55 H 2.410725 -6.465382 -4.482623 0
M  V30 56 H 1.356772 -3.805038 -5.159021 0
M  V30 57 H 2.365443 -4.155156 -3.673909 0
M  V30 END ATOM
M  V30 BEGIN BOND
M  V30 1 1 1 2
M  V30 2 1 2 3
M  V30 3 2 3 4
M  V30 4 1 4 5
M  V30 5 2 5 6
M  V30 6 1 6 7
M  V30 7 1 7 8
M  V30 8 2 8 9
M  V30 9 1 9 10
M  V30 10 2 10 11
M  V30 11 1 11 12
M  V30 12 1 12 13
M  V30 13 2 13 14
M  V30 14 1 14 15
M  V30 15 2 15 16
M  V30 16 1 16 17
M  V30 17 2 17 18
M  V30 18 1 11 19
M  V30 19 2 19 20
M  V30 20 1 20 21
M  V30 21 1 21 22
M  V30 22 1 22 23
M  V30 23 2 23 24
M  V30 24 1 24 25
M  V30 25 2 25 26
M  V30 26 1 26 27
M  V30 27 2 27 28
M  V30 28 1 6 29
M  V30 29 2 29 30
M  V30 30 1 2 31
M  V30 31 1 31 32
M  V30 32 1 32 33
M  V30 33 1 33 2
M  V30 34 1 30 3
M  V30 35 2 22 7
M  V30 36 1 28 23
M  V30 37 1 21 9
M  V30 38 1 18 13
M  V30 39 1 1 34
M  V30 40 1 1 35
M  V30 41 1 4 36
M  V30 42 1 5 37
M  V30 43 1 14 38
M  V30 44 1 15 39
M  V30 45 1 16 40
M  V30 46 1 17 41
M  V30 47 1 18 42
M  V30 48 1 19 43
M  V30 49 1 20 44
M  V30 50 1 24 45
M  V30 51 1 25 46
M  V30 52 1 26 47
M  V30 53 1 27 48
M  V30 54 1 28 49
M  V30 55 1 29 50
M  V30 56 1 30 51
M  V30 57 1 31 52
M  V30 58 1 31 53
M  V30 59 1 32 54
M  V30 60 1 32 55
M  V30 61 1 33 56
M  V30 62 1 33 57
M  V30 END BOND
M  V30 END CTAB
M  END
>  <Dataset>  (355) 
ChEMBL_Kinases

>  <Ligand_Instance>  (355) 
nan

>  <PDB_ID>  (355) 
nan

>  <Standardized_SMILES>  (355) 
NC1(c2ccc(-c3nc4nc(Oc5ccccc5)ccn4c3-c3ccccc3)cc2)CCC1

>  <Name>  (355) 
nan

>  <Pocket>  (355) 
nan

>  <ATP_Site>  (355) 
nan

>  <Peripheral>  (355) 
nan

>  <Num_H_Atoms_ProtBoundConf>  (355) 
nan

>  <Num_Resolved_Atoms>  (355) 
nan

>  <Num_Not_Resolved_Atoms>  (355) 
nan

$$$$
CHEMBL3699708
     RDKit          3D

  0  0  0  0  0  0  0  0  0  0999 V3000
M  V30 BEGIN CTAB
M  V30 COUNTS 63 68 0 0 0
M  V30 BEGIN ATOM
M  V30 1 N 0.791463 -6.246840 4.542921 0
M  V30 2 C -0.548929 -5.744653 4.340174 0
M  V30 3 C -0.628455 -4.742063 3.248092 0
M  V30 4 C 0.430642 -3.829935 3.341472 0
M  V30 5 C 0.537872 -2.801975 2.403579 0
M  V30 6 C -0.386518 -2.671016 1.383403 0
M  V30 7 C -0.219769 -1.575869 0.434229 0
M  V30 8 N -0.268721 -0.332848 0.991931 0
M  V30 9 C -0.101199 0.592151 0.013041 0
M  V30 10 N -0.057813 1.937658 -0.040071 0
M  V30 11 C 0.128833 2.619162 -1.191766 0
M  V30 12 O 0.141467 3.963756 -1.033772 0
M  V30 13 C 0.304729 4.980830 -1.965824 0
M  V30 14 C 1.564336 5.792950 -1.776528 0
M  V30 15 C 1.488772 6.774027 -0.662840 0
M  V30 16 C 0.132958 6.930716 -0.039691 0
M  V30 17 C -1.015501 6.890031 -0.990715 0
M  V30 18 C -0.882878 5.893127 -2.097186 0
M  V30 19 C 0.280531 1.883057 -2.361487 0
M  V30 20 C 0.241837 0.496702 -2.347798 0
M  V30 21 N 0.050349 -0.079315 -1.143576 0
M  V30 22 C -0.017256 -1.404641 -0.919443 0
M  V30 23 C 0.071196 -2.594284 -1.736714 0
M  V30 24 C -0.856828 -2.809317 -2.757891 0
M  V30 25 C -0.833730 -3.924215 -3.579098 0
M  V30 26 C 0.144442 -4.866239 -3.385965 0
M  V30 27 C 1.076960 -4.689334 -2.389485 0
M  V30 28 C 1.056090 -3.569217 -1.562244 0
M  V30 29 C -1.420172 -3.580519 1.311775 0
M  V30 30 C -1.545898 -4.604949 2.228311 0
M  V30 31 C -1.623415 -6.770928 4.341939 0
M  V30 32 C -2.375886 -5.947725 5.367131 0
M  V30 33 C -1.085880 -5.236251 5.675517 0
M  V30 34 H 1.287925 -5.673410 5.256467 0
M  V30 35 H 0.831359 -7.275105 4.713389 0
M  V30 36 H 1.220751 -3.820628 4.090870 0
M  V30 37 H 1.359478 -2.069427 2.451062 0
M  V30 38 H 0.435068 4.484281 -2.952634 0
M  V30 39 H 1.768710 6.305840 -2.753921 0
M  V30 40 H 2.431615 5.124061 -1.616468 0
M  V30 41 H 2.196246 6.519519 0.170504 0
M  V30 42 H 1.845370 7.758140 -1.030851 0
M  V30 43 H 0.116087 7.918739 0.469961 0
M  V30 44 H 0.039068 6.196899 0.814365 0
M  V30 45 H -1.249278 7.915013 -1.348059 0
M  V30 46 H -1.915549 6.599684 -0.380231 0
M  V30 47 H -0.779843 6.458957 -3.047510 0
M  V30 48 H -1.804884 5.286862 -2.213703 0
M  V30 49 H 0.427109 2.471240 -3.256411 0
M  V30 50 H 0.360129 -0.049982 -3.254579 0
M  V30 51 H -1.668544 -2.105446 -2.977347 0
M  V30 52 H -1.534677 -4.103597 -4.363295 0
M  V30 53 H 0.220605 -5.763415 -3.993448 0
M  V30 54 H 1.886270 -5.402834 -2.179905 0
M  V30 55 H 1.748650 -3.359728 -0.763033 0
M  V30 56 H -2.144575 -3.504968 0.539775 0
M  V30 57 H -2.302082 -5.346930 2.253388 0
M  V30 58 H -1.243742 -7.690091 4.878771 0
M  V30 59 H -2.144142 -7.007254 3.415504 0
M  V30 60 H -2.710881 -6.498119 6.266305 0
M  V30 61 H -3.210237 -5.344726 4.987740 0
M  V30 62 H -1.141320 -4.119120 5.631678 0
M  V30 63 H -0.553782 -5.569060 6.570494 0
M  V30 END ATOM
M  V30 BEGIN BOND
M  V30 1 1 1 2
M  V30 2 1 2 3
M  V30 3 2 3 4
M  V30 4 1 4 5
M  V30 5 2 5 6
M  V30 6 1 6 7
M  V30 7 1 7 8
M  V30 8 2 8 9
M  V30 9 1 9 10
M  V30 10 2 10 11
M  V30 11 1 11 12
M  V30 12 1 12 13
M  V30 13 1 13 14
M  V30 14 1 14 15
M  V30 15 1 15 16
M  V30 16 1 16 17
M  V30 17 1 17 18
M  V30 18 1 11 19
M  V30 19 2 19 20
M  V30 20 1 20 21
M  V30 21 1 21 22
M  V30 22 1 22 23
M  V30 23 2 23 24
M  V30 24 1 24 25
M  V30 25 2 25 26
M  V30 26 1 26 27
M  V30 27 2 27 28
M  V30 28 1 6 29
M  V30 29 2 29 30
M  V30 30 1 2 31
M  V30 31 1 31 32
M  V30 32 1 32 33
M  V30 33 1 33 2
M  V30 34 1 30 3
M  V30 35 2 22 7
M  V30 36 1 28 23
M  V30 37 1 21 9
M  V30 38 1 18 13
M  V30 39 1 1 34
M  V30 40 1 1 35
M  V30 41 1 4 36
M  V30 42 1 5 37
M  V30 43 1 13 38
M  V30 44 1 14 39
M  V30 45 1 14 40
M  V30 46 1 15 41
M  V30 47 1 15 42
M  V30 48 1 16 43
M  V30 49 1 16 44
M  V30 50 1 17 45
M  V30 51 1 17 46
M  V30 52 1 18 47
M  V30 53 1 18 48
M  V30 54 1 19 49
M  V30 55 1 20 50
M  V30 56 1 24 51
M  V30 57 1 25 52
M  V30 58 1 26 53
M  V30 59 1 27 54
M  V30 60 1 28 55
M  V30 61 1 29 56
M  V30 62 1 30 57
M  V30 63 1 31 58
M  V30 64 1 31 59
M  V30 65 1 32 60
M  V30 66 1 32 61
M  V30 67 1 33 62
M  V30 68 1 33 63
M  V30 END BOND
M  V30 END CTAB
M  END
>  <Dataset>  (356) 
ChEMBL_Kinases

>  <Ligand_Instance>  (356) 
nan

>  <PDB_ID>  (356) 
nan

>  <Standardized_SMILES>  (356) 
NC1(c2ccc(-c3nc4nc(OC5CCCCC5)ccn4c3-c3ccccc3)cc2)CCC1

>  <Name>  (356) 
nan

>  <Pocket>  (356) 
nan

>  <ATP_Site>  (356) 
nan

>  <Peripheral>  (356) 
nan

>  <Num_H_Atoms_ProtBoundConf>  (356) 
nan

>  <Num_Resolved_Atoms>  (356) 
nan

>  <Num_Not_Resolved_Atoms>  (356) 
nan

$$$$
CHEMBL2322677
     RDKit          3D

  0  0  0  0  0  0  0  0  0  0999 V3000
M  V30 BEGIN CTAB
M  V30 COUNTS 42 45 0 0 0
M  V30 BEGIN ATOM
M  V30 1 Cl 2.903035 -4.422235 3.643272 0
M  V30 2 C 2.206342 -3.214086 2.568558 0
M  V30 3 C 2.498867 -3.325623 1.233339 0
M  V30 4 C 1.932792 -2.360547 0.429112 0
M  V30 5 C 2.186057 -2.398077 -1.005797 0
M  V30 6 C 2.110027 -3.559074 -1.748866 0
M  V30 7 N 2.392296 -3.267346 -3.025798 0
M  V30 8 C 2.656426 -1.957330 -3.179992 0
M  V30 9 N 2.989296 -1.160833 -4.230387 0
M  V30 10 C 3.203201 0.177457 -4.076238 0
M  V30 11 C 3.068265 0.702035 -2.797979 0
M  V30 12 C 2.730368 -0.064887 -1.689425 0
M  V30 13 C 2.526556 -1.410714 -1.908872 0
M  V30 14 C 1.140503 -1.386620 1.005835 0
M  V30 15 C 0.872101 -1.311871 2.353572 0
M  V30 16 N 0.057127 -0.330444 2.968763 0
M  V30 17 C -0.659280 0.751916 2.290914 0
M  V30 18 C -1.733850 0.285038 1.375706 0
M  V30 19 C -3.140717 0.391538 1.896300 0
M  V30 20 C -3.268076 0.791145 3.319406 0
M  V30 21 C -2.389438 1.943705 3.713131 0
M  V30 22 C -1.002004 1.866297 3.210766 0
M  V30 23 N 1.434260 -2.261999 3.116594 0
M  V30 24 H 3.137744 -4.134616 0.873016 0
M  V30 25 H 1.861800 -4.557440 -1.368585 0
M  V30 26 H 2.410040 -3.959196 -3.823674 0
M  V30 27 H 3.467053 0.835351 -4.881880 0
M  V30 28 H 3.225572 1.752901 -2.619187 0
M  V30 29 H 2.631559 0.371967 -0.699937 0
M  V30 30 H 0.721891 -0.646892 0.338570 0
M  V30 31 H -0.076744 -0.339100 4.001877 0
M  V30 32 H 0.153992 1.184671 1.615329 0
M  V30 33 H -1.499562 -0.787614 1.125293 0
M  V30 34 H -1.642880 0.817906 0.407920 0
M  V30 35 H -3.703018 -0.581212 1.786094 0
M  V30 36 H -3.693049 1.087800 1.230362 0
M  V30 37 H -3.186572 -0.031862 4.057423 0
M  V30 38 H -4.332703 1.145753 3.453294 0
M  V30 39 H -2.376130 1.986763 4.824147 0
M  V30 40 H -2.917224 2.889687 3.408726 0
M  V30 41 H -0.267364 1.812272 4.070518 0
M  V30 42 H -0.763666 2.882870 2.770489 0
M  V30 END ATOM
M  V30 BEGIN BOND
M  V30 1 1 1 2
M  V30 2 2 2 3
M  V30 3 1 3 4
M  V30 4 1 4 5
M  V30 5 2 5 6
M  V30 6 1 6 7
M  V30 7 1 7 8
M  V30 8 2 8 9
M  V30 9 1 9 10
M  V30 10 2 10 11
M  V30 11 1 11 12
M  V30 12 2 12 13
M  V30 13 2 4 14
M  V30 14 1 14 15
M  V30 15 1 15 16
M  V30 16 1 16 17
M  V30 17 1 17 18
M  V30 18 1 18 19
M  V30 19 1 19 20
M  V30 20 1 20 21
M  V30 21 1 21 22
M  V30 22 2 15 23
M  V30 23 1 23 2
M  V30 24 1 13 5
M  V30 25 1 22 17
M  V30 26 1 13 8
M  V30 27 1 3 24
M  V30 28 1 6 25
M  V30 29 1 7 26
M  V30 30 1 10 27
M  V30 31 1 11 28
M  V30 32 1 12 29
M  V30 33 1 14 30
M  V30 34 1 16 31
M  V30 35 1 17 32
M  V30 36 1 18 33
M  V30 37 1 18 34
M  V30 38 1 19 35
M  V30 39 1 19 36
M  V30 40 1 20 37
M  V30 41 1 20 38
M  V30 42 1 21 39
M  V30 43 1 21 40
M  V30 44 1 22 41
M  V30 45 1 22 42
M  V30 END BOND
M  V30 END CTAB
M  END
>  <Dataset>  (357) 
ChEMBL_Kinases

>  <Ligand_Instance>  (357) 
nan

>  <PDB_ID>  (357) 
nan

>  <Standardized_SMILES>  (357) 
Clc1cc(-c2c[nH]c3ncccc23)cc(NC2CCCCC2)n1

>  <Name>  (357) 
nan

>  <Pocket>  (357) 
nan

>  <ATP_Site>  (357) 
nan

>  <Peripheral>  (357) 
nan

>  <Num_H_Atoms_ProtBoundConf>  (357) 
nan

>  <Num_Resolved_Atoms>  (357) 
nan

>  <Num_Not_Resolved_Atoms>  (357) 
nan

$$$$
CHEMBL3699727
     RDKit          3D

  0  0  0  0  0  0  0  0  0  0999 V3000
M  V30 BEGIN CTAB
M  V30 COUNTS 50 54 0 0 0
M  V30 BEGIN ATOM
M  V30 1 N -4.232705 -3.404174 -0.475092 0
M  V30 2 C -2.876457 -3.908850 -0.534958 0
M  V30 3 C -1.915930 -2.799968 -0.674033 0
M  V30 4 C -0.808723 -2.652293 -1.484072 0
M  V30 5 C -0.051654 -1.500613 -1.429233 0
M  V30 6 C -0.341071 -0.447987 -0.585282 0
M  V30 7 C 0.487909 0.751956 -0.560545 0
M  V30 8 N 0.794683 1.679912 -1.487002 0
M  V30 9 C 1.623597 2.593426 -0.908532 0
M  V30 10 C 2.225557 3.743797 -1.430007 0
M  V30 11 C 3.048195 4.522948 -0.609540 0
M  V30 12 C 3.247351 4.136614 0.700855 0
M  V30 13 C 4.097933 4.920277 1.591279 0
M  V30 14 O 4.658859 5.955621 1.175667 0
M  V30 15 O 4.283617 4.516757 2.896880 0
M  V30 16 C 2.627602 2.991867 1.161244 0
M  V30 17 N 1.829696 2.225000 0.386947 0
M  V30 18 C 1.134517 1.080420 0.633507 0
M  V30 19 C 1.162542 0.438974 1.953601 0
M  V30 20 C 0.753682 0.936239 3.173296 0
M  V30 21 C 0.880829 0.135445 4.285226 0
M  V30 22 C 1.401391 -1.136849 4.207287 0
M  V30 23 C 1.821055 -1.658600 2.981602 0
M  V30 24 C 1.686219 -0.841844 1.877506 0
M  V30 25 C -1.444377 -0.575123 0.233383 0
M  V30 26 C -2.203586 -1.726417 0.180510 0
M  V30 27 C -2.550632 -4.957746 0.505483 0
M  V30 28 C -3.163638 -5.970856 -0.473760 0
M  V30 29 C -2.689647 -5.001220 -1.569470 0
M  V30 30 H -4.550844 -3.120900 0.455948 0
M  V30 31 H -4.893861 -3.923153 -1.066904 0
M  V30 32 H -0.638665 -3.503680 -2.115796 0
M  V30 33 H 0.807536 -1.458231 -2.099553 0
M  V30 34 H 2.048851 4.025204 -2.474101 0
M  V30 35 H 3.508025 5.407892 -1.019955 0
M  V30 36 H 4.909717 4.971415 3.551011 0
M  V30 37 H 2.810850 2.724551 2.196332 0
M  V30 38 H 0.366391 1.936098 3.108404 0
M  V30 39 H 0.541011 0.580488 5.225824 0
M  V30 40 H 1.487622 -1.741326 5.103300 0
M  V30 41 H 2.215410 -2.651208 2.989246 0
M  V30 42 H 2.043632 -1.344584 0.967615 0
M  V30 43 H -1.664952 0.249366 0.889349 0
M  V30 44 H -3.052101 -1.706550 0.878265 0
M  V30 45 H -1.459085 -5.125688 0.541468 0
M  V30 46 H -3.074738 -4.898656 1.460933 0
M  V30 47 H -4.274822 -5.963690 -0.434568 0
M  V30 48 H -2.675907 -6.956499 -0.482749 0
M  V30 49 H -3.398915 -4.959825 -2.421027 0
M  V30 50 H -1.640443 -5.229176 -1.806529 0
M  V30 END ATOM
M  V30 BEGIN BOND
M  V30 1 1 1 2
M  V30 2 1 2 3
M  V30 3 2 3 4
M  V30 4 1 4 5
M  V30 5 2 5 6
M  V30 6 1 6 7
M  V30 7 1 7 8
M  V30 8 2 8 9
M  V30 9 1 9 10
M  V30 10 2 10 11
M  V30 11 1 11 12
M  V30 12 1 12 13
M  V30 13 2 13 14
M  V30 14 1 13 15
M  V30 15 2 12 16
M  V30 16 1 16 17
M  V30 17 1 17 18
M  V30 18 1 18 19
M  V30 19 2 19 20
M  V30 20 1 20 21
M  V30 21 2 21 22
M  V30 22 1 22 23
M  V30 23 2 23 24
M  V30 24 1 6 25
M  V30 25 2 25 26
M  V30 26 1 2 27
M  V30 27 1 27 28
M  V30 28 1 28 29
M  V30 29 1 29 2
M  V30 30 1 26 3
M  V30 31 2 18 7
M  V30 32 1 24 19
M  V30 33 1 17 9
M  V30 34 1 1 30
M  V30 35 1 1 31
M  V30 36 1 4 32
M  V30 37 1 5 33
M  V30 38 1 10 34
M  V30 39 1 11 35
M  V30 40 1 15 36
M  V30 41 1 16 37
M  V30 42 1 20 38
M  V30 43 1 21 39
M  V30 44 1 22 40
M  V30 45 1 23 41
M  V30 46 1 24 42
M  V30 47 1 25 43
M  V30 48 1 26 44
M  V30 49 1 27 45
M  V30 50 1 27 46
M  V30 51 1 28 47
M  V30 52 1 28 48
M  V30 53 1 29 49
M  V30 54 1 29 50
M  V30 END BOND
M  V30 END CTAB
M  END
>  <Dataset>  (358) 
ChEMBL_Kinases

>  <Ligand_Instance>  (358) 
nan

>  <PDB_ID>  (358) 
nan

>  <Standardized_SMILES>  (358) 
NC1(c2ccc(-c3nc4ccc(C(=O)O)cn4c3-c3ccccc3)cc2)CCC1

>  <Name>  (358) 
nan

>  <Pocket>  (358) 
nan

>  <ATP_Site>  (358) 
nan

>  <Peripheral>  (358) 
nan

>  <Num_H_Atoms_ProtBoundConf>  (358) 
nan

>  <Num_Resolved_Atoms>  (358) 
nan

>  <Num_Not_Resolved_Atoms>  (358) 
nan

$$$$
CHEMBL3699726
     RDKit          3D

  0  0  0  0  0  0  0  0  0  0999 V3000
M  V30 BEGIN CTAB
M  V30 COUNTS 54 59 0 0 0
M  V30 BEGIN ATOM
M  V30 1 N -1.031155 -5.628133 2.828344 0
M  V30 2 C -0.684562 -5.358085 1.451167 0
M  V30 3 C -0.350500 -3.935072 1.191935 0
M  V30 4 C 0.675430 -3.391844 0.446223 0
M  V30 5 C 0.793536 -2.018981 0.343022 0
M  V30 6 C -0.099174 -1.155658 0.974360 0
M  V30 7 C 0.254905 0.232745 0.703778 0
M  V30 8 N 1.394959 0.884323 1.078547 0
M  V30 9 C 1.310802 2.138054 0.623777 0
M  V30 10 C 2.205033 3.195557 0.738494 0
M  V30 11 C 3.483603 3.023597 1.455068 0
M  V30 12 C 4.625808 3.526306 0.870745 0
M  V30 13 N 5.616848 3.219109 1.750574 0
M  V30 14 N 5.101725 2.575126 2.792409 0
M  V30 15 C 3.758726 2.420652 2.664899 0
M  V30 16 C 1.884155 4.413777 0.173232 0
M  V30 17 C 0.686634 4.566708 -0.495099 0
M  V30 18 C -0.151438 3.478079 -0.570610 0
M  V30 19 N 0.133579 2.262274 -0.024682 0
M  V30 20 C -0.553305 1.102760 0.001246 0
M  V30 21 C -1.860571 0.955267 -0.622391 0
M  V30 22 C -3.111389 0.726363 -0.092339 0
M  V30 23 C -4.199609 0.622957 -0.914919 0
M  V30 24 C -4.103374 0.740266 -2.290097 0
M  V30 25 C -2.851094 0.971575 -2.848868 0
M  V30 26 C -1.738538 1.077303 -2.009781 0
M  V30 27 C -1.122617 -1.706113 1.718406 0
M  V30 28 C -1.240968 -3.076554 1.821543 0
M  V30 29 C 0.187860 -6.394171 0.838961 0
M  V30 30 C -1.063645 -7.129652 0.350205 0
M  V30 31 C -1.838177 -5.873666 0.579688 0
M  V30 32 H -1.991925 -5.300435 3.063475 0
M  V30 33 H -0.300519 -5.430587 3.516906 0
M  V30 34 H 1.310101 -4.133077 -0.000695 0
M  V30 35 H 1.646992 -1.743322 -0.275135 0
M  V30 36 H 4.813214 4.050422 -0.049067 0
M  V30 37 H 5.629203 2.218289 3.621359 0
M  V30 38 H 3.023929 1.967335 3.282841 0
M  V30 39 H 2.544376 5.266022 0.234477 0
M  V30 40 H 0.432482 5.512310 -0.936587 0
M  V30 41 H -1.093744 3.627451 -1.105914 0
M  V30 42 H -3.070965 0.654516 0.984467 0
M  V30 43 H -5.140436 0.441527 -0.388801 0
M  V30 44 H -5.019787 0.644046 -2.855711 0
M  V30 45 H -2.842829 1.051641 -3.907678 0
M  V30 46 H -0.837535 1.257202 -2.595167 0
M  V30 47 H -1.746559 -0.943975 2.159979 0
M  V30 48 H -2.087911 -3.361536 2.434738 0
M  V30 49 H 0.660380 -7.063637 1.615295 0
M  V30 50 H 0.889476 -6.121428 0.055640 0
M  V30 51 H -1.431837 -7.928200 1.003609 0
M  V30 52 H -0.945059 -7.472959 -0.696774 0
M  V30 53 H -2.808662 -5.945158 1.071353 0
M  V30 54 H -1.854913 -5.234770 -0.351748 0
M  V30 END ATOM
M  V30 BEGIN BOND
M  V30 1 1 1 2
M  V30 2 1 2 3
M  V30 3 2 3 4
M  V30 4 1 4 5
M  V30 5 2 5 6
M  V30 6 1 6 7
M  V30 7 1 7 8
M  V30 8 2 8 9
M  V30 9 1 9 10
M  V30 10 1 10 11
M  V30 11 1 11 12
M  V30 12 2 12 13
M  V30 13 1 13 14
M  V30 14 1 14 15
M  V30 15 2 10 16
M  V30 16 1 16 17
M  V30 17 2 17 18
M  V30 18 1 18 19
M  V30 19 1 19 20
M  V30 20 1 20 21
M  V30 21 2 21 22
M  V30 22 1 22 23
M  V30 23 2 23 24
M  V30 24 1 24 25
M  V30 25 2 25 26
M  V30 26 1 6 27
M  V30 27 2 27 28
M  V30 28 1 2 29
M  V30 29 1 29 30
M  V30 30 1 30 31
M  V30 31 1 31 2
M  V30 32 1 28 3
M  V30 33 2 20 7
M  V30 34 1 26 21
M  V30 35 1 19 9
M  V30 36 2 15 11
M  V30 37 1 1 32
M  V30 38 1 1 33
M  V30 39 1 4 34
M  V30 40 1 5 35
M  V30 41 1 12 36
M  V30 42 1 14 37
M  V30 43 1 15 38
M  V30 44 1 16 39
M  V30 45 1 17 40
M  V30 46 1 18 41
M  V30 47 1 22 42
M  V30 48 1 23 43
M  V30 49 1 24 44
M  V30 50 1 25 45
M  V30 51 1 26 46
M  V30 52 1 27 47
M  V30 53 1 28 48
M  V30 54 1 29 49
M  V30 55 1 29 50
M  V30 56 1 30 51
M  V30 57 1 30 52
M  V30 58 1 31 53
M  V30 59 1 31 54
M  V30 END BOND
M  V30 END CTAB
M  END
>  <Dataset>  (359) 
ChEMBL_Kinases

>  <Ligand_Instance>  (359) 
nan

>  <PDB_ID>  (359) 
nan

>  <Standardized_SMILES>  (359) 
NC1(c2ccc(-c3nc4c(-c5cn[nH]c5)cccn4c3-c3ccccc3)cc2)CCC1

>  <Name>  (359) 
nan

>  <Pocket>  (359) 
nan

>  <ATP_Site>  (359) 
nan

>  <Peripheral>  (359) 
nan

>  <Num_H_Atoms_ProtBoundConf>  (359) 
nan

>  <Num_Resolved_Atoms>  (359) 
nan

>  <Num_Not_Resolved_Atoms>  (359) 
nan

$$$$
CHEMBL3699725
     RDKit          3D

  0  0  0  0  0  0  0  0  0  0999 V3000
M  V30 BEGIN CTAB
M  V30 COUNTS 51 55 0 0 0
M  V30 BEGIN ATOM
M  V30 1 C 1.008766 -5.089719 2.864199 0
M  V30 2 C 2.287021 -4.880050 3.132084 0
M  V30 3 C 3.040114 -3.682731 2.782784 0
M  V30 4 C 4.370444 -3.635998 3.142270 0
M  V30 5 C 5.052072 -2.487061 2.795512 0
M  V30 6 C 4.440473 -1.428592 2.120391 0
M  V30 7 N 3.138502 -1.588378 1.822433 0
M  V30 8 C 2.363054 -0.694095 1.177697 0
M  V30 9 C 2.567784 0.633317 0.609846 0
M  V30 10 C 2.423525 0.914957 -0.732725 0
M  V30 11 C 2.632025 2.197828 -1.215562 0
M  V30 12 C 2.991311 3.240436 -0.372507 0
M  V30 13 C 3.136588 2.952623 0.985929 0
M  V30 14 C 2.929250 1.663154 1.486060 0
M  V30 15 C 1.096794 -1.221059 1.063352 0
M  V30 16 C -0.208971 -0.867615 0.521586 0
M  V30 17 C -0.764835 0.249105 1.123182 0
M  V30 18 C -2.021358 0.697933 0.697270 0
M  V30 19 C -2.710922 0.057948 -0.299096 0
M  V30 20 C -4.023913 0.572112 -0.705550 0
M  V30 21 N -4.134370 2.003073 -0.840771 0
M  V30 22 C -5.124714 -0.087540 0.130857 0
M  V30 23 C -5.312079 -1.109710 -0.997442 0
M  V30 24 C -4.640193 -0.114346 -1.899490 0
M  V30 25 C -2.118466 -1.044391 -0.864740 0
M  V30 26 C -0.898662 -1.516363 -0.482429 0
M  V30 27 N 1.135769 -2.448789 1.654175 0
M  V30 28 C 2.390582 -2.665008 2.116127 0
M  V30 29 H 0.349442 -5.921533 3.067738 0
M  V30 30 H 0.227565 -4.527230 2.374281 0
M  V30 31 H 2.726848 -5.717558 3.653974 0
M  V30 32 H 4.855782 -4.446403 3.663712 0
M  V30 33 H 6.096891 -2.451707 3.078994 0
M  V30 34 H 4.997643 -0.540536 1.860729 0
M  V30 35 H 2.139794 0.107962 -1.420392 0
M  V30 36 H 2.520617 2.427382 -2.270029 0
M  V30 37 H 3.162633 4.261298 -0.721937 0
M  V30 38 H 3.420660 3.771823 1.661358 0
M  V30 39 H 3.044441 1.448743 2.545469 0
M  V30 40 H -0.316257 0.841697 1.922722 0
M  V30 41 H -2.471838 1.579014 1.164161 0
M  V30 42 H -4.106952 2.514062 0.069181 0
M  V30 43 H -4.996994 2.207173 -1.384526 0
M  V30 44 H -4.781080 -0.513959 1.076052 0
M  V30 45 H -6.057387 0.507302 0.212309 0
M  V30 46 H -4.808182 -2.062832 -0.811913 0
M  V30 47 H -6.397318 -1.314799 -1.226928 0
M  V30 48 H -5.429098 0.524998 -2.385492 0
M  V30 49 H -3.975509 -0.479810 -2.678317 0
M  V30 50 H -2.607244 -1.584149 -1.644929 0
M  V30 51 H -0.392345 -2.378685 -0.897000 0
M  V30 END ATOM
M  V30 BEGIN BOND
M  V30 1 2 1 2
M  V30 2 1 2 3
M  V30 3 2 3 4
M  V30 4 1 4 5
M  V30 5 2 5 6
M  V30 6 1 6 7
M  V30 7 1 7 8
M  V30 8 1 8 9
M  V30 9 2 9 10
M  V30 10 1 10 11
M  V30 11 2 11 12
M  V30 12 1 12 13
M  V30 13 2 13 14
M  V30 14 2 8 15
M  V30 15 1 15 16
M  V30 16 2 16 17
M  V30 17 1 17 18
M  V30 18 2 18 19
M  V30 19 1 19 20
M  V30 20 1 20 21
M  V30 21 1 20 22
M  V30 22 1 22 23
M  V30 23 1 23 24
M  V30 24 1 19 25
M  V30 25 2 25 26
M  V30 26 1 15 27
M  V30 27 2 27 28
M  V30 28 1 28 3
M  V30 29 1 28 7
M  V30 30 1 14 9
M  V30 31 1 26 16
M  V30 32 1 24 20
M  V30 33 1 1 29
M  V30 34 1 1 30
M  V30 35 1 2 31
M  V30 36 1 4 32
M  V30 37 1 5 33
M  V30 38 1 6 34
M  V30 39 1 10 35
M  V30 40 1 11 36
M  V30 41 1 12 37
M  V30 42 1 13 38
M  V30 43 1 14 39
M  V30 44 1 17 40
M  V30 45 1 18 41
M  V30 46 1 21 42
M  V30 47 1 21 43
M  V30 48 1 22 44
M  V30 49 1 22 45
M  V30 50 1 23 46
M  V30 51 1 23 47
M  V30 52 1 24 48
M  V30 53 1 24 49
M  V30 54 1 25 50
M  V30 55 1 26 51
M  V30 END BOND
M  V30 END CTAB
M  END
>  <Dataset>  (360) 
ChEMBL_Kinases

>  <Ligand_Instance>  (360) 
nan

>  <PDB_ID>  (360) 
nan

>  <Standardized_SMILES>  (360) 
C=Cc1cccn2c(-c3ccccc3)c(-c3ccc(C4(N)CCC4)cc3)nc12

>  <Name>  (360) 
nan

>  <Pocket>  (360) 
nan

>  <ATP_Site>  (360) 
nan

>  <Peripheral>  (360) 
nan

>  <Num_H_Atoms_ProtBoundConf>  (360) 
nan

>  <Num_Resolved_Atoms>  (360) 
nan

>  <Num_Not_Resolved_Atoms>  (360) 
nan

$$$$
CHEMBL2321918
     RDKit          3D

  0  0  0  0  0  0  0  0  0  0999 V3000
M  V30 BEGIN CTAB
M  V30 COUNTS 40 43 0 0 0
M  V30 BEGIN ATOM
M  V30 1 C -0.829784 -4.851816 3.290851 0
M  V30 2 C -0.788937 -3.570026 2.482652 0 CFG=2
M  V30 3 C 0.667177 -3.215439 2.160742 0
M  V30 4 N 0.614588 -1.901792 1.558265 0
M  V30 5 C 0.810657 -1.582268 0.189654 0
M  V30 6 C 1.068843 -2.542423 -0.761485 0
M  V30 7 C 1.253297 -2.162788 -2.093032 0
M  V30 8 C 1.169193 -0.806210 -2.421948 0
M  V30 9 C 0.908647 0.124554 -1.438733 0
M  V30 10 C 0.826327 1.534115 -1.807647 0
M  V30 11 N 0.976974 2.061126 -3.031466 0
M  V30 12 N 0.838851 3.365479 -3.000628 0
M  V30 13 C 0.587555 3.783308 -1.750881 0
M  V30 14 N 0.375604 5.012075 -1.231343 0
M  V30 15 C 0.140901 5.126063 0.105088 0
M  V30 16 C 0.119307 4.004333 0.919303 0
M  V30 17 C 0.342192 2.746223 0.352171 0
M  V30 18 C 0.580542 2.623459 -1.000820 0
M  V30 19 N 0.739650 -0.299669 -0.172049 0
M  V30 20 C 0.323500 -0.880497 2.546289 0
M  V30 21 C -0.439830 -1.521446 3.702911 0
M  V30 22 N -1.405577 -2.499707 3.240128 0
M  V30 23 H -0.371587 -4.620574 4.291042 0
M  V30 24 H -0.301830 -5.649885 2.745023 0
M  V30 25 H -1.888559 -5.091004 3.483925 0
M  V30 26 H -1.311203 -3.658488 1.528460 0
M  V30 27 H 1.052343 -3.972896 1.480539 0
M  V30 28 H 1.247852 -3.188050 3.126991 0
M  V30 29 H 1.133938 -3.590947 -0.509262 0
M  V30 30 H 1.456854 -2.915709 -2.845304 0
M  V30 31 H 1.311482 -0.501197 -3.456660 0
M  V30 32 H 0.923617 3.937000 -3.857097 0
M  V30 33 H -0.023711 6.118636 0.485234 0
M  V30 34 H -0.070355 4.133682 1.976500 0
M  V30 35 H 0.327246 1.873063 0.975589 0
M  V30 36 H 1.218034 -0.405373 2.964368 0
M  V30 37 H -0.383877 -0.124151 2.095974 0
M  V30 38 H -1.029640 -0.701550 4.174713 0
M  V30 39 H 0.257803 -1.960494 4.418859 0
M  V30 40 H -2.224604 -2.077164 2.788914 0
M  V30 END ATOM
M  V30 BEGIN BOND
M  V30 1 1 1 2
M  V30 2 1 2 3
M  V30 3 1 3 4
M  V30 4 1 4 5
M  V30 5 2 5 6
M  V30 6 1 6 7
M  V30 7 2 7 8
M  V30 8 1 8 9
M  V30 9 1 9 10
M  V30 10 2 10 11
M  V30 11 1 11 12
M  V30 12 1 12 13
M  V30 13 2 13 14
M  V30 14 1 14 15
M  V30 15 2 15 16
M  V30 16 1 16 17
M  V30 17 2 17 18
M  V30 18 2 9 19
M  V30 19 1 4 20
M  V30 20 1 20 21
M  V30 21 1 21 22
M  V30 22 1 22 2
M  V30 23 1 19 5
M  V30 24 1 18 10
M  V30 25 1 18 13
M  V30 26 1 1 23
M  V30 27 1 1 24
M  V30 28 1 1 25
M  V30 29 1 2 26 CFG=3
M  V30 30 1 3 27
M  V30 31 1 3 28
M  V30 32 1 6 29
M  V30 33 1 7 30
M  V30 34 1 8 31
M  V30 35 1 12 32
M  V30 36 1 15 33
M  V30 37 1 16 34
M  V30 38 1 17 35
M  V30 39 1 20 36
M  V30 40 1 20 37
M  V30 41 1 21 38
M  V30 42 1 21 39
M  V30 43 1 22 40
M  V30 END BOND
M  V30 END CTAB
M  END
>  <Dataset>  (361) 
ChEMBL_Kinases

>  <Ligand_Instance>  (361) 
nan

>  <PDB_ID>  (361) 
nan

>  <Standardized_SMILES>  (361) 
C[C@@H]1CN(c2cccc(-c3n[nH]c4ncccc34)n2)CCN1

>  <Name>  (361) 
nan

>  <Pocket>  (361) 
nan

>  <ATP_Site>  (361) 
nan

>  <Peripheral>  (361) 
nan

>  <Num_H_Atoms_ProtBoundConf>  (361) 
nan

>  <Num_Resolved_Atoms>  (361) 
nan

>  <Num_Not_Resolved_Atoms>  (361) 
nan

$$$$
CHEMBL3699724
     RDKit          3D

  0  0  0  0  0  0  0  0  0  0999 V3000
M  V30 BEGIN CTAB
M  V30 COUNTS 51 55 0 0 0
M  V30 BEGIN ATOM
M  V30 1 C 0.167563 -7.839505 1.300449 0
M  V30 2 C 1.371733 -7.299240 1.047042 0
M  V30 3 C 1.693693 -5.879242 0.831044 0
M  V30 4 C 2.991174 -5.470942 0.578028 0
M  V30 5 C 3.179464 -4.119719 0.390500 0
M  V30 6 C 2.161856 -3.195148 0.443663 0
M  V30 7 N 2.152425 -1.838899 0.286768 0
M  V30 8 C 0.854413 -1.435439 0.445124 0
M  V30 9 C 0.598010 -0.002477 0.318783 0
M  V30 10 C 1.268626 0.797196 1.254340 0
M  V30 11 C 1.132702 2.187607 1.271404 0
M  V30 12 C 0.306455 2.787172 0.329705 0
M  V30 13 C 0.226272 4.248229 0.424976 0
M  V30 14 N -0.046386 4.777013 1.751900 0
M  V30 15 C -0.661504 4.894062 -0.587830 0
M  V30 16 C 0.333732 6.063358 -0.582336 0
M  V30 17 C 1.385356 4.998990 -0.239832 0
M  V30 18 C -0.350359 1.992890 -0.588087 0
M  V30 19 C -0.217040 0.619869 -0.606028 0
M  V30 20 C 0.116532 -2.563178 0.693618 0
M  V30 21 C -1.294202 -2.457435 0.904454 0
M  V30 22 C -1.669756 -1.709663 2.021056 0
M  V30 23 C -2.995076 -1.508676 2.369249 0
M  V30 24 C -3.990979 -2.048052 1.613547 0
M  V30 25 C -3.629710 -2.790443 0.505410 0
M  V30 26 C -2.318214 -2.998013 0.148050 0
M  V30 27 N 0.917913 -3.644604 0.693046 0
M  V30 28 C 0.656781 -4.953510 0.887153 0
M  V30 29 H 0.011867 -8.899476 1.448238 0
M  V30 30 H -0.716346 -7.217447 1.368682 0
M  V30 31 H 2.201502 -8.016587 0.999142 0
M  V30 32 H 3.764057 -6.201689 0.541011 0
M  V30 33 H 4.164398 -3.739338 0.190236 0
M  V30 34 H 1.931038 0.352463 2.013908 0
M  V30 35 H 1.679150 2.751016 2.021906 0
M  V30 36 H -0.526467 4.047285 2.352429 0
M  V30 37 H 0.884180 4.978443 2.190450 0
M  V30 38 H -0.686784 4.483011 -1.601797 0
M  V30 39 H -1.629266 5.250495 -0.168488 0
M  V30 40 H 0.461851 6.549291 -1.552802 0
M  V30 41 H 0.194474 6.741854 0.303100 0
M  V30 42 H 2.176060 5.328502 0.435241 0
M  V30 43 H 1.694349 4.496740 -1.171421 0
M  V30 44 H -0.979260 2.483241 -1.300405 0
M  V30 45 H -0.704685 -0.023088 -1.294361 0
M  V30 46 H -0.948676 -1.242873 2.680675 0
M  V30 47 H -3.260971 -0.917683 3.250541 0
M  V30 48 H -5.039563 -1.902395 1.869435 0
M  V30 49 H -4.403448 -3.239125 -0.125273 0
M  V30 50 H -1.992395 -3.573397 -0.712536 0
M  V30 51 H -0.368840 -5.228150 1.081556 0
M  V30 END ATOM
M  V30 BEGIN BOND
M  V30 1 2 1 2
M  V30 2 1 2 3
M  V30 3 1 3 4
M  V30 4 2 4 5
M  V30 5 1 5 6
M  V30 6 2 6 7
M  V30 7 1 7 8
M  V30 8 1 8 9
M  V30 9 2 9 10
M  V30 10 1 10 11
M  V30 11 2 11 12
M  V30 12 1 12 13
M  V30 13 1 13 14
M  V30 14 1 13 15
M  V30 15 1 15 16
M  V30 16 1 16 17
M  V30 17 1 12 18
M  V30 18 2 18 19
M  V30 19 2 8 20
M  V30 20 1 20 21
M  V30 21 2 21 22
M  V30 22 1 22 23
M  V30 23 2 23 24
M  V30 24 1 24 25
M  V30 25 2 25 26
M  V30 26 1 20 27
M  V30 27 1 27 28
M  V30 28 2 28 3
M  V30 29 1 27 6
M  V30 30 1 19 9
M  V30 31 1 26 21
M  V30 32 1 17 13
M  V30 33 1 1 29
M  V30 34 1 1 30
M  V30 35 1 2 31
M  V30 36 1 4 32
M  V30 37 1 5 33
M  V30 38 1 10 34
M  V30 39 1 11 35
M  V30 40 1 14 36
M  V30 41 1 14 37
M  V30 42 1 15 38
M  V30 43 1 15 39
M  V30 44 1 16 40
M  V30 45 1 16 41
M  V30 46 1 17 42
M  V30 47 1 17 43
M  V30 48 1 18 44
M  V30 49 1 19 45
M  V30 50 1 22 46
M  V30 51 1 23 47
M  V30 52 1 24 48
M  V30 53 1 25 49
M  V30 54 1 26 50
M  V30 55 1 28 51
M  V30 END BOND
M  V30 END CTAB
M  END
>  <Dataset>  (362) 
ChEMBL_Kinases

>  <Ligand_Instance>  (362) 
nan

>  <PDB_ID>  (362) 
nan

>  <Standardized_SMILES>  (362) 
C=Cc1ccc2nc(-c3ccc(C4(N)CCC4)cc3)c(-c3ccccc3)n2c1

>  <Name>  (362) 
nan

>  <Pocket>  (362) 
nan

>  <ATP_Site>  (362) 
nan

>  <Peripheral>  (362) 
nan

>  <Num_H_Atoms_ProtBoundConf>  (362) 
nan

>  <Num_Resolved_Atoms>  (362) 
nan

>  <Num_Not_Resolved_Atoms>  (362) 
nan

$$$$
CHEMBL3699723
     RDKit          3D

  0  0  0  0  0  0  0  0  0  0999 V3000
M  V30 BEGIN CTAB
M  V30 COUNTS 54 59 0 0 0
M  V30 BEGIN ATOM
M  V30 1 N 0.140002 -5.960941 -1.415849 0
M  V30 2 C -0.427244 -4.778150 -2.011565 0
M  V30 3 C -0.223927 -3.502765 -1.308806 0
M  V30 4 C 1.011885 -3.296619 -0.727112 0
M  V30 5 C 1.305952 -2.131474 -0.042226 0
M  V30 6 C 0.360260 -1.129469 0.080446 0
M  V30 7 C 0.536485 0.145359 0.773498 0
M  V30 8 N 1.388803 1.168880 0.571813 0
M  V30 9 C 1.172713 2.144092 1.476377 0
M  V30 10 C 1.791955 3.379003 1.669342 0
M  V30 11 C 2.876737 3.738960 0.761310 0
M  V30 12 C 2.686697 4.462697 -0.507597 0
M  V30 13 C 3.239425 5.246685 0.641271 0
M  V30 14 C 1.301593 4.128116 2.710062 0
M  V30 15 C 0.282234 3.771804 3.551051 0
M  V30 16 C -0.282981 2.522345 3.290457 0
M  V30 17 N 0.149746 1.726981 2.279251 0
M  V30 18 C -0.253260 0.498558 1.860046 0
M  V30 19 C -1.331385 -0.231003 2.505555 0
M  V30 20 C -2.655563 0.148910 2.630775 0
M  V30 21 C -3.553076 -0.680029 3.283962 0
M  V30 22 C -3.167233 -1.892376 3.823765 0
M  V30 23 C -1.847530 -2.253008 3.689575 0
M  V30 24 C -0.919608 -1.446316 3.040572 0
M  V30 25 C -0.882223 -1.310734 -0.491695 0
M  V30 26 C -1.146525 -2.485671 -1.169767 0
M  V30 27 C -0.036588 -4.696223 -3.486343 0
M  V30 28 C -1.154338 -5.727238 -3.702990 0
M  V30 29 C -1.829397 -5.056646 -2.496116 0
M  V30 30 H -0.662255 -6.480511 -0.951323 0
M  V30 31 H 0.826773 -5.720048 -0.690229 0
M  V30 32 H 1.860971 -3.965558 -0.724696 0
M  V30 33 H 2.250409 -1.899981 0.438497 0
M  V30 34 H 3.789280 3.074696 0.809012 0
M  V30 35 H 1.702729 4.785125 -0.872559 0
M  V30 36 H 3.400019 4.271946 -1.335339 0
M  V30 37 H 4.325686 5.497658 0.664818 0
M  V30 38 H 2.567985 5.929888 1.201866 0
M  V30 39 H 1.766543 5.090128 2.879031 0
M  V30 40 H -0.065010 4.404098 4.358193 0
M  V30 41 H -1.104939 2.202150 3.945941 0
M  V30 42 H -2.891753 1.108095 2.186769 0
M  V30 43 H -4.571325 -0.317343 3.343360 0
M  V30 44 H -3.875855 -2.525455 4.328292 0
M  V30 45 H -1.578807 -3.210570 4.124673 0
M  V30 46 H 0.078099 -1.860994 3.013493 0
M  V30 47 H -1.675948 -0.569541 -0.437539 0
M  V30 48 H -2.106532 -2.637820 -1.617621 0
M  V30 49 H -0.341319 -3.755720 -3.976109 0
M  V30 50 H 0.971435 -5.056075 -3.699465 0
M  V30 51 H -0.811667 -6.759706 -3.424624 0
M  V30 52 H -1.693831 -5.640960 -4.648337 0
M  V30 53 H -2.403340 -5.791719 -1.893626 0
M  V30 54 H -2.399999 -4.198965 -2.892840 0
M  V30 END ATOM
M  V30 BEGIN BOND
M  V30 1 1 1 2
M  V30 2 1 2 3
M  V30 3 2 3 4
M  V30 4 1 4 5
M  V30 5 2 5 6
M  V30 6 1 6 7
M  V30 7 1 7 8
M  V30 8 2 8 9
M  V30 9 1 9 10
M  V30 10 1 10 11
M  V30 11 1 11 12
M  V30 12 1 12 13
M  V30 13 2 10 14
M  V30 14 1 14 15
M  V30 15 2 15 16
M  V30 16 1 16 17
M  V30 17 1 17 18
M  V30 18 1 18 19
M  V30 19 2 19 20
M  V30 20 1 20 21
M  V30 21 2 21 22
M  V30 22 1 22 23
M  V30 23 2 23 24
M  V30 24 1 6 25
M  V30 25 2 25 26
M  V30 26 1 2 27
M  V30 27 1 27 28
M  V30 28 1 28 29
M  V30 29 1 29 2
M  V30 30 1 26 3
M  V30 31 2 18 7
M  V30 32 1 24 19
M  V30 33 1 17 9
M  V30 34 1 13 11
M  V30 35 1 1 30
M  V30 36 1 1 31
M  V30 37 1 4 32
M  V30 38 1 5 33
M  V30 39 1 11 34
M  V30 40 1 12 35
M  V30 41 1 12 36
M  V30 42 1 13 37
M  V30 43 1 13 38
M  V30 44 1 14 39
M  V30 45 1 15 40
M  V30 46 1 16 41
M  V30 47 1 20 42
M  V30 48 1 21 43
M  V30 49 1 22 44
M  V30 50 1 23 45
M  V30 51 1 24 46
M  V30 52 1 25 47
M  V30 53 1 26 48
M  V30 54 1 27 49
M  V30 55 1 27 50
M  V30 56 1 28 51
M  V30 57 1 28 52
M  V30 58 1 29 53
M  V30 59 1 29 54
M  V30 END BOND
M  V30 END CTAB
M  END
>  <Dataset>  (363) 
ChEMBL_Kinases

>  <Ligand_Instance>  (363) 
nan

>  <PDB_ID>  (363) 
nan

>  <Standardized_SMILES>  (363) 
NC1(c2ccc(-c3nc4c(C5CC5)cccn4c3-c3ccccc3)cc2)CCC1

>  <Name>  (363) 
nan

>  <Pocket>  (363) 
nan

>  <ATP_Site>  (363) 
nan

>  <Peripheral>  (363) 
nan

>  <Num_H_Atoms_ProtBoundConf>  (363) 
nan

>  <Num_Resolved_Atoms>  (363) 
nan

>  <Num_Not_Resolved_Atoms>  (363) 
nan

$$$$
CHEMBL3699722
     RDKit          3D

  0  0  0  0  0  0  0  0  0  0999 V3000
M  V30 BEGIN CTAB
M  V30 COUNTS 47 51 0 0 0
M  V30 BEGIN ATOM
M  V30 1 N 1.194548 -4.763036 2.912353 0
M  V30 2 C 0.099057 -4.444731 2.020113 0
M  V30 3 C 0.400424 -3.224803 1.259332 0
M  V30 4 C 0.317711 -3.023158 -0.103371 0
M  V30 5 C 0.629465 -1.824976 -0.696629 0
M  V30 6 C 1.040635 -0.791033 0.119268 0
M  V30 7 C 1.393074 0.518349 -0.417825 0
M  V30 8 N 2.323935 0.984143 -1.276791 0
M  V30 9 C 2.174485 2.330424 -1.404952 0
M  V30 10 C 2.893876 3.225874 -2.169025 0
M  V30 11 C 2.541190 4.568156 -2.127991 0
M  V30 12 C 1.484188 4.954924 -1.324095 0
M  V30 13 F 1.179999 6.274349 -1.319185 0
M  V30 14 C 0.773355 4.030933 -0.561676 0
M  V30 15 N 1.152200 2.731153 -0.632395 0
M  V30 16 C 0.647568 1.629468 -0.007744 0
M  V30 17 C -0.496090 1.695054 0.927939 0
M  V30 18 C -1.623047 0.986068 0.520332 0
M  V30 19 C -2.710107 1.019383 1.360222 0
M  V30 20 C -2.664713 1.719316 2.531003 0
M  V30 21 C -1.539671 2.411139 2.910593 0
M  V30 22 C -0.405015 2.415842 2.101739 0
M  V30 23 C 1.140867 -0.943525 1.501193 0
M  V30 24 C 0.817944 -2.173947 2.084252 0
M  V30 25 C -0.366441 -5.644962 1.230737 0
M  V30 26 C -1.798477 -5.145440 1.443391 0
M  V30 27 C -1.251549 -4.461720 2.703351 0
M  V30 28 H 2.101689 -4.546741 2.453711 0
M  V30 29 H 1.093222 -4.340462 3.865680 0
M  V30 30 H -0.012637 -3.885362 -0.666148 0
M  V30 31 H 0.553690 -1.702244 -1.764277 0
M  V30 32 H 3.722631 2.862250 -2.788479 0
M  V30 33 H 3.127936 5.241640 -2.740629 0
M  V30 34 H -0.052913 4.385404 0.057282 0
M  V30 35 H -1.637932 0.437756 -0.411886 0
M  V30 36 H -3.625510 0.483017 1.097674 0
M  V30 37 H -3.528191 1.735504 3.179386 0
M  V30 38 H -1.439923 2.984852 3.825886 0
M  V30 39 H 0.526412 2.927976 2.311708 0
M  V30 40 H 1.471187 -0.101837 2.123438 0
M  V30 41 H 0.926255 -2.197149 3.161365 0
M  V30 42 H -0.242157 -6.569872 1.860775 0
M  V30 43 H -0.032054 -5.731757 0.199983 0
M  V30 44 H -2.547178 -5.937267 1.632194 0
M  V30 45 H -2.159679 -4.434689 0.682530 0
M  V30 46 H -1.688603 -3.455835 2.894745 0
M  V30 47 H -1.315570 -5.152697 3.562524 0
M  V30 END ATOM
M  V30 BEGIN BOND
M  V30 1 1 1 2
M  V30 2 1 2 3
M  V30 3 2 3 4
M  V30 4 1 4 5
M  V30 5 2 5 6
M  V30 6 1 6 7
M  V30 7 1 7 8
M  V30 8 2 8 9
M  V30 9 1 9 10
M  V30 10 2 10 11
M  V30 11 1 11 12
M  V30 12 1 12 13
M  V30 13 2 12 14
M  V30 14 1 14 15
M  V30 15 1 15 16
M  V30 16 1 16 17
M  V30 17 2 17 18
M  V30 18 1 18 19
M  V30 19 2 19 20
M  V30 20 1 20 21
M  V30 21 2 21 22
M  V30 22 1 6 23
M  V30 23 2 23 24
M  V30 24 1 2 25
M  V30 25 1 25 26
M  V30 26 1 26 27
M  V30 27 1 27 2
M  V30 28 1 24 3
M  V30 29 2 16 7
M  V30 30 1 22 17
M  V30 31 1 15 9
M  V30 32 1 1 28
M  V30 33 1 1 29
M  V30 34 1 4 30
M  V30 35 1 5 31
M  V30 36 1 10 32
M  V30 37 1 11 33
M  V30 38 1 14 34
M  V30 39 1 18 35
M  V30 40 1 19 36
M  V30 41 1 20 37
M  V30 42 1 21 38
M  V30 43 1 22 39
M  V30 44 1 23 40
M  V30 45 1 24 41
M  V30 46 1 25 42
M  V30 47 1 25 43
M  V30 48 1 26 44
M  V30 49 1 26 45
M  V30 50 1 27 46
M  V30 51 1 27 47
M  V30 END BOND
M  V30 END CTAB
M  END
>  <Dataset>  (364) 
ChEMBL_Kinases

>  <Ligand_Instance>  (364) 
nan

>  <PDB_ID>  (364) 
nan

>  <Standardized_SMILES>  (364) 
NC1(c2ccc(-c3nc4ccc(F)cn4c3-c3ccccc3)cc2)CCC1

>  <Name>  (364) 
nan

>  <Pocket>  (364) 
nan

>  <ATP_Site>  (364) 
nan

>  <Peripheral>  (364) 
nan

>  <Num_H_Atoms_ProtBoundConf>  (364) 
nan

>  <Num_Resolved_Atoms>  (364) 
nan

>  <Num_Not_Resolved_Atoms>  (364) 
nan

$$$$
CHEMBL3699721
     RDKit          3D

  0  0  0  0  0  0  0  0  0  0999 V3000
M  V30 BEGIN CTAB
M  V30 COUNTS 47 51 0 0 0
M  V30 BEGIN ATOM
M  V30 1 N 1.207055 -4.794717 2.841208 0
M  V30 2 C 0.106916 -4.477201 1.953694 0
M  V30 3 C 0.371360 -3.255436 1.184741 0
M  V30 4 C 0.264976 -3.019713 -0.167669 0
M  V30 5 C 0.559486 -1.793247 -0.712741 0
M  V30 6 C 0.973938 -0.760646 0.103313 0
M  V30 7 C 1.303495 0.568429 -0.405562 0
M  V30 8 N 2.246712 0.981782 -1.275968 0
M  V30 9 C 2.170591 2.314092 -1.442131 0
M  V30 10 C 2.838488 3.275954 -2.174304 0
M  V30 11 Cl 4.154978 2.771837 -3.202034 0
M  V30 12 C 2.482565 4.611982 -2.104016 0
M  V30 13 C 1.447333 5.040224 -1.301374 0
M  V30 14 C 0.787649 4.067874 -0.574453 0
M  V30 15 N 1.169842 2.783970 -0.675905 0
M  V30 16 C 0.613604 1.722609 -0.021044 0
M  V30 17 C -0.517898 1.745443 0.933609 0
M  V30 18 C -1.692378 1.060845 0.626077 0
M  V30 19 C -2.748361 1.088969 1.529564 0
M  V30 20 C -2.553838 1.809300 2.693299 0
M  V30 21 C -1.386289 2.495053 3.008590 0
M  V30 22 C -0.343448 2.461472 2.105565 0
M  V30 23 C 1.095455 -0.956385 1.480650 0
M  V30 24 C 0.790372 -2.213547 2.014373 0
M  V30 25 C -0.357903 -5.684096 1.167607 0
M  V30 26 C -1.809109 -5.319971 1.483978 0
M  V30 27 C -1.231939 -4.517022 2.658189 0
M  V30 28 H 2.106982 -4.759843 2.344972 0
M  V30 29 H 1.193998 -4.288459 3.738703 0
M  V30 30 H -0.059783 -3.865095 -0.720732 0
M  V30 31 H 0.466905 -1.641197 -1.771300 0
M  V30 32 H 2.997034 5.374099 -2.671586 0
M  V30 33 H 1.149954 6.076397 -1.228966 0
M  V30 34 H -0.025259 4.381664 0.060038 0
M  V30 35 H -1.811070 0.507504 -0.291796 0
M  V30 36 H -3.685564 0.578386 1.349330 0
M  V30 37 H -3.364698 1.840596 3.405494 0
M  V30 38 H -1.293757 3.043887 3.939899 0
M  V30 39 H 0.596599 2.966428 2.272801 0
M  V30 40 H 1.425547 -0.123693 2.108627 0
M  V30 41 H 0.919201 -2.255167 3.093092 0
M  V30 42 H -0.138855 -6.624720 1.753982 0
M  V30 43 H -0.098612 -5.723756 0.110310 0
M  V30 44 H -2.435882 -6.143850 1.856818 0
M  V30 45 H -2.285494 -4.688212 0.709998 0
M  V30 46 H -1.237769 -5.055027 3.619506 0
M  V30 47 H -1.773040 -3.552070 2.715151 0
M  V30 END ATOM
M  V30 BEGIN BOND
M  V30 1 1 1 2
M  V30 2 1 2 3
M  V30 3 2 3 4
M  V30 4 1 4 5
M  V30 5 2 5 6
M  V30 6 1 6 7
M  V30 7 1 7 8
M  V30 8 2 8 9
M  V30 9 1 9 10
M  V30 10 1 10 11
M  V30 11 2 10 12
M  V30 12 1 12 13
M  V30 13 2 13 14
M  V30 14 1 14 15
M  V30 15 1 15 16
M  V30 16 1 16 17
M  V30 17 2 17 18
M  V30 18 1 18 19
M  V30 19 2 19 20
M  V30 20 1 20 21
M  V30 21 2 21 22
M  V30 22 1 6 23
M  V30 23 2 23 24
M  V30 24 1 2 25
M  V30 25 1 25 26
M  V30 26 1 26 27
M  V30 27 1 27 2
M  V30 28 1 24 3
M  V30 29 2 16 7
M  V30 30 1 22 17
M  V30 31 1 15 9
M  V30 32 1 1 28
M  V30 33 1 1 29
M  V30 34 1 4 30
M  V30 35 1 5 31
M  V30 36 1 12 32
M  V30 37 1 13 33
M  V30 38 1 14 34
M  V30 39 1 18 35
M  V30 40 1 19 36
M  V30 41 1 20 37
M  V30 42 1 21 38
M  V30 43 1 22 39
M  V30 44 1 23 40
M  V30 45 1 24 41
M  V30 46 1 25 42
M  V30 47 1 25 43
M  V30 48 1 26 44
M  V30 49 1 26 45
M  V30 50 1 27 46
M  V30 51 1 27 47
M  V30 END BOND
M  V30 END CTAB
M  END
>  <Dataset>  (365) 
ChEMBL_Kinases

>  <Ligand_Instance>  (365) 
nan

>  <PDB_ID>  (365) 
nan

>  <Standardized_SMILES>  (365) 
NC1(c2ccc(-c3nc4c(Cl)cccn4c3-c3ccccc3)cc2)CCC1

>  <Name>  (365) 
nan

>  <Pocket>  (365) 
nan

>  <ATP_Site>  (365) 
nan

>  <Peripheral>  (365) 
nan

>  <Num_H_Atoms_ProtBoundConf>  (365) 
nan

>  <Num_Resolved_Atoms>  (365) 
nan

>  <Num_Not_Resolved_Atoms>  (365) 
nan

$$$$
CHEMBL2322135
     RDKit          3D

  0  0  0  0  0  0  0  0  0  0999 V3000
M  V30 BEGIN CTAB
M  V30 COUNTS 34 37 0 0 0
M  V30 BEGIN ATOM
M  V30 1 C -0.903644 -3.275518 3.474001 0
M  V30 2 C -0.905785 -2.397714 2.410902 0
M  V30 3 C 0.015467 -1.437224 2.660177 0
M  V30 4 C 0.592949 -1.719977 3.884337 0
M  V30 5 N 1.555889 -0.904612 4.368242 0
M  V30 6 C 1.962084 0.183076 3.672134 0
M  V30 7 C 1.388035 0.458116 2.462624 0
M  V30 8 N 1.568293 1.432912 1.555624 0
M  V30 9 N 0.753995 1.240057 0.544647 0
M  V30 10 C -0.010517 0.123392 0.730696 0
M  V30 11 C -1.012210 -0.335910 -0.228802 0
M  V30 12 C -0.487354 -1.352176 -1.208227 0
M  V30 13 C 0.702584 -0.837868 -1.985094 0
M  V30 14 C 0.439138 0.470443 -2.652292 0
M  V30 15 C -1.020310 0.790353 -2.493507 0
M  V30 16 C -1.490348 0.855664 -1.067499 0
M  V30 17 C 0.394534 -0.357963 1.933286 0
M  V30 18 N 0.025600 -2.839751 4.368785 0
M  V30 19 H -1.478074 -4.186230 3.695181 0
M  V30 20 H -1.582298 -2.607222 1.626178 0
M  V30 21 H 2.729137 0.870549 4.011418 0
M  V30 22 H 2.227790 2.242571 1.581627 0
M  V30 23 H -1.908899 -0.714752 0.248350 0
M  V30 24 H -0.194457 -2.308300 -0.756131 0
M  V30 25 H -1.293922 -1.568735 -1.930602 0
M  V30 26 H 1.590909 -0.765424 -1.328665 0
M  V30 27 H 0.927736 -1.608032 -2.747696 0
M  V30 28 H 0.625870 0.391015 -3.743777 0
M  V30 29 H 1.045020 1.283219 -2.238573 0
M  V30 30 H -1.159944 1.814081 -2.907537 0
M  V30 31 H -1.623816 0.079935 -3.084824 0
M  V30 32 H -2.596223 0.926051 -1.112032 0
M  V30 33 H -1.158974 1.788526 -0.569454 0
M  V30 34 H 0.280138 -3.276037 5.284745 0
M  V30 END ATOM
M  V30 BEGIN BOND
M  V30 1 2 1 2
M  V30 2 1 2 3
M  V30 3 2 3 4
M  V30 4 1 4 5
M  V30 5 2 5 6
M  V30 6 1 6 7
M  V30 7 1 7 8
M  V30 8 1 8 9
M  V30 9 2 9 10
M  V30 10 1 10 11
M  V30 11 1 11 12
M  V30 12 1 12 13
M  V30 13 1 13 14
M  V30 14 1 14 15
M  V30 15 1 15 16
M  V30 16 1 10 17
M  V30 17 1 4 18
M  V30 18 1 18 1
M  V30 19 1 17 3
M  V30 20 2 17 7
M  V30 21 1 16 11
M  V30 22 1 1 19
M  V30 23 1 2 20
M  V30 24 1 6 21
M  V30 25 1 8 22
M  V30 26 1 11 23
M  V30 27 1 12 24
M  V30 28 1 12 25
M  V30 29 1 13 26
M  V30 30 1 13 27
M  V30 31 1 14 28
M  V30 32 1 14 29
M  V30 33 1 15 30
M  V30 34 1 15 31
M  V30 35 1 16 32
M  V30 36 1 16 33
M  V30 37 1 18 34
M  V30 END BOND
M  V30 END CTAB
M  END
>  <Dataset>  (366) 
ChEMBL_Kinases

>  <Ligand_Instance>  (366) 
nan

>  <PDB_ID>  (366) 
nan

>  <Standardized_SMILES>  (366) 
c1cc2c(ncc3[nH]nc(C4CCCCC4)c32)[nH]1

>  <Name>  (366) 
nan

>  <Pocket>  (366) 
nan

>  <ATP_Site>  (366) 
nan

>  <Peripheral>  (366) 
nan

>  <Num_H_Atoms_ProtBoundConf>  (366) 
nan

>  <Num_Resolved_Atoms>  (366) 
nan

>  <Num_Not_Resolved_Atoms>  (366) 
nan

$$$$
CHEMBL3699719
     RDKit          3D

  0  0  0  0  0  0  0  0  0  0999 V3000
M  V30 BEGIN CTAB
M  V30 COUNTS 56 60 0 0 0
M  V30 BEGIN ATOM
M  V30 1 C 1.570117 -5.040430 2.571879 0
M  V30 2 C 2.809381 -4.427744 3.211455 0
M  V30 3 O 2.863348 -3.052977 2.890210 0
M  V30 4 C 3.855509 -2.188417 3.305406 0
M  V30 5 O 4.782725 -2.620448 4.014590 0
M  V30 6 C 3.778454 -0.775411 2.889868 0
M  V30 7 C 4.747475 0.127647 3.281165 0
M  V30 8 C 4.601706 1.447748 2.845861 0
M  V30 9 C 3.555993 1.883339 2.059032 0
M  V30 10 N 2.655161 0.953321 1.718675 0
M  V30 11 C 1.536001 1.066808 0.967616 0
M  V30 12 C 0.948231 2.216641 0.291516 0
M  V30 13 C 1.486660 2.997007 -0.710657 0
M  V30 14 C 0.766701 4.053153 -1.227599 0
M  V30 15 C -0.494216 4.392147 -0.796786 0
M  V30 16 C -1.049321 3.623708 0.204491 0
M  V30 17 C -0.335466 2.565519 0.726758 0
M  V30 18 C 0.915756 -0.140705 0.879782 0
M  V30 19 C -0.286519 -0.682327 0.244596 0
M  V30 20 C -0.381215 -0.654738 -1.132015 0
M  V30 21 C -1.535904 -1.175934 -1.726289 0
M  V30 22 C -2.564833 -1.706638 -1.003396 0
M  V30 23 C -3.797627 -2.266957 -1.554892 0
M  V30 24 N -4.234066 -3.473228 -0.881069 0
M  V30 25 C -4.933406 -1.250708 -1.725053 0
M  V30 26 C -5.342646 -2.103095 -2.934305 0
M  V30 27 C -3.856369 -2.468266 -3.053720 0
M  V30 28 C -2.458557 -1.728817 0.375158 0
M  V30 29 C -1.324533 -1.219816 1.013095 0
M  V30 30 N 1.686703 -1.006124 1.600672 0
M  V30 31 C 2.730840 -0.326805 2.098455 0
M  V30 32 H 1.859089 -5.674412 1.706823 0
M  V30 33 H 0.858861 -4.251146 2.283390 0
M  V30 34 H 1.037659 -5.715698 3.282432 0
M  V30 35 H 2.764234 -4.573804 4.324206 0
M  V30 36 H 3.731005 -4.967015 2.855719 0
M  V30 37 H 5.552222 -0.207611 3.886839 0
M  V30 38 H 5.354818 2.164876 3.146109 0
M  V30 39 H 3.455705 2.898524 1.731993 0
M  V30 40 H 2.476599 2.691042 -1.013580 0
M  V30 41 H 1.227583 4.638364 -2.012270 0
M  V30 42 H -1.026959 5.228343 -1.227722 0
M  V30 43 H -2.041210 3.876374 0.555761 0
M  V30 44 H -0.854031 2.018238 1.511166 0
M  V30 45 H 0.416080 -0.239834 -1.760161 0
M  V30 46 H -1.620154 -1.159412 -2.800764 0
M  V30 47 H -4.362100 -4.283713 -1.516564 0
M  V30 48 H -3.694031 -3.724840 -0.046394 0
M  V30 49 H -4.528278 -0.266939 -2.057217 0
M  V30 50 H -5.634918 -1.255551 -0.889974 0
M  V30 51 H -5.902394 -2.972307 -2.586544 0
M  V30 52 H -5.724700 -1.533607 -3.797029 0
M  V30 53 H -3.386916 -1.687184 -3.676699 0
M  V30 54 H -3.688544 -3.515424 -3.389960 0
M  V30 55 H -3.179265 -2.111901 1.095178 0
M  V30 56 H -1.162933 -1.198681 2.073608 0
M  V30 END ATOM
M  V30 BEGIN BOND
M  V30 1 1 1 2
M  V30 2 1 2 3
M  V30 3 1 3 4
M  V30 4 2 4 5
M  V30 5 1 4 6
M  V30 6 2 6 7
M  V30 7 1 7 8
M  V30 8 2 8 9
M  V30 9 1 9 10
M  V30 10 1 10 11
M  V30 11 1 11 12
M  V30 12 2 12 13
M  V30 13 1 13 14
M  V30 14 2 14 15
M  V30 15 1 15 16
M  V30 16 2 16 17
M  V30 17 2 11 18
M  V30 18 1 18 19
M  V30 19 2 19 20
M  V30 20 1 20 21
M  V30 21 2 21 22
M  V30 22 1 22 23
M  V30 23 1 23 24
M  V30 24 1 23 25
M  V30 25 1 25 26
M  V30 26 1 26 27
M  V30 27 1 22 28
M  V30 28 2 28 29
M  V30 29 1 18 30
M  V30 30 2 30 31
M  V30 31 1 31 6
M  V30 32 1 31 10
M  V30 33 1 17 12
M  V30 34 1 29 19
M  V30 35 1 27 23
M  V30 36 1 1 32
M  V30 37 1 1 33
M  V30 38 1 1 34
M  V30 39 1 2 35
M  V30 40 1 2 36
M  V30 41 1 7 37
M  V30 42 1 8 38
M  V30 43 1 9 39
M  V30 44 1 13 40
M  V30 45 1 14 41
M  V30 46 1 15 42
M  V30 47 1 16 43
M  V30 48 1 17 44
M  V30 49 1 20 45
M  V30 50 1 21 46
M  V30 51 1 24 47
M  V30 52 1 24 48
M  V30 53 1 25 49
M  V30 54 1 25 50
M  V30 55 1 26 51
M  V30 56 1 26 52
M  V30 57 1 27 53
M  V30 58 1 27 54
M  V30 59 1 28 55
M  V30 60 1 29 56
M  V30 END BOND
M  V30 END CTAB
M  END
>  <Dataset>  (367) 
ChEMBL_Kinases

>  <Ligand_Instance>  (367) 
nan

>  <PDB_ID>  (367) 
nan

>  <Standardized_SMILES>  (367) 
CCOC(=O)c1cccn2c(-c3ccccc3)c(-c3ccc(C4(N)CCC4)cc3)nc12

>  <Name>  (367) 
nan

>  <Pocket>  (367) 
nan

>  <ATP_Site>  (367) 
nan

>  <Peripheral>  (367) 
nan

>  <Num_H_Atoms_ProtBoundConf>  (367) 
nan

>  <Num_Resolved_Atoms>  (367) 
nan

>  <Num_Not_Resolved_Atoms>  (367) 
nan

$$$$
CHEMBL3702222
     RDKit          3D

  0  0  0  0  0  0  0  0  0  0999 V3000
M  V30 BEGIN CTAB
M  V30 COUNTS 55 59 0 0 0
M  V30 BEGIN ATOM
M  V30 1 C 2.902770 -2.622507 4.119189 0
M  V30 2 C 3.209510 -1.272119 3.491306 0
M  V30 3 C 2.594547 -1.178019 2.107315 0 CFG=1
M  V30 4 C 1.100366 -1.348626 2.300353 0
M  V30 5 N 2.919778 0.050391 1.453362 0
M  V30 6 C 4.120867 0.450383 1.018557 0
M  V30 7 C 5.389784 -0.088615 1.029315 0
M  V30 8 N 6.469544 0.507460 0.522213 0
M  V30 9 C 6.374285 1.704822 -0.044599 0
M  V30 10 C 5.135565 2.345460 -0.111611 0
M  V30 11 C 4.025492 1.699730 0.425933 0
M  V30 12 C 2.710194 2.097193 0.493042 0
M  V30 13 C 2.038658 3.216767 0.072962 0
M  V30 14 N 0.698535 3.327834 0.280469 0
M  V30 15 C 0.059737 2.307992 0.908273 0
M  V30 16 N -1.322375 2.195916 1.216810 0
M  V30 17 C -2.093132 1.183098 0.539715 0
M  V30 18 C -3.463936 1.035387 0.790881 0
M  V30 19 C -4.109956 0.030331 0.116835 0
M  V30 20 C -3.511262 -0.827704 -0.774596 0
M  V30 21 N -4.226597 -1.853240 -1.433996 0
M  V30 22 C -5.642268 -2.142393 -1.395521 0
M  V30 23 C -5.809945 -3.536779 -1.947928 0
M  V30 24 C -4.408653 -4.090706 -1.779773 0 CFG=1
M  V30 25 O -4.154611 -5.234205 -2.482369 0
M  V30 26 C -3.629575 -2.867819 -2.304875 0
M  V30 27 C -2.162948 -0.641534 -0.988204 0
M  V30 28 N -1.531012 0.340862 -0.329501 0
M  V30 29 N 0.735503 1.219627 1.312177 0
M  V30 30 C 2.058528 1.058716 1.131553 0
M  V30 31 H 2.640151 -3.361024 3.339585 0
M  V30 32 H 3.770836 -2.970509 4.729452 0
M  V30 33 H 2.022039 -2.567459 4.817718 0
M  V30 34 H 2.752473 -0.500100 4.164543 0
M  V30 35 H 4.295037 -1.088563 3.512795 0
M  V30 36 H 2.913181 -2.048912 1.492220 0
M  V30 37 H 0.963868 -2.273951 2.924599 0
M  V30 38 H 0.549116 -1.528387 1.371070 0
M  V30 39 H 0.660999 -0.533522 2.918114 0
M  V30 40 H 5.539235 -1.059266 1.473593 0
M  V30 41 H 7.252770 2.188681 -0.455282 0
M  V30 42 H 5.049779 3.337557 -0.580285 0
M  V30 43 H 2.541297 4.032156 -0.427060 0
M  V30 44 H -1.833908 2.799044 1.903037 0
M  V30 45 H -3.962500 1.698125 1.489073 0
M  V30 46 H -5.181323 -0.093036 0.306796 0
M  V30 47 H -6.241203 -1.394662 -1.956021 0
M  V30 48 H -5.980210 -2.207155 -0.320041 0
M  V30 49 H -6.585741 -4.120236 -1.413008 0
M  V30 50 H -6.010079 -3.470770 -3.038047 0
M  V30 51 H -4.131951 -4.146375 -0.695562 0
M  V30 52 H -3.414647 -5.726181 -2.001374 0
M  V30 53 H -3.993426 -2.708883 -3.327751 0
M  V30 54 H -2.558459 -2.992652 -2.177039 0
M  V30 55 H -1.589649 -1.272555 -1.681169 0
M  V30 END ATOM
M  V30 BEGIN BOND
M  V30 1 1 1 2
M  V30 2 1 2 3
M  V30 3 1 3 4
M  V30 4 1 3 5
M  V30 5 1 5 6
M  V30 6 2 6 7
M  V30 7 1 7 8
M  V30 8 2 8 9
M  V30 9 1 9 10
M  V30 10 2 10 11
M  V30 11 1 11 12
M  V30 12 2 12 13
M  V30 13 1 13 14
M  V30 14 2 14 15
M  V30 15 1 15 16
M  V30 16 1 16 17
M  V30 17 2 17 18
M  V30 18 1 18 19
M  V30 19 2 19 20
M  V30 20 1 20 21
M  V30 21 1 21 22
M  V30 22 1 22 23
M  V30 23 1 23 24
M  V30 24 1 24 25
M  V30 25 1 24 26
M  V30 26 1 20 27
M  V30 27 2 27 28
M  V30 28 1 15 29
M  V30 29 2 29 30
M  V30 30 1 30 5
M  V30 31 1 11 6
M  V30 32 1 30 12
M  V30 33 1 28 17
M  V30 34 1 26 21
M  V30 35 1 1 31
M  V30 36 1 1 32
M  V30 37 1 1 33
M  V30 38 1 2 34
M  V30 39 1 2 35
M  V30 40 1 3 36 CFG=3
M  V30 41 1 4 37
M  V30 42 1 4 38
M  V30 43 1 4 39
M  V30 44 1 7 40
M  V30 45 1 9 41
M  V30 46 1 10 42
M  V30 47 1 13 43
M  V30 48 1 16 44
M  V30 49 1 18 45
M  V30 50 1 19 46
M  V30 51 1 22 47
M  V30 52 1 22 48
M  V30 53 1 23 49
M  V30 54 1 23 50
M  V30 55 1 24 51 CFG=1
M  V30 56 1 25 52
M  V30 57 1 26 53
M  V30 58 1 26 54
M  V30 59 1 27 55
M  V30 END BOND
M  V30 END CTAB
M  END
>  <Dataset>  (368) 
ChEMBL_Kinases

>  <Ligand_Instance>  (368) 
nan

>  <PDB_ID>  (368) 
nan

>  <Standardized_SMILES>  (368) 
CC[C@@H](C)n1c2cnccc2c2cnc(Nc3ccc(N4CC[C@@H](O)C4)cn3)nc21

>  <Name>  (368) 
nan

>  <Pocket>  (368) 
nan

>  <ATP_Site>  (368) 
nan

>  <Peripheral>  (368) 
nan

>  <Num_H_Atoms_ProtBoundConf>  (368) 
nan

>  <Num_Resolved_Atoms>  (368) 
nan

>  <Num_Not_Resolved_Atoms>  (368) 
nan

$$$$
CHEMBL3702223
     RDKit          3D

  0  0  0  0  0  0  0  0  0  0999 V3000
M  V30 BEGIN CTAB
M  V30 COUNTS 55 59 0 0 0
M  V30 BEGIN ATOM
M  V30 1 C 3.265465 -1.961575 4.585946 0
M  V30 2 C 3.345611 -0.659084 3.814143 0
M  V30 3 C 2.908069 -0.845861 2.379045 0 CFG=1
M  V30 4 C 1.478309 -1.336828 2.389312 0
M  V30 5 N 3.083352 0.346025 1.613778 0
M  V30 6 C 4.270748 0.862620 1.232638 0
M  V30 7 C 5.606955 0.532620 1.376931 0
M  V30 8 N 6.546575 1.322435 0.830922 0
M  V30 9 C 6.269383 2.423349 0.146164 0
M  V30 10 C 4.956800 2.840445 -0.054873 0
M  V30 11 C 3.991720 2.009676 0.518718 0
M  V30 12 C 2.610000 2.214595 0.451067 0
M  V30 13 C 1.765220 3.148410 -0.107919 0
M  V30 14 N 0.448870 3.002382 0.037637 0
M  V30 15 C -0.064467 1.948587 0.727507 0
M  V30 16 N -1.483485 2.086099 0.683305 0
M  V30 17 C -2.298121 1.024331 0.252696 0
M  V30 18 C -3.675155 1.072292 0.124318 0
M  V30 19 C -4.404463 -0.011302 -0.305531 0
M  V30 20 C -3.781564 -1.196695 -0.625364 0
M  V30 21 N -4.350962 -2.414055 -1.107262 0
M  V30 22 C -3.650824 -3.681360 -0.915150 0
M  V30 23 C -3.412693 -4.374391 -2.238302 0
M  V30 24 N -4.624929 -4.474228 -3.020351 0
M  V30 25 C -5.773549 -3.921920 -2.343350 0
M  V30 26 C -5.591382 -2.541307 -1.813186 0
M  V30 27 N -2.423337 -1.211941 -0.487062 0
M  V30 28 N -1.751353 -0.156511 -0.073765 0
M  V30 29 N 0.769204 1.063453 1.257305 0
M  V30 30 C 2.103944 1.142191 1.153348 0
M  V30 31 H 3.237553 -2.791728 3.843947 0
M  V30 32 H 4.145946 -2.112268 5.247066 0
M  V30 33 H 2.342142 -2.029382 5.184843 0
M  V30 34 H 2.695014 0.077467 4.323798 0
M  V30 35 H 4.413736 -0.302125 3.868813 0
M  V30 36 H 3.543166 -1.637170 1.918660 0
M  V30 37 H 1.516878 -2.383248 2.753720 0
M  V30 38 H 1.031947 -1.386441 1.376848 0
M  V30 39 H 0.856824 -0.771358 3.104217 0
M  V30 40 H 5.817661 -0.373658 1.936527 0
M  V30 41 H 7.094989 3.008409 -0.263533 0
M  V30 42 H 4.712258 3.731264 -0.606915 0
M  V30 43 H 2.268774 3.966136 -0.646663 0
M  V30 44 H -1.986769 2.949386 0.962466 0
M  V30 45 H -4.176950 1.995177 0.373148 0
M  V30 46 H -5.472458 -0.025793 -0.424795 0
M  V30 47 H -2.672472 -3.439847 -0.459512 0
M  V30 48 H -4.257132 -4.276598 -0.201289 0
M  V30 49 H -2.566739 -3.903141 -2.764582 0
M  V30 50 H -3.089468 -5.406253 -1.989863 0
M  V30 51 H -4.800999 -5.449451 -3.311161 0
M  V30 52 H -6.588059 -3.864191 -3.125793 0
M  V30 53 H -6.128865 -4.633582 -1.588504 0
M  V30 54 H -5.635188 -1.829088 -2.688141 0
M  V30 55 H -6.490649 -2.305909 -1.198718 0
M  V30 END ATOM
M  V30 BEGIN BOND
M  V30 1 1 1 2
M  V30 2 1 2 3
M  V30 3 1 3 4
M  V30 4 1 3 5
M  V30 5 1 5 6
M  V30 6 2 6 7
M  V30 7 1 7 8
M  V30 8 2 8 9
M  V30 9 1 9 10
M  V30 10 2 10 11
M  V30 11 1 11 12
M  V30 12 2 12 13
M  V30 13 1 13 14
M  V30 14 2 14 15
M  V30 15 1 15 16
M  V30 16 1 16 17
M  V30 17 2 17 18
M  V30 18 1 18 19
M  V30 19 2 19 20
M  V30 20 1 20 21
M  V30 21 1 21 22
M  V30 22 1 22 23
M  V30 23 1 23 24
M  V30 24 1 24 25
M  V30 25 1 25 26
M  V30 26 1 20 27
M  V30 27 2 27 28
M  V30 28 1 15 29
M  V30 29 2 29 30
M  V30 30 1 30 5
M  V30 31 1 11 6
M  V30 32 1 30 12
M  V30 33 1 28 17
M  V30 34 1 26 21
M  V30 35 1 1 31
M  V30 36 1 1 32
M  V30 37 1 1 33
M  V30 38 1 2 34
M  V30 39 1 2 35
M  V30 40 1 3 36 CFG=3
M  V30 41 1 4 37
M  V30 42 1 4 38
M  V30 43 1 4 39
M  V30 44 1 7 40
M  V30 45 1 9 41
M  V30 46 1 10 42
M  V30 47 1 13 43
M  V30 48 1 16 44
M  V30 49 1 18 45
M  V30 50 1 19 46
M  V30 51 1 22 47
M  V30 52 1 22 48
M  V30 53 1 23 49
M  V30 54 1 23 50
M  V30 55 1 24 51
M  V30 56 1 25 52
M  V30 57 1 25 53
M  V30 58 1 26 54
M  V30 59 1 26 55
M  V30 END BOND
M  V30 END CTAB
M  END
>  <Dataset>  (369) 
ChEMBL_Kinases

>  <Ligand_Instance>  (369) 
nan

>  <PDB_ID>  (369) 
nan

>  <Standardized_SMILES>  (369) 
CC[C@@H](C)n1c2cnccc2c2cnc(Nc3ccc(N4CCNCC4)nn3)nc21

>  <Name>  (369) 
nan

>  <Pocket>  (369) 
nan

>  <ATP_Site>  (369) 
nan

>  <Peripheral>  (369) 
nan

>  <Num_H_Atoms_ProtBoundConf>  (369) 
nan

>  <Num_Resolved_Atoms>  (369) 
nan

>  <Num_Not_Resolved_Atoms>  (369) 
nan

$$$$
CHEMBL2321963
     RDKit          3D

  0  0  0  0  0  0  0  0  0  0999 V3000
M  V30 BEGIN CTAB
M  V30 COUNTS 38 41 0 0 0
M  V30 BEGIN ATOM
M  V30 1 O -0.583543 2.718658 0.906785 0
M  V30 2 C 0.494953 2.116913 0.948079 0
M  V30 3 N 1.741362 2.775778 1.122437 0
M  V30 4 C 2.727957 1.721830 1.113129 0
M  V30 5 C 2.146675 0.490425 0.945402 0
M  V30 6 C 3.031925 -0.517244 0.931254 0
M  V30 7 C 4.388748 -0.396354 1.065292 0
M  V30 8 C 4.943629 0.878825 1.234727 0
M  V30 9 C 4.093000 1.961991 1.259065 0
M  V30 10 C 4.677623 3.313488 1.438335 0
M  V30 11 F 6.029637 3.257702 1.555411 0
M  V30 12 F 4.364727 4.015161 0.272355 0
M  V30 13 F 4.091938 3.982346 2.511264 0
M  V30 14 C 0.734395 0.688761 0.836196 0
M  V30 15 C -0.135536 -0.252565 0.669493 0
M  V30 16 N -1.530381 -0.017116 0.565343 0
M  V30 17 C -2.275309 -1.217772 0.385702 0
M  V30 18 C -3.634856 -1.409880 0.244767 0
M  V30 19 C -4.044582 -2.714926 0.085684 0
M  V30 20 C -5.472264 -2.962436 -0.066597 0
M  V30 21 O -6.037303 -4.079850 -0.222188 0
M  V30 22 O -6.406754 -1.937240 -0.055267 0
M  V30 23 C -3.164402 -3.774169 0.066257 0
M  V30 24 C -1.820991 -3.512268 0.212259 0
M  V30 25 C -1.314652 -2.217209 0.379147 0
M  V30 26 C 0.013412 -1.672147 0.550235 0
M  V30 27 N 0.989301 -2.406003 0.569895 0
M  V30 28 O 0.984585 -3.750306 0.443775 0
M  V30 29 H 1.862126 3.813303 1.230375 0
M  V30 30 H 2.836497 -1.532471 0.818639 0
M  V30 31 H 5.163768 -1.165537 1.063474 0
M  V30 32 H 6.000534 1.059162 1.347193 0
M  V30 33 H -1.982086 0.916208 0.611752 0
M  V30 34 H -4.330576 -0.582570 0.259192 0
M  V30 35 H -7.266410 -1.954490 -0.624917 0
M  V30 36 H -3.562973 -4.767984 -0.062718 0
M  V30 37 H -1.207212 -4.377098 0.186914 0
M  V30 38 H 0.927760 -4.314052 1.284040 0
M  V30 END ATOM
M  V30 BEGIN BOND
M  V30 1 2 1 2
M  V30 2 1 2 3
M  V30 3 1 3 4
M  V30 4 2 4 5
M  V30 5 1 5 6
M  V30 6 2 6 7
M  V30 7 1 7 8
M  V30 8 2 8 9
M  V30 9 1 9 10
M  V30 10 1 10 11
M  V30 11 1 10 12
M  V30 12 1 10 13
M  V30 13 1 5 14
M  V30 14 2 14 15
M  V30 15 1 15 16
M  V30 16 1 16 17
M  V30 17 2 17 18
M  V30 18 1 18 19
M  V30 19 1 19 20
M  V30 20 2 20 21
M  V30 21 1 20 22
M  V30 22 2 19 23
M  V30 23 1 23 24
M  V30 24 2 24 25
M  V30 25 1 25 26
M  V30 26 2 26 27
M  V30 27 1 27 28
M  V30 28 1 14 2
M  V30 29 1 26 15
M  V30 30 1 9 4
M  V30 31 1 25 17
M  V30 32 1 3 29
M  V30 33 1 6 30
M  V30 34 1 7 31
M  V30 35 1 8 32
M  V30 36 1 16 33
M  V30 37 1 18 34
M  V30 38 1 22 35
M  V30 39 1 23 36
M  V30 40 1 24 37
M  V30 41 1 28 38
M  V30 END BOND
M  V30 END CTAB
M  END
>  <Dataset>  (370) 
ChEMBL_Kinases

>  <Ligand_Instance>  (370) 
nan

>  <PDB_ID>  (370) 
nan

>  <Standardized_SMILES>  (370) 
O=C1Nc2c(cccc2C(F)(F)F)/C1=C1/Nc2cc(C(=O)O)ccc2/C1=N\O

>  <Name>  (370) 
nan

>  <Pocket>  (370) 
nan

>  <ATP_Site>  (370) 
nan

>  <Peripheral>  (370) 
nan

>  <Num_H_Atoms_ProtBoundConf>  (370) 
nan

>  <Num_Resolved_Atoms>  (370) 
nan

>  <Num_Not_Resolved_Atoms>  (370) 
nan

$$$$
CHEMBL4564126
     RDKit          3D

  0  0  0  0  0  0  0  0  0  0999 V3000
M  V30 BEGIN CTAB
M  V30 COUNTS 44 47 0 0 0
M  V30 BEGIN ATOM
M  V30 1 C 0.825416 -2.395783 2.971154 0
M  V30 2 C 1.540952 -1.613432 1.930049 0
M  V30 3 C 2.914407 -1.694413 1.827690 0
M  V30 4 N 3.633925 -1.018483 0.913499 0
M  V30 5 C 3.062420 -0.196473 0.011713 0
M  V30 6 C 3.841347 0.536576 -0.979520 0
M  V30 7 C 3.325706 1.388092 -1.924750 0
M  V30 8 C 4.175068 2.023316 -2.808969 0
M  V30 9 Cl 3.408553 3.093567 -3.979784 0
M  V30 10 C 5.544612 1.854497 -2.805490 0
M  V30 11 C 6.075864 0.988030 -1.844620 0
M  V30 12 C 5.209510 0.363721 -0.971008 0
M  V30 13 F 5.800384 -0.469553 -0.058557 0
M  V30 14 C 1.689018 -0.111153 0.108865 0
M  V30 15 C 0.914152 -0.782302 1.025366 0
M  V30 16 N -0.503309 -0.655215 1.078903 0
M  V30 17 C -1.239295 0.404592 1.381800 0
M  V30 18 O -0.725693 1.510748 1.681343 0
M  V30 19 N -2.557740 0.150396 1.328507 0
M  V30 20 C -3.663843 1.027606 1.585648 0
M  V30 21 C -4.038942 0.969105 3.012236 0
M  V30 22 N -3.544198 0.245283 4.144038 0
M  V30 23 O -5.003890 1.738234 3.222371 0
M  V30 24 C -2.686757 -1.152443 0.969541 0
M  V30 25 C -3.792223 -1.942213 0.765244 0
M  V30 26 N -3.623740 -3.222156 0.408769 0
M  V30 27 C -2.399526 -3.771297 0.240908 0
M  V30 28 C -1.299035 -2.969026 0.448727 0
M  V30 29 C -1.403052 -1.642677 0.817215 0
M  V30 30 H 1.244894 -2.111239 3.980584 0
M  V30 31 H -0.234029 -2.103040 3.021131 0
M  V30 32 H 0.918810 -3.492250 2.839133 0
M  V30 33 H 3.525564 -2.320156 2.488585 0
M  V30 34 H 2.254662 1.533514 -1.943533 0
M  V30 35 H 6.189569 2.364510 -3.510049 0
M  V30 36 H 7.142791 0.843560 -1.826400 0
M  V30 37 H 1.139013 0.523848 -0.572007 0
M  V30 38 H -3.366487 2.055879 1.292699 0
M  V30 39 H -4.554323 0.751100 0.972742 0
M  V30 40 H -3.965754 -0.630123 3.715053 0
M  V30 41 H -3.056901 0.956589 4.747785 0
M  V30 42 H -4.812619 -1.582584 0.878010 0
M  V30 43 H -2.241245 -4.788699 -0.042763 0
M  V30 44 H -0.266151 -3.328870 0.335734 0
M  V30 END ATOM
M  V30 BEGIN BOND
M  V30 1 1 1 2
M  V30 2 2 2 3
M  V30 3 1 3 4
M  V30 4 2 4 5
M  V30 5 1 5 6
M  V30 6 2 6 7
M  V30 7 1 7 8
M  V30 8 1 8 9
M  V30 9 2 8 10
M  V30 10 1 10 11
M  V30 11 2 11 12
M  V30 12 1 12 13
M  V30 13 1 5 14
M  V30 14 2 14 15
M  V30 15 1 15 16
M  V30 16 1 16 17
M  V30 17 2 17 18
M  V30 18 1 17 19
M  V30 19 1 19 20
M  V30 20 1 20 21
M  V30 21 1 21 22
M  V30 22 2 21 23
M  V30 23 1 19 24
M  V30 24 2 24 25
M  V30 25 1 25 26
M  V30 26 2 26 27
M  V30 27 1 27 28
M  V30 28 2 28 29
M  V30 29 1 15 2
M  V30 30 1 29 16
M  V30 31 1 12 6
M  V30 32 1 29 24
M  V30 33 1 1 30
M  V30 34 1 1 31
M  V30 35 1 1 32
M  V30 36 1 3 33
M  V30 37 1 7 34
M  V30 38 1 10 35
M  V30 39 1 11 36
M  V30 40 1 14 37
M  V30 41 1 20 38
M  V30 42 1 20 39
M  V30 43 1 22 40
M  V30 44 1 22 41
M  V30 45 1 25 42
M  V30 46 1 27 43
M  V30 47 1 28 44
M  V30 END BOND
M  V30 END CTAB
M  END
>  <Dataset>  (371) 
ChEMBL_Kinases

>  <Ligand_Instance>  (371) 
nan

>  <PDB_ID>  (371) 
nan

>  <Standardized_SMILES>  (371) 
Cc1cnc(-c2cc(Cl)ccc2F)cc1-n1c(=O)n(CC(N)=O)c2cnccc21

>  <Name>  (371) 
TP-008

>  <Pocket>  (371) 
nan

>  <ATP_Site>  (371) 
nan

>  <Peripheral>  (371) 
nan

>  <Num_H_Atoms_ProtBoundConf>  (371) 
nan

>  <Num_Resolved_Atoms>  (371) 
nan

>  <Num_Not_Resolved_Atoms>  (371) 
nan

$$$$
CHEMBL3699716
     RDKit          3D

  0  0  0  0  0  0  0  0  0  0999 V3000
M  V30 BEGIN CTAB
M  V30 COUNTS 47 51 0 0 0
M  V30 BEGIN ATOM
M  V30 1 N 1.233951 -4.810997 2.796663 0
M  V30 2 C 0.129301 -4.472360 1.921472 0
M  V30 3 C 0.389825 -3.246420 1.136122 0
M  V30 4 C 0.233891 -3.003677 -0.210431 0
M  V30 5 C 0.535942 -1.776905 -0.750808 0
M  V30 6 C 1.003415 -0.775459 0.078613 0
M  V30 7 C 1.323867 0.531145 -0.484157 0
M  V30 8 N 2.171292 1.010040 -1.410786 0
M  V30 9 C 2.012542 2.359942 -1.510834 0
M  V30 10 C 2.649151 3.291178 -2.315097 0
M  V30 11 Br 4.000430 2.757154 -3.546795 0
M  V30 12 C 2.246985 4.601159 -2.166875 0
M  V30 13 C 1.275694 5.042629 -1.292730 0
M  V30 14 C 0.690019 4.045197 -0.526205 0
M  V30 15 N 1.049405 2.745865 -0.634293 0
M  V30 16 C 0.607821 1.625898 0.013830 0
M  V30 17 C -0.450476 1.700799 1.046036 0
M  V30 18 C -1.608560 1.002258 0.778650 0
M  V30 19 C -2.606348 1.060054 1.726768 0
M  V30 20 C -2.448713 1.791153 2.899310 0
M  V30 21 C -1.252767 2.482443 3.121376 0
M  V30 22 C -0.230616 2.453597 2.204662 0
M  V30 23 C 1.179202 -0.966634 1.443544 0
M  V30 24 C 0.861947 -2.228113 1.960472 0
M  V30 25 C -0.373870 -5.662899 1.135421 0
M  V30 26 C -1.806090 -5.217212 1.443469 0
M  V30 27 C -1.207570 -4.473139 2.639245 0
M  V30 28 H 2.132052 -4.730581 2.287350 0
M  V30 29 H 1.214089 -4.318811 3.715176 0
M  V30 30 H -0.131794 -3.848212 -0.745099 0
M  V30 31 H 0.389583 -1.659182 -1.810352 0
M  V30 32 H 2.724176 5.378041 -2.784748 0
M  V30 33 H 0.982608 6.075005 -1.198768 0
M  V30 34 H -0.082395 4.378157 0.172234 0
M  V30 35 H -1.724783 0.437788 -0.131612 0
M  V30 36 H -3.539631 0.515718 1.544255 0
M  V30 37 H -3.219296 1.846372 3.650505 0
M  V30 38 H -1.087880 3.066835 4.025598 0
M  V30 39 H 0.719556 2.965221 2.314003 0
M  V30 40 H 1.547269 -0.150560 2.042428 0
M  V30 41 H 1.033837 -2.275376 3.034992 0
M  V30 42 H -0.198237 -6.605032 1.721179 0
M  V30 43 H -0.126214 -5.711525 0.074568 0
M  V30 44 H -2.486114 -6.022370 1.753976 0
M  V30 45 H -2.262411 -4.570190 0.674774 0
M  V30 46 H -1.204607 -5.093332 3.551666 0
M  V30 47 H -1.699388 -3.488932 2.732829 0
M  V30 END ATOM
M  V30 BEGIN BOND
M  V30 1 1 1 2
M  V30 2 1 2 3
M  V30 3 2 3 4
M  V30 4 1 4 5
M  V30 5 2 5 6
M  V30 6 1 6 7
M  V30 7 1 7 8
M  V30 8 2 8 9
M  V30 9 1 9 10
M  V30 10 1 10 11
M  V30 11 2 10 12
M  V30 12 1 12 13
M  V30 13 2 13 14
M  V30 14 1 14 15
M  V30 15 1 15 16
M  V30 16 1 16 17
M  V30 17 2 17 18
M  V30 18 1 18 19
M  V30 19 2 19 20
M  V30 20 1 20 21
M  V30 21 2 21 22
M  V30 22 1 6 23
M  V30 23 2 23 24
M  V30 24 1 2 25
M  V30 25 1 25 26
M  V30 26 1 26 27
M  V30 27 1 27 2
M  V30 28 1 24 3
M  V30 29 2 16 7
M  V30 30 1 22 17
M  V30 31 1 15 9
M  V30 32 1 1 28
M  V30 33 1 1 29
M  V30 34 1 4 30
M  V30 35 1 5 31
M  V30 36 1 12 32
M  V30 37 1 13 33
M  V30 38 1 14 34
M  V30 39 1 18 35
M  V30 40 1 19 36
M  V30 41 1 20 37
M  V30 42 1 21 38
M  V30 43 1 22 39
M  V30 44 1 23 40
M  V30 45 1 24 41
M  V30 46 1 25 42
M  V30 47 1 25 43
M  V30 48 1 26 44
M  V30 49 1 26 45
M  V30 50 1 27 46
M  V30 51 1 27 47
M  V30 END BOND
M  V30 END CTAB
M  END
>  <Dataset>  (372) 
ChEMBL_Kinases

>  <Ligand_Instance>  (372) 
nan

>  <PDB_ID>  (372) 
nan

>  <Standardized_SMILES>  (372) 
NC1(c2ccc(-c3nc4c(Br)cccn4c3-c3ccccc3)cc2)CCC1

>  <Name>  (372) 
nan

>  <Pocket>  (372) 
nan

>  <ATP_Site>  (372) 
nan

>  <Peripheral>  (372) 
nan

>  <Num_H_Atoms_ProtBoundConf>  (372) 
nan

>  <Num_Resolved_Atoms>  (372) 
nan

>  <Num_Not_Resolved_Atoms>  (372) 
nan

$$$$
CHEMBL4526491
     RDKit          3D

  0  0  0  0  0  0  0  0  0  0999 V3000
M  V30 BEGIN CTAB
M  V30 COUNTS 57 60 0 0 0
M  V30 BEGIN ATOM
M  V30 1 C 8.885343 -1.128189 2.068745 0
M  V30 2 N 7.593807 -1.742117 1.804682 0
M  V30 3 C 7.375431 -3.175640 2.016233 0
M  V30 4 C 6.525924 -0.928784 1.331536 0
M  V30 5 C 6.757101 0.425026 1.135404 0
M  V30 6 C 5.717403 1.240071 0.672088 0
M  V30 7 C 4.514979 0.620539 0.441588 0
M  V30 8 C 3.508047 1.554056 -0.036594 0
M  V30 9 O 3.737869 2.789067 -0.244674 0
M  V30 10 N 2.187395 1.475140 -0.377895 0
M  V30 11 C 0.843250 1.492033 -0.746552 0
M  V30 12 C -0.104701 1.774161 0.251090 0
M  V30 13 C -1.462795 1.858432 -0.075749 0
M  V30 14 C -1.706211 1.640664 -1.410739 0
M  V30 15 N -3.095710 1.726782 -1.762674 0
M  V30 16 C -3.847703 0.504633 -1.681556 0
M  V30 17 O -3.028811 -0.395318 -1.292837 0
M  V30 18 C -5.296536 0.663145 -2.062070 0
M  V30 19 O -5.937988 -0.567012 -1.950828 0
M  V30 20 C -6.070644 -1.328509 -0.811784 0
M  V30 21 C -5.577870 -0.978711 0.421084 0
M  V30 22 C -5.699530 -1.723016 1.574427 0
M  V30 23 C -6.374665 -2.923313 1.481707 0
M  V30 24 C -6.504974 -3.677193 2.622605 0
M  V30 25 O -6.013700 -3.257884 3.698265 0
M  V30 26 C -7.173673 -4.867535 2.537001 0
M  V30 27 C -7.673497 -5.226584 1.295680 0
M  V30 28 O -7.535822 -4.490727 0.222424 0
M  V30 29 C -6.892544 -3.326127 0.261860 0
M  V30 30 C -6.740827 -2.530679 -0.881339 0
M  V30 31 C -0.851896 1.359594 -2.453639 0
M  V30 32 C 0.480741 1.288389 -2.066859 0
M  V30 33 C 4.228801 -0.712038 0.617906 0
M  V30 34 C 5.279193 -1.517326 1.081822 0
M  V30 35 H 9.555813 -1.917122 2.521559 0
M  V30 36 H 9.287687 -0.769499 1.115972 0
M  V30 37 H 8.692001 -0.337128 2.814359 0
M  V30 38 H 8.215869 -3.641843 2.531602 0
M  V30 39 H 7.312996 -3.688615 1.019152 0
M  V30 40 H 6.438760 -3.379282 2.558489 0
M  V30 41 H 7.722855 0.862221 1.331522 0
M  V30 42 H 5.912619 2.291858 0.524842 0
M  V30 43 H 2.074165 0.399993 -0.177728 0
M  V30 44 H 0.192854 1.929744 1.278470 0
M  V30 45 H -2.241305 2.070831 0.638661 0
M  V30 46 H -3.486993 2.668578 -2.058897 0
M  V30 47 H -5.683171 1.430682 -1.358137 0
M  V30 48 H -5.358748 1.023755 -3.089353 0
M  V30 49 H -5.041242 -0.040269 0.533977 0
M  V30 50 H -5.287495 -1.399551 2.528104 0
M  V30 51 H -7.274909 -5.456379 3.440985 0
M  V30 52 H -8.199243 -6.188027 1.291058 0
M  V30 53 H -7.151111 -2.871679 -1.801122 0
M  V30 54 H -1.219316 1.215220 -3.457638 0
M  V30 55 H 1.219282 1.072000 -2.820253 0
M  V30 56 H 3.253775 -1.132978 0.414801 0
M  V30 57 H 5.081681 -2.571292 1.230309 0
M  V30 END ATOM
M  V30 BEGIN BOND
M  V30 1 1 1 2
M  V30 2 1 2 3
M  V30 3 1 2 4
M  V30 4 2 4 5
M  V30 5 1 5 6
M  V30 6 2 6 7
M  V30 7 1 7 8
M  V30 8 2 8 9
M  V30 9 1 8 10
M  V30 10 1 10 11
M  V30 11 2 11 12
M  V30 12 1 12 13
M  V30 13 2 13 14
M  V30 14 1 14 15
M  V30 15 1 15 16
M  V30 16 2 16 17
M  V30 17 1 16 18
M  V30 18 1 18 19
M  V30 19 1 19 20
M  V30 20 2 20 21
M  V30 21 1 21 22
M  V30 22 2 22 23
M  V30 23 1 23 24
M  V30 24 2 24 25
M  V30 25 1 24 26
M  V30 26 2 26 27
M  V30 27 1 27 28
M  V30 28 1 28 29
M  V30 29 2 29 30
M  V30 30 1 14 31
M  V30 31 2 31 32
M  V30 32 1 7 33
M  V30 33 2 33 34
M  V30 34 1 34 4
M  V30 35 1 32 11
M  V30 36 1 30 20
M  V30 37 1 29 23
M  V30 38 1 1 35
M  V30 39 1 1 36
M  V30 40 1 1 37
M  V30 41 1 3 38
M  V30 42 1 3 39
M  V30 43 1 3 40
M  V30 44 1 5 41
M  V30 45 1 6 42
M  V30 46 1 10 43
M  V30 47 1 12 44
M  V30 48 1 13 45
M  V30 49 1 15 46
M  V30 50 1 18 47
M  V30 51 1 18 48
M  V30 52 1 21 49
M  V30 53 1 22 50
M  V30 54 1 26 51
M  V30 55 1 27 52
M  V30 56 1 30 53
M  V30 57 1 31 54
M  V30 58 1 32 55
M  V30 59 1 33 56
M  V30 60 1 34 57
M  V30 END BOND
M  V30 END CTAB
M  END
>  <Dataset>  (373) 
ChEMBL_Kinases

>  <Ligand_Instance>  (373) 
nan

>  <PDB_ID>  (373) 
nan

>  <Standardized_SMILES>  (373) 
CN(C)c1ccc(C(=O)Nc2ccc(NC(=O)COc3ccc4c(=O)ccoc4c3)cc2)cc1

>  <Name>  (373) 
nan

>  <Pocket>  (373) 
nan

>  <ATP_Site>  (373) 
nan

>  <Peripheral>  (373) 
nan

>  <Num_H_Atoms_ProtBoundConf>  (373) 
nan

>  <Num_Resolved_Atoms>  (373) 
nan

>  <Num_Not_Resolved_Atoms>  (373) 
nan

$$$$
CHEMBL3699715
     RDKit          3D

  0  0  0  0  0  0  0  0  0  0999 V3000
M  V30 BEGIN CTAB
M  V30 COUNTS 53 57 0 0 0
M  V30 BEGIN ATOM
M  V30 1 C -1.307972 -6.324929 4.813255 0
M  V30 2 C -0.088115 -6.272038 3.917334 0
M  V30 3 C 0.301539 -4.882870 3.553968 0
M  V30 4 C 1.188561 -4.202551 4.365255 0
M  V30 5 C 1.596051 -2.912708 4.092643 0
M  V30 6 C 1.067515 -2.328415 2.955864 0
M  V30 7 N 1.260107 -1.097905 2.417234 0
M  V30 8 C 0.498194 -1.032826 1.291482 0
M  V30 9 C 0.564177 0.228232 0.550223 0
M  V30 10 C 1.792626 0.667305 0.040056 0
M  V30 11 C 1.910495 1.851442 -0.669065 0
M  V30 12 C 0.769282 2.611963 -0.870524 0
M  V30 13 C 0.928919 3.865643 -1.627708 0
M  V30 14 N 1.914084 3.689714 -2.680763 0
M  V30 15 C 1.230340 5.032606 -0.710089 0
M  V30 16 C -0.131940 5.586615 -1.039708 0
M  V30 17 C -0.284031 4.539898 -2.143773 0
M  V30 18 C -0.433425 2.162998 -0.360023 0
M  V30 19 C -0.575112 0.986713 0.349473 0
M  V30 20 C -0.168199 -2.227449 1.133278 0
M  V30 21 C -1.045802 -2.396135 -0.001029 0
M  V30 22 C -0.609934 -2.350656 -1.329303 0
M  V30 23 C -1.449291 -2.512448 -2.415336 0
M  V30 24 C -2.791141 -2.731112 -2.189239 0
M  V30 25 C -3.274894 -2.785344 -0.899870 0
M  V30 26 C -2.414931 -2.620140 0.184565 0
M  V30 27 N 0.200198 -3.010486 2.173693 0
M  V30 28 C -0.217907 -4.269430 2.410780 0
M  V30 29 H -1.117075 -6.886849 5.745864 0
M  V30 30 H -1.590000 -5.281490 5.133249 0
M  V30 31 H -2.213660 -6.699618 4.279569 0
M  V30 32 H -0.271527 -6.897735 3.021172 0
M  V30 33 H 0.749999 -6.711579 4.494288 0
M  V30 34 H 1.580515 -4.693773 5.246236 0
M  V30 35 H 2.290954 -2.379714 4.727569 0
M  V30 36 H 2.650665 0.007270 0.242409 0
M  V30 37 H 2.911772 2.078802 -1.009478 0
M  V30 38 H 2.692019 4.388230 -2.614714 0
M  V30 39 H 1.446441 3.693265 -3.591982 0
M  V30 40 H 1.275678 4.741100 0.367109 0
M  V30 41 H 2.083763 5.661076 -1.048489 0
M  V30 42 H -0.882515 5.496605 -0.222398 0
M  V30 43 H -0.116586 6.627293 -1.403124 0
M  V30 44 H -0.180432 5.047782 -3.138674 0
M  V30 45 H -1.257144 4.056979 -2.069154 0
M  V30 46 H -1.311888 2.740714 -0.510675 0
M  V30 47 H -1.511426 0.632288 0.749811 0
M  V30 48 H 0.461147 -2.175633 -1.481677 0
M  V30 49 H -1.025076 -2.462525 -3.426161 0
M  V30 50 H -3.444091 -2.856872 -3.030865 0
M  V30 51 H -4.339031 -2.958155 -0.677921 0
M  V30 52 H -2.816687 -2.666364 1.206834 0
M  V30 53 H -0.909142 -4.780771 1.766130 0
M  V30 END ATOM
M  V30 BEGIN BOND
M  V30 1 1 1 2
M  V30 2 1 2 3
M  V30 3 1 3 4
M  V30 4 2 4 5
M  V30 5 1 5 6
M  V30 6 2 6 7
M  V30 7 1 7 8
M  V30 8 1 8 9
M  V30 9 2 9 10
M  V30 10 1 10 11
M  V30 11 2 11 12
M  V30 12 1 12 13
M  V30 13 1 13 14
M  V30 14 1 13 15
M  V30 15 1 15 16
M  V30 16 1 16 17
M  V30 17 1 12 18
M  V30 18 2 18 19
M  V30 19 2 8 20
M  V30 20 1 20 21
M  V30 21 2 21 22
M  V30 22 1 22 23
M  V30 23 2 23 24
M  V30 24 1 24 25
M  V30 25 2 25 26
M  V30 26 1 20 27
M  V30 27 1 27 28
M  V30 28 2 28 3
M  V30 29 1 27 6
M  V30 30 1 19 9
M  V30 31 1 26 21
M  V30 32 1 17 13
M  V30 33 1 1 29
M  V30 34 1 1 30
M  V30 35 1 1 31
M  V30 36 1 2 32
M  V30 37 1 2 33
M  V30 38 1 4 34
M  V30 39 1 5 35
M  V30 40 1 10 36
M  V30 41 1 11 37
M  V30 42 1 14 38
M  V30 43 1 14 39
M  V30 44 1 15 40
M  V30 45 1 15 41
M  V30 46 1 16 42
M  V30 47 1 16 43
M  V30 48 1 17 44
M  V30 49 1 17 45
M  V30 50 1 18 46
M  V30 51 1 19 47
M  V30 52 1 22 48
M  V30 53 1 23 49
M  V30 54 1 24 50
M  V30 55 1 25 51
M  V30 56 1 26 52
M  V30 57 1 28 53
M  V30 END BOND
M  V30 END CTAB
M  END
>  <Dataset>  (374) 
ChEMBL_Kinases

>  <Ligand_Instance>  (374) 
nan

>  <PDB_ID>  (374) 
nan

>  <Standardized_SMILES>  (374) 
CCc1ccc2nc(-c3ccc(C4(N)CCC4)cc3)c(-c3ccccc3)n2c1

>  <Name>  (374) 
nan

>  <Pocket>  (374) 
nan

>  <ATP_Site>  (374) 
nan

>  <Peripheral>  (374) 
nan

>  <Num_H_Atoms_ProtBoundConf>  (374) 
nan

>  <Num_Resolved_Atoms>  (374) 
nan

>  <Num_Not_Resolved_Atoms>  (374) 
nan

$$$$
CHEMBL3699714
     RDKit          3D

  0  0  0  0  0  0  0  0  0  0999 V3000
M  V30 BEGIN CTAB
M  V30 COUNTS 54 59 0 0 0
M  V30 BEGIN ATOM
M  V30 1 N 0.341725 -5.917886 -2.450496 0
M  V30 2 C -0.550084 -5.634176 -1.346552 0
M  V30 3 C -0.277378 -4.297973 -0.759181 0
M  V30 4 C -0.135011 -3.311188 -1.722364 0
M  V30 5 C 0.122232 -1.994956 -1.399810 0
M  V30 6 C 0.245507 -1.627740 -0.075401 0
M  V30 7 C 0.507458 -0.334774 0.540863 0
M  V30 8 N 1.658055 -0.128712 1.236466 0
M  V30 9 C 1.677996 1.146302 1.716552 0
M  V30 10 C 2.673733 1.736927 2.469737 0
M  V30 11 C 2.473003 3.064341 2.849494 0
M  V30 12 C 3.513651 3.719089 3.650249 0
M  V30 13 C 3.011633 4.538862 4.869022 0
M  V30 14 C 3.638948 5.196415 3.700096 0
M  V30 15 C 1.295974 3.645943 2.429610 0
M  V30 16 C 0.327569 3.012525 1.675378 0
M  V30 17 N 0.528403 1.714499 1.306466 0
M  V30 18 C -0.201144 0.845263 0.593744 0
M  V30 19 C -1.479661 1.036878 -0.024464 0
M  V30 20 C -1.797738 1.034770 -1.350276 0
M  V30 21 C -3.062868 1.222899 -1.864398 0
M  V30 22 C -4.117127 1.433939 -0.989375 0
M  V30 23 C -3.837313 1.444152 0.376538 0
M  V30 24 C -2.556469 1.251254 0.844637 0
M  V30 25 C 0.102620 -2.622002 0.904584 0
M  V30 26 C -0.154480 -3.934478 0.565593 0
M  V30 27 C -0.724602 -6.765043 -0.368573 0
M  V30 28 C -1.798113 -7.303082 -1.324136 0
M  V30 29 C -1.992174 -5.856677 -1.756066 0
M  V30 30 H 1.280663 -5.493040 -2.291205 0
M  V30 31 H -0.068468 -5.400991 -3.282803 0
M  V30 32 H -0.201091 -3.422470 -2.816686 0
M  V30 33 H 0.249704 -1.166178 -2.056414 0
M  V30 34 H 3.559508 1.188744 2.745062 0
M  V30 35 H 4.378183 3.091439 3.874532 0
M  V30 36 H 3.583013 4.447034 5.809835 0
M  V30 37 H 1.898664 4.627905 4.954009 0
M  V30 38 H 2.981612 5.806109 3.040148 0
M  V30 39 H 4.674450 5.601516 3.844361 0
M  V30 40 H 1.146003 4.671905 2.726659 0
M  V30 41 H -0.584385 3.510830 1.368118 0
M  V30 42 H -0.988081 0.874162 -2.031480 0
M  V30 43 H -3.203038 1.201587 -2.939983 0
M  V30 44 H -5.093658 1.579472 -1.392700 0
M  V30 45 H -4.708358 1.613636 0.992204 0
M  V30 46 H -2.508245 1.287821 1.933891 0
M  V30 47 H 0.171892 -2.487207 1.976614 0
M  V30 48 H -0.277864 -4.753302 1.251313 0
M  V30 49 H 0.184882 -7.416774 -0.414982 0
M  V30 50 H -1.094667 -6.503791 0.618977 0
M  V30 51 H -2.653308 -7.661005 -0.727620 0
M  V30 52 H -1.420134 -7.985146 -2.102307 0
M  V30 53 H -2.739133 -5.354979 -1.130805 0
M  V30 54 H -2.111530 -5.696102 -2.837972 0
M  V30 END ATOM
M  V30 BEGIN BOND
M  V30 1 1 1 2
M  V30 2 1 2 3
M  V30 3 2 3 4
M  V30 4 1 4 5
M  V30 5 2 5 6
M  V30 6 1 6 7
M  V30 7 1 7 8
M  V30 8 2 8 9
M  V30 9 1 9 10
M  V30 10 2 10 11
M  V30 11 1 11 12
M  V30 12 1 12 13
M  V30 13 1 13 14
M  V30 14 1 11 15
M  V30 15 2 15 16
M  V30 16 1 16 17
M  V30 17 1 17 18
M  V30 18 1 18 19
M  V30 19 2 19 20
M  V30 20 1 20 21
M  V30 21 2 21 22
M  V30 22 1 22 23
M  V30 23 2 23 24
M  V30 24 1 6 25
M  V30 25 2 25 26
M  V30 26 1 2 27
M  V30 27 1 27 28
M  V30 28 1 28 29
M  V30 29 1 29 2
M  V30 30 1 26 3
M  V30 31 2 18 7
M  V30 32 1 24 19
M  V30 33 1 17 9
M  V30 34 1 14 12
M  V30 35 1 1 30
M  V30 36 1 1 31
M  V30 37 1 4 32
M  V30 38 1 5 33
M  V30 39 1 10 34
M  V30 40 1 12 35
M  V30 41 1 13 36
M  V30 42 1 13 37
M  V30 43 1 14 38
M  V30 44 1 14 39
M  V30 45 1 15 40
M  V30 46 1 16 41
M  V30 47 1 20 42
M  V30 48 1 21 43
M  V30 49 1 22 44
M  V30 50 1 23 45
M  V30 51 1 24 46
M  V30 52 1 25 47
M  V30 53 1 26 48
M  V30 54 1 27 49
M  V30 55 1 27 50
M  V30 56 1 28 51
M  V30 57 1 28 52
M  V30 58 1 29 53
M  V30 59 1 29 54
M  V30 END BOND
M  V30 END CTAB
M  END
>  <Dataset>  (375) 
ChEMBL_Kinases

>  <Ligand_Instance>  (375) 
nan

>  <PDB_ID>  (375) 
nan

>  <Standardized_SMILES>  (375) 
NC1(c2ccc(-c3nc4cc(C5CC5)ccn4c3-c3ccccc3)cc2)CCC1

>  <Name>  (375) 
nan

>  <Pocket>  (375) 
nan

>  <ATP_Site>  (375) 
nan

>  <Peripheral>  (375) 
nan

>  <Num_H_Atoms_ProtBoundConf>  (375) 
nan

>  <Num_Resolved_Atoms>  (375) 
nan

>  <Num_Not_Resolved_Atoms>  (375) 
nan

$$$$
CHEMBL3699720
     RDKit          3D

  0  0  0  0  0  0  0  0  0  0999 V3000
M  V30 BEGIN CTAB
M  V30 COUNTS 47 51 0 0 0
M  V30 BEGIN ATOM
M  V30 1 N 1.140660 -4.883312 2.884422 0
M  V30 2 C 0.107335 -4.520468 1.949351 0
M  V30 3 C 0.375494 -3.297755 1.174975 0
M  V30 4 C 0.274624 -3.047262 -0.177351 0
M  V30 5 C 0.582333 -1.806683 -0.695040 0
M  V30 6 C 1.001209 -0.773800 0.118661 0
M  V30 7 C 1.328664 0.540705 -0.421931 0
M  V30 8 N 2.253409 0.983653 -1.309710 0
M  V30 9 C 2.115878 2.329807 -1.452351 0
M  V30 10 C 2.807238 3.245325 -2.229546 0
M  V30 11 F 3.819480 2.823037 -3.025105 0
M  V30 12 C 2.432276 4.573675 -2.162722 0
M  V30 13 C 1.396940 5.023654 -1.352897 0
M  V30 14 C 0.748253 4.061955 -0.603732 0
M  V30 15 N 1.104096 2.770141 -0.661047 0
M  V30 16 C 0.617612 1.672234 -0.025763 0
M  V30 17 C -0.503418 1.744277 0.931756 0
M  V30 18 C -1.700649 1.097659 0.701522 0
M  V30 19 C -2.700585 1.211335 1.641029 0
M  V30 20 C -2.511220 1.957629 2.792367 0
M  V30 21 C -1.292873 2.602001 3.002969 0
M  V30 22 C -0.258001 2.509143 2.073624 0
M  V30 23 C 1.109055 -1.002864 1.474372 0
M  V30 24 C 0.798540 -2.258364 2.005347 0
M  V30 25 C -0.353219 -5.726449 1.168519 0
M  V30 26 C -1.800252 -5.342180 1.487049 0
M  V30 27 C -1.253873 -4.512659 2.629070 0
M  V30 28 H 2.058687 -4.986767 2.441003 0
M  V30 29 H 1.133680 -4.309379 3.757078 0
M  V30 30 H -0.059298 -3.911945 -0.729358 0
M  V30 31 H 0.481179 -1.678910 -1.765248 0
M  V30 32 H 2.958953 5.314902 -2.763062 0
M  V30 33 H 1.160239 6.089405 -1.355118 0
M  V30 34 H -0.054168 4.423318 0.021838 0
M  V30 35 H -1.797462 0.519068 -0.227094 0
M  V30 36 H -3.635506 0.702511 1.454241 0
M  V30 37 H -3.317840 2.032427 3.521452 0
M  V30 38 H -1.131734 3.195637 3.910201 0
M  V30 39 H 0.685096 3.006004 2.233413 0
M  V30 40 H 1.440482 -0.170028 2.085738 0
M  V30 41 H 0.927685 -2.295821 3.076631 0
M  V30 42 H -0.131293 -6.696829 1.672392 0
M  V30 43 H -0.089148 -5.764668 0.111890 0
M  V30 44 H -2.419115 -6.162045 1.885601 0
M  V30 45 H -2.263534 -4.760484 0.667330 0
M  V30 46 H -1.304146 -4.970893 3.618522 0
M  V30 47 H -1.691678 -3.494208 2.586310 0
M  V30 END ATOM
M  V30 BEGIN BOND
M  V30 1 1 1 2
M  V30 2 1 2 3
M  V30 3 2 3 4
M  V30 4 1 4 5
M  V30 5 2 5 6
M  V30 6 1 6 7
M  V30 7 1 7 8
M  V30 8 2 8 9
M  V30 9 1 9 10
M  V30 10 1 10 11
M  V30 11 2 10 12
M  V30 12 1 12 13
M  V30 13 2 13 14
M  V30 14 1 14 15
M  V30 15 1 15 16
M  V30 16 1 16 17
M  V30 17 2 17 18
M  V30 18 1 18 19
M  V30 19 2 19 20
M  V30 20 1 20 21
M  V30 21 2 21 22
M  V30 22 1 6 23
M  V30 23 2 23 24
M  V30 24 1 2 25
M  V30 25 1 25 26
M  V30 26 1 26 27
M  V30 27 1 27 2
M  V30 28 1 24 3
M  V30 29 2 16 7
M  V30 30 1 22 17
M  V30 31 1 15 9
M  V30 32 1 1 28
M  V30 33 1 1 29
M  V30 34 1 4 30
M  V30 35 1 5 31
M  V30 36 1 12 32
M  V30 37 1 13 33
M  V30 38 1 14 34
M  V30 39 1 18 35
M  V30 40 1 19 36
M  V30 41 1 20 37
M  V30 42 1 21 38
M  V30 43 1 22 39
M  V30 44 1 23 40
M  V30 45 1 24 41
M  V30 46 1 25 42
M  V30 47 1 25 43
M  V30 48 1 26 44
M  V30 49 1 26 45
M  V30 50 1 27 46
M  V30 51 1 27 47
M  V30 END BOND
M  V30 END CTAB
M  END
>  <Dataset>  (376) 
ChEMBL_Kinases

>  <Ligand_Instance>  (376) 
nan

>  <PDB_ID>  (376) 
nan

>  <Standardized_SMILES>  (376) 
NC1(c2ccc(-c3nc4c(F)cccn4c3-c3ccccc3)cc2)CCC1

>  <Name>  (376) 
nan

>  <Pocket>  (376) 
nan

>  <ATP_Site>  (376) 
nan

>  <Peripheral>  (376) 
nan

>  <Num_H_Atoms_ProtBoundConf>  (376) 
nan

>  <Num_Resolved_Atoms>  (376) 
nan

>  <Num_Not_Resolved_Atoms>  (376) 
nan

$$$$
CHEMBL3699693
     RDKit          3D

  0  0  0  0  0  0  0  0  0  0999 V3000
M  V30 BEGIN CTAB
M  V30 COUNTS 51 55 0 0 0
M  V30 BEGIN ATOM
M  V30 1 N -2.480110 -4.963782 2.092619 0
M  V30 2 C -1.771257 -5.001444 0.815194 0
M  V30 3 C -0.969354 -3.780345 0.572444 0
M  V30 4 C -0.776352 -3.146131 -0.634930 0
M  V30 5 C -0.028304 -1.998988 -0.783439 0
M  V30 6 C 0.568689 -1.438574 0.326008 0
M  V30 7 C 1.375890 -0.228156 0.250494 0
M  V30 8 N 2.592987 0.172972 -0.133267 0
M  V30 9 C 2.716435 1.513135 0.080251 0
M  V30 10 C 3.811505 2.308941 -0.180285 0
M  V30 11 C 3.761210 3.658723 0.101648 0
M  V30 12 C 4.856822 4.640025 -0.120522 0
M  V30 13 O 4.793674 5.218589 -1.363811 0
M  V30 14 C 2.590378 4.141921 0.639759 0
M  V30 15 C 1.560819 3.282160 0.863032 0
M  V30 16 N 1.564481 1.961747 0.604545 0
M  V30 17 C 0.711192 0.911931 0.724083 0
M  V30 18 C -0.622137 1.221382 1.287530 0
M  V30 19 C -1.732520 1.004685 0.464131 0
M  V30 20 C -2.997506 1.294102 0.960808 0
M  V30 21 C -3.138195 1.786404 2.247730 0
M  V30 22 C -2.048267 2.004155 3.070495 0
M  V30 23 C -0.801322 1.711682 2.561291 0
M  V30 24 C 0.396533 -2.050973 1.560508 0
M  V30 25 C -0.368430 -3.217732 1.688319 0
M  V30 26 C -1.036999 -6.319548 0.596132 0
M  V30 27 C -1.857931 -6.547146 -0.675618 0
M  V30 28 C -2.752197 -5.399061 -0.255130 0
M  V30 29 H -1.854619 -5.033510 2.903147 0
M  V30 30 H -3.061288 -4.096456 2.090786 0
M  V30 31 H -1.234762 -3.576179 -1.511123 0
M  V30 32 H 0.104100 -1.525552 -1.741256 0
M  V30 33 H 4.728728 1.926445 -0.601470 0
M  V30 34 H 4.811254 5.428961 0.651932 0
M  V30 35 H 5.805499 4.092690 0.066615 0
M  V30 36 H 4.758161 4.545092 -2.073164 0
M  V30 37 H 2.494631 5.207743 0.882918 0
M  V30 38 H 0.653520 3.712770 1.290582 0
M  V30 39 H -1.695836 0.628286 -0.538969 0
M  V30 40 H -3.893728 1.144996 0.365295 0
M  V30 41 H -4.098717 2.020284 2.660875 0
M  V30 42 H -2.159978 2.396168 4.094388 0
M  V30 43 H 0.105242 1.853735 3.138489 0
M  V30 44 H 0.881342 -1.587830 2.430098 0
M  V30 45 H -0.420403 -3.593603 2.716176 0
M  V30 46 H 0.042746 -6.150495 0.400667 0
M  V30 47 H -1.284002 -7.106641 1.323596 0
M  V30 48 H -2.450558 -7.489518 -0.681736 0
M  V30 49 H -1.269607 -6.352059 -1.591937 0
M  V30 50 H -3.758350 -5.710411 0.096858 0
M  V30 51 H -2.875405 -4.602296 -1.008130 0
M  V30 END ATOM
M  V30 BEGIN BOND
M  V30 1 1 1 2
M  V30 2 1 2 3
M  V30 3 2 3 4
M  V30 4 1 4 5
M  V30 5 2 5 6
M  V30 6 1 6 7
M  V30 7 1 7 8
M  V30 8 2 8 9
M  V30 9 1 9 10
M  V30 10 2 10 11
M  V30 11 1 11 12
M  V30 12 1 12 13
M  V30 13 1 11 14
M  V30 14 2 14 15
M  V30 15 1 15 16
M  V30 16 1 16 17
M  V30 17 1 17 18
M  V30 18 2 18 19
M  V30 19 1 19 20
M  V30 20 2 20 21
M  V30 21 1 21 22
M  V30 22 2 22 23
M  V30 23 1 6 24
M  V30 24 2 24 25
M  V30 25 1 2 26
M  V30 26 1 26 27
M  V30 27 1 27 28
M  V30 28 1 28 2
M  V30 29 1 25 3
M  V30 30 2 17 7
M  V30 31 1 23 18
M  V30 32 1 16 9
M  V30 33 1 1 29
M  V30 34 1 1 30
M  V30 35 1 4 31
M  V30 36 1 5 32
M  V30 37 1 10 33
M  V30 38 1 12 34
M  V30 39 1 12 35
M  V30 40 1 13 36
M  V30 41 1 14 37
M  V30 42 1 15 38
M  V30 43 1 19 39
M  V30 44 1 20 40
M  V30 45 1 21 41
M  V30 46 1 22 42
M  V30 47 1 23 43
M  V30 48 1 24 44
M  V30 49 1 25 45
M  V30 50 1 26 46
M  V30 51 1 26 47
M  V30 52 1 27 48
M  V30 53 1 27 49
M  V30 54 1 28 50
M  V30 55 1 28 51
M  V30 END BOND
M  V30 END CTAB
M  END
>  <Dataset>  (377) 
ChEMBL_Kinases

>  <Ligand_Instance>  (377) 
nan

>  <PDB_ID>  (377) 
nan

>  <Standardized_SMILES>  (377) 
NC1(c2ccc(-c3nc4cc(CO)ccn4c3-c3ccccc3)cc2)CCC1

>  <Name>  (377) 
nan

>  <Pocket>  (377) 
nan

>  <ATP_Site>  (377) 
nan

>  <Peripheral>  (377) 
nan

>  <Num_H_Atoms_ProtBoundConf>  (377) 
nan

>  <Num_Resolved_Atoms>  (377) 
nan

>  <Num_Not_Resolved_Atoms>  (377) 
nan

$$$$
CHEMBL3699692
     RDKit          3D

  0  0  0  0  0  0  0  0  0  0999 V3000
M  V30 BEGIN CTAB
M  V30 COUNTS 54 58 0 0 0
M  V30 BEGIN ATOM
M  V30 1 C 2.305930 -6.991055 0.110729 0
M  V30 2 C 3.387516 -6.051928 0.602316 0
M  V30 3 O 3.810248 -6.615769 1.825900 0
M  V30 4 C 2.929480 -4.659420 0.763554 0
M  V30 5 C 3.827811 -3.947904 1.568589 0
M  V30 6 C 3.621992 -2.598296 1.876887 0
M  V30 7 C 2.492610 -2.007679 1.348697 0
M  V30 8 N 1.990604 -0.756182 1.435224 0
M  V30 9 C 0.837180 -0.684729 0.721785 0
M  V30 10 C 0.088117 0.563651 0.646417 0
M  V30 11 C -0.138383 1.368103 -0.451038 0
M  V30 12 C -0.882931 2.524440 -0.341457 0
M  V30 13 C -1.431358 2.918067 0.884259 0
M  V30 14 C -2.194477 4.187983 0.780970 0
M  V30 15 N -2.955987 4.279749 -0.474676 0
M  V30 16 C -1.386150 5.445107 1.022279 0
M  V30 17 C -1.900668 5.432982 2.446288 0
M  V30 18 C -3.033756 4.554713 1.961245 0
M  V30 19 C -1.204656 2.113755 1.981066 0
M  V30 20 C -0.459918 0.966549 1.847588 0
M  V30 21 C 0.596479 -1.930721 0.162989 0
M  V30 22 C -0.530669 -2.267504 -0.667178 0
M  V30 23 C -1.406935 -3.197886 -0.091580 0
M  V30 24 C -2.547546 -3.649558 -0.735801 0
M  V30 25 C -2.839676 -3.167155 -1.998397 0
M  V30 26 C -1.990477 -2.243094 -2.597211 0
M  V30 27 C -0.870303 -1.819674 -1.927589 0
M  V30 28 N 1.629824 -2.690516 0.575799 0
M  V30 29 C 1.825839 -3.989344 0.277692 0
M  V30 30 H 1.552688 -7.152432 0.898114 0
M  V30 31 H 1.786377 -6.537909 -0.758024 0
M  V30 32 H 2.731048 -7.942933 -0.265110 0
M  V30 33 H 4.231507 -6.131930 -0.129548 0
M  V30 34 H 4.722385 -6.399357 2.066051 0
M  V30 35 H 4.750958 -4.328063 2.033781 0
M  V30 36 H 4.285204 -2.018245 2.489523 0
M  V30 37 H 0.312345 1.011438 -1.364857 0
M  V30 38 H -0.992154 3.075420 -1.277833 0
M  V30 39 H -3.185768 3.294125 -0.755810 0
M  V30 40 H -3.795200 4.863464 -0.356593 0
M  V30 41 H -1.779261 6.340476 0.499014 0
M  V30 42 H -0.289693 5.321928 0.977990 0
M  V30 43 H -2.230326 6.421524 2.824808 0
M  V30 44 H -1.225757 4.868334 3.094957 0
M  V30 45 H -3.938327 5.135866 1.678827 0
M  V30 46 H -3.257730 3.762042 2.697945 0
M  V30 47 H -1.665239 2.497128 2.880625 0
M  V30 48 H -0.341777 0.403361 2.780775 0
M  V30 49 H -1.254204 -3.628913 0.896701 0
M  V30 50 H -3.217731 -4.366140 -0.287119 0
M  V30 51 H -3.736746 -3.511190 -2.525309 0
M  V30 52 H -2.180571 -1.839141 -3.582916 0
M  V30 53 H -0.170624 -1.108961 -2.335362 0
M  V30 54 H 1.209812 -4.640030 -0.327277 0
M  V30 END ATOM
M  V30 BEGIN BOND
M  V30 1 1 1 2
M  V30 2 1 2 3
M  V30 3 1 2 4
M  V30 4 1 4 5
M  V30 5 2 5 6
M  V30 6 1 6 7
M  V30 7 2 7 8
M  V30 8 1 8 9
M  V30 9 1 9 10
M  V30 10 2 10 11
M  V30 11 1 11 12
M  V30 12 2 12 13
M  V30 13 1 13 14
M  V30 14 1 14 15
M  V30 15 1 14 16
M  V30 16 1 16 17
M  V30 17 1 17 18
M  V30 18 1 13 19
M  V30 19 2 19 20
M  V30 20 2 9 21
M  V30 21 1 21 22
M  V30 22 2 22 23
M  V30 23 1 23 24
M  V30 24 2 24 25
M  V30 25 1 25 26
M  V30 26 2 26 27
M  V30 27 1 21 28
M  V30 28 1 28 29
M  V30 29 2 29 4
M  V30 30 1 28 7
M  V30 31 1 20 10
M  V30 32 1 27 22
M  V30 33 1 18 14
M  V30 34 1 1 30
M  V30 35 1 1 31
M  V30 36 1 1 32
M  V30 37 1 2 33
M  V30 38 1 3 34
M  V30 39 1 5 35
M  V30 40 1 6 36
M  V30 41 1 11 37
M  V30 42 1 12 38
M  V30 43 1 15 39
M  V30 44 1 15 40
M  V30 45 1 16 41
M  V30 46 1 16 42
M  V30 47 1 17 43
M  V30 48 1 17 44
M  V30 49 1 18 45
M  V30 50 1 18 46
M  V30 51 1 19 47
M  V30 52 1 20 48
M  V30 53 1 23 49
M  V30 54 1 24 50
M  V30 55 1 25 51
M  V30 56 1 26 52
M  V30 57 1 27 53
M  V30 58 1 29 54
M  V30 END BOND
M  V30 END CTAB
M  END
>  <Dataset>  (378) 
ChEMBL_Kinases

>  <Ligand_Instance>  (378) 
nan

>  <PDB_ID>  (378) 
nan

>  <Standardized_SMILES>  (378) 
CC(O)c1ccc2nc(-c3ccc(C4(N)CCC4)cc3)c(-c3ccccc3)n2c1

>  <Name>  (378) 
nan

>  <Pocket>  (378) 
nan

>  <ATP_Site>  (378) 
nan

>  <Peripheral>  (378) 
nan

>  <Num_H_Atoms_ProtBoundConf>  (378) 
nan

>  <Num_Resolved_Atoms>  (378) 
nan

>  <Num_Not_Resolved_Atoms>  (378) 
nan

$$$$
CHEMBL232599
     RDKit          3D

  0  0  0  0  0  0  0  0  0  0999 V3000
M  V30 BEGIN CTAB
M  V30 COUNTS 62 66 0 0 0
M  V30 BEGIN ATOM
M  V30 1 N 2.233377 -2.079794 4.566073 0
M  V30 2 C 1.378645 -1.600811 3.905667 0
M  V30 3 C 0.312364 -1.030933 3.100727 0
M  V30 4 C 0.526625 0.100531 2.438894 0
M  V30 5 N 1.509366 1.027826 2.172784 0
M  V30 6 C 2.880125 1.171553 2.467336 0
M  V30 7 O 3.419782 0.268695 3.139539 0
M  V30 8 C 3.870837 2.174285 2.157969 0
M  V30 9 C 4.949237 1.749482 1.371095 0
M  V30 10 C 5.995260 2.574595 0.977026 0
M  V30 11 C 5.938812 3.866878 1.397357 0
M  V30 12 C 4.922870 4.370028 2.169754 0
M  V30 13 C 4.874057 5.687533 2.591784 0
M  V30 14 C 3.811587 6.126499 3.371942 0
M  V30 15 C 2.820436 5.233021 3.711965 0
M  V30 16 C 2.852262 3.917932 3.301169 0
M  V30 17 C 3.909022 3.490070 2.527346 0
M  V30 18 S -1.049009 0.466445 1.586278 0
M  V30 19 C -1.882928 -1.043316 2.253455 0
M  V30 20 C -0.892153 -1.662053 3.046765 0
M  V30 21 C -1.455346 -2.903526 3.644321 0
M  V30 22 C -2.139900 -3.800617 2.681109 0
M  V30 23 N -2.947015 -3.129577 1.682321 0
M  V30 24 C -3.335008 -3.714348 0.448468 0
M  V30 25 O -2.893872 -4.885823 0.320907 0
M  V30 26 C -4.159429 -2.925404 -0.478484 0
M  V30 27 C -4.236854 -3.613732 -1.825907 0
M  V30 28 N -2.913534 -3.767701 -2.413985 0
M  V30 29 C -2.330478 -2.493182 -2.784969 0
M  V30 30 C -2.659125 -2.065069 -4.190629 0
M  V30 31 C -1.970849 -2.948327 -5.220823 0
M  V30 32 C -1.886691 -4.331374 -4.568919 0
M  V30 33 C -3.097647 -4.505390 -3.669915 0
M  V30 34 C -3.259291 -1.765067 2.162511 0
M  V30 35 H 1.359578 1.928134 1.620063 0
M  V30 36 H 5.030701 0.718825 1.015209 0
M  V30 37 H 6.809513 2.195468 0.365839 0
M  V30 38 H 6.760242 4.529091 1.092283 0
M  V30 39 H 5.729936 6.275941 2.243178 0
M  V30 40 H 3.863123 7.172923 3.651556 0
M  V30 41 H 2.037315 5.663656 4.319122 0
M  V30 42 H 2.055288 3.249704 3.589275 0
M  V30 43 H -2.131580 -2.564263 4.484734 0
M  V30 44 H -0.637406 -3.449805 4.161627 0
M  V30 45 H -2.891414 -4.390795 3.287226 0
M  V30 46 H -1.482335 -4.578874 2.245601 0
M  V30 47 H -3.797987 -1.900818 -0.514011 0
M  V30 48 H -5.213237 -2.950493 -0.070837 0
M  V30 49 H -4.637251 -4.628207 -1.696883 0
M  V30 50 H -4.854430 -3.065498 -2.562561 0
M  V30 51 H -1.213911 -2.631554 -2.738277 0
M  V30 52 H -2.564788 -1.666462 -2.111914 0
M  V30 53 H -2.247664 -1.036287 -4.315932 0
M  V30 54 H -3.730709 -1.994280 -4.411982 0
M  V30 55 H -0.936053 -2.587657 -5.427885 0
M  V30 56 H -2.516934 -2.962230 -6.173595 0
M  V30 57 H -1.980333 -5.094500 -5.376825 0
M  V30 58 H -0.931845 -4.421492 -4.042771 0
M  V30 59 H -3.948263 -4.003036 -4.171891 0
M  V30 60 H -3.333375 -5.574602 -3.489569 0
M  V30 61 H -3.610001 -1.810194 3.201745 0
M  V30 62 H -3.882896 -1.204264 1.470255 0
M  V30 END ATOM
M  V30 BEGIN BOND
M  V30 1 3 1 2
M  V30 2 1 2 3
M  V30 3 2 3 4
M  V30 4 1 4 5
M  V30 5 1 5 6
M  V30 6 2 6 7
M  V30 7 1 6 8
M  V30 8 2 8 9
M  V30 9 1 9 10
M  V30 10 2 10 11
M  V30 11 1 11 12
M  V30 12 2 12 13
M  V30 13 1 13 14
M  V30 14 2 14 15
M  V30 15 1 15 16
M  V30 16 2 16 17
M  V30 17 1 4 18
M  V30 18 1 18 19
M  V30 19 2 19 20
M  V30 20 1 20 21
M  V30 21 1 21 22
M  V30 22 1 22 23
M  V30 23 1 23 24
M  V30 24 2 24 25
M  V30 25 1 24 26
M  V30 26 1 26 27
M  V30 27 1 27 28
M  V30 28 1 28 29
M  V30 29 1 29 30
M  V30 30 1 30 31
M  V30 31 1 31 32
M  V30 32 1 32 33
M  V30 33 1 23 34
M  V30 34 1 20 3
M  V30 35 1 33 28
M  V30 36 1 17 8
M  V30 37 1 34 19
M  V30 38 1 17 12
M  V30 39 1 5 35
M  V30 40 1 9 36
M  V30 41 1 10 37
M  V30 42 1 11 38
M  V30 43 1 13 39
M  V30 44 1 14 40
M  V30 45 1 15 41
M  V30 46 1 16 42
M  V30 47 1 21 43
M  V30 48 1 21 44
M  V30 49 1 22 45
M  V30 50 1 22 46
M  V30 51 1 26 47
M  V30 52 1 26 48
M  V30 53 1 27 49
M  V30 54 1 27 50
M  V30 55 1 29 51
M  V30 56 1 29 52
M  V30 57 1 30 53
M  V30 58 1 30 54
M  V30 59 1 31 55
M  V30 60 1 31 56
M  V30 61 1 32 57
M  V30 62 1 32 58
M  V30 63 1 33 59
M  V30 64 1 33 60
M  V30 65 1 34 61
M  V30 66 1 34 62
M  V30 END BOND
M  V30 END CTAB
M  END
>  <Dataset>  (379) 
ChEMBL_Kinases

>  <Ligand_Instance>  (379) 
nan

>  <PDB_ID>  (379) 
nan

>  <Standardized_SMILES>  (379) 
N#Cc1c(NC(=O)c2cccc3ccccc23)sc2c1CCN(C(=O)CCN1CCCCC1)C2

>  <Name>  (379) 
nan

>  <Pocket>  (379) 
nan

>  <ATP_Site>  (379) 
nan

>  <Peripheral>  (379) 
nan

>  <Num_H_Atoms_ProtBoundConf>  (379) 
nan

>  <Num_Resolved_Atoms>  (379) 
nan

>  <Num_Not_Resolved_Atoms>  (379) 
nan

$$$$
CHEMBL3699691
     RDKit          3D

  0  0  0  0  0  0  0  0  0  0999 V3000
M  V30 BEGIN CTAB
M  V30 COUNTS 51 55 0 0 0
M  V30 BEGIN ATOM
M  V30 1 C 1.012629 -4.735000 5.720303 0
M  V30 2 O 0.901784 -3.807707 4.670491 0
M  V30 3 C 1.833033 -2.836029 4.379876 0
M  V30 4 C 3.001723 -2.634388 5.074043 0
M  V30 5 C 3.847335 -1.628466 4.681691 0
M  V30 6 C 3.589936 -0.783980 3.604138 0
M  V30 7 N 2.419484 -1.036608 2.961780 0
M  V30 8 C 1.942409 -0.367072 1.893104 0
M  V30 9 C 2.405512 0.746449 1.094387 0
M  V30 10 C 2.740686 0.759658 -0.247543 0
M  V30 11 C 3.168279 1.921387 -0.862523 0
M  V30 12 C 3.272003 3.111155 -0.142964 0
M  V30 13 C 2.934257 3.086134 1.198016 0
M  V30 14 C 2.501314 1.928267 1.839134 0
M  V30 15 C 0.736261 -0.943143 1.557318 0
M  V30 16 C -0.305345 -0.762599 0.548695 0
M  V30 17 C -1.513444 -0.122165 0.844854 0
M  V30 18 C -2.485853 0.029763 -0.137463 0
M  V30 19 C -2.281243 -0.448195 -1.426709 0
M  V30 20 C -3.366919 -0.232138 -2.378806 0
M  V30 21 N -3.812229 1.149175 -2.330820 0
M  V30 22 C -3.166510 -0.767519 -3.779461 0
M  V30 23 C -4.670705 -1.064753 -3.787895 0
M  V30 24 C -4.583056 -1.125212 -2.277342 0
M  V30 25 C -1.067534 -1.083001 -1.693934 0
M  V30 26 C -0.084882 -1.246104 -0.735402 0
M  V30 27 N 0.497609 -1.956021 2.428552 0
M  V30 28 C 1.551115 -2.004893 3.297415 0
M  V30 29 H 0.701825 -4.335295 6.710235 0
M  V30 30 H 2.094244 -4.991021 5.813850 0
M  V30 31 H 0.485223 -5.671188 5.538873 0
M  V30 32 H 3.218707 -3.285242 5.919692 0
M  V30 33 H 4.771141 -1.484647 5.247362 0
M  V30 34 H 4.251530 0.013338 3.289106 0
M  V30 35 H 2.634634 -0.200495 -0.739722 0
M  V30 36 H 3.421096 1.882518 -1.916900 0
M  V30 37 H 3.608662 4.015288 -0.638747 0
M  V30 38 H 3.022353 4.031420 1.741302 0
M  V30 39 H 2.259914 2.020868 2.907967 0
M  V30 40 H -1.680529 0.257852 1.866114 0
M  V30 41 H -3.412989 0.540357 0.153354 0
M  V30 42 H -3.842191 1.588654 -3.273115 0
M  V30 43 H -4.620498 1.313157 -1.723338 0
M  V30 44 H -2.640237 -1.722411 -3.780410 0
M  V30 45 H -2.889731 -0.029978 -4.552997 0
M  V30 46 H -5.282900 -0.185624 -4.098553 0
M  V30 47 H -4.948253 -2.023547 -4.273763 0
M  V30 48 H -4.387775 -2.161133 -1.956301 0
M  V30 49 H -5.451389 -0.635779 -1.761283 0
M  V30 50 H -0.927184 -1.451684 -2.707044 0
M  V30 51 H 0.844406 -1.759106 -1.033961 0
M  V30 END ATOM
M  V30 BEGIN BOND
M  V30 1 1 1 2
M  V30 2 1 2 3
M  V30 3 2 3 4
M  V30 4 1 4 5
M  V30 5 2 5 6
M  V30 6 1 6 7
M  V30 7 1 7 8
M  V30 8 1 8 9
M  V30 9 2 9 10
M  V30 10 1 10 11
M  V30 11 2 11 12
M  V30 12 1 12 13
M  V30 13 2 13 14
M  V30 14 2 8 15
M  V30 15 1 15 16
M  V30 16 2 16 17
M  V30 17 1 17 18
M  V30 18 2 18 19
M  V30 19 1 19 20
M  V30 20 1 20 21
M  V30 21 1 20 22
M  V30 22 1 22 23
M  V30 23 1 23 24
M  V30 24 1 19 25
M  V30 25 2 25 26
M  V30 26 1 15 27
M  V30 27 2 27 28
M  V30 28 1 28 3
M  V30 29 1 28 7
M  V30 30 1 14 9
M  V30 31 1 26 16
M  V30 32 1 24 20
M  V30 33 1 1 29
M  V30 34 1 1 30
M  V30 35 1 1 31
M  V30 36 1 4 32
M  V30 37 1 5 33
M  V30 38 1 6 34
M  V30 39 1 10 35
M  V30 40 1 11 36
M  V30 41 1 12 37
M  V30 42 1 13 38
M  V30 43 1 14 39
M  V30 44 1 17 40
M  V30 45 1 18 41
M  V30 46 1 21 42
M  V30 47 1 21 43
M  V30 48 1 22 44
M  V30 49 1 22 45
M  V30 50 1 23 46
M  V30 51 1 23 47
M  V30 52 1 24 48
M  V30 53 1 24 49
M  V30 54 1 25 50
M  V30 55 1 26 51
M  V30 END BOND
M  V30 END CTAB
M  END
>  <Dataset>  (380) 
ChEMBL_Kinases

>  <Ligand_Instance>  (380) 
nan

>  <PDB_ID>  (380) 
nan

>  <Standardized_SMILES>  (380) 
COc1cccn2c(-c3ccccc3)c(-c3ccc(C4(N)CCC4)cc3)nc12

>  <Name>  (380) 
nan

>  <Pocket>  (380) 
nan

>  <ATP_Site>  (380) 
nan

>  <Peripheral>  (380) 
nan

>  <Num_H_Atoms_ProtBoundConf>  (380) 
nan

>  <Num_Resolved_Atoms>  (380) 
nan

>  <Num_Not_Resolved_Atoms>  (380) 
nan

$$$$
CHEMBL3699690
     RDKit          3D

  0  0  0  0  0  0  0  0  0  0999 V3000
M  V30 BEGIN CTAB
M  V30 COUNTS 54 58 0 0 0
M  V30 BEGIN ATOM
M  V30 1 C 4.864868 -5.312937 2.868709 0
M  V30 2 O 4.124371 -5.947827 1.891959 0
M  V30 3 C 4.281414 -5.370562 0.644645 0
M  V30 4 C 3.843225 -3.950685 0.707041 0
M  V30 5 C 4.671106 -2.876860 1.016249 0
M  V30 6 C 4.196004 -1.582175 1.055754 0
M  V30 7 C 2.856425 -1.419243 0.771143 0
M  V30 8 N 2.113218 -0.282633 0.732002 0
M  V30 9 C 0.830375 -0.622596 0.403252 0
M  V30 10 C -0.116789 0.484898 0.315261 0
M  V30 11 C -0.373002 1.268695 1.424609 0
M  V30 12 C -1.258480 2.327864 1.396511 0
M  V30 13 C -1.928111 2.640629 0.232388 0
M  V30 14 C -2.913509 3.697847 -0.090947 0
M  V30 15 N -2.591191 4.463266 -1.292977 0
M  V30 16 C -3.269777 4.652469 1.023690 0
M  V30 17 C -4.466917 3.797982 1.370842 0
M  V30 18 C -4.354333 3.245713 -0.059691 0
M  V30 19 C -1.674323 1.854798 -0.888176 0
M  V30 20 C -0.791052 0.792261 -0.874525 0
M  V30 21 C 0.816183 -1.990447 0.244735 0
M  V30 22 C -0.424109 -2.625770 -0.108179 0
M  V30 23 C -0.571503 -3.340087 -1.280094 0
M  V30 24 C -1.796857 -3.937093 -1.574867 0
M  V30 25 C -2.803220 -3.773630 -0.660582 0
M  V30 26 C -2.678350 -3.064741 0.515850 0
M  V30 27 C -1.455239 -2.476597 0.796351 0
M  V30 28 N 2.060368 -2.462435 0.472613 0
M  V30 29 C 2.495124 -3.736506 0.426368 0
M  V30 30 H 5.968748 -5.317724 2.668050 0
M  V30 31 H 4.579034 -4.257105 3.049014 0
M  V30 32 H 4.637200 -5.842216 3.825111 0
M  V30 33 H 3.765385 -5.901582 -0.154415 0
M  V30 34 H 5.397383 -5.338763 0.471055 0
M  V30 35 H 5.707367 -3.152633 1.219421 0
M  V30 36 H 4.882327 -0.774361 1.302912 0
M  V30 37 H 0.098401 1.109295 2.385882 0
M  V30 38 H -1.520980 2.988787 2.205117 0
M  V30 39 H -1.711126 5.010170 -1.146516 0
M  V30 40 H -3.352609 5.185888 -1.391032 0
M  V30 41 H -2.463842 4.714185 1.773056 0
M  V30 42 H -3.513191 5.682247 0.692468 0
M  V30 43 H -4.279102 3.050752 2.165301 0
M  V30 44 H -5.364298 4.376011 1.583210 0
M  V30 45 H -4.553136 2.176058 -0.042642 0
M  V30 46 H -4.953685 3.890052 -0.723972 0
M  V30 47 H -2.105204 1.955888 -1.872464 0
M  V30 48 H -0.543310 0.147399 -1.681670 0
M  V30 49 H 0.275430 -3.434685 -1.973852 0
M  V30 50 H -1.855350 -4.479069 -2.496986 0
M  V30 51 H -3.734210 -4.265466 -0.952109 0
M  V30 52 H -3.572592 -3.039094 1.116264 0
M  V30 53 H -1.392574 -1.928566 1.726859 0
M  V30 54 H 1.808974 -4.532514 0.180702 0
M  V30 END ATOM
M  V30 BEGIN BOND
M  V30 1 1 1 2
M  V30 2 1 2 3
M  V30 3 1 3 4
M  V30 4 1 4 5
M  V30 5 2 5 6
M  V30 6 1 6 7
M  V30 7 2 7 8
M  V30 8 1 8 9
M  V30 9 1 9 10
M  V30 10 2 10 11
M  V30 11 1 11 12
M  V30 12 2 12 13
M  V30 13 1 13 14
M  V30 14 1 14 15
M  V30 15 1 14 16
M  V30 16 1 16 17
M  V30 17 1 17 18
M  V30 18 1 13 19
M  V30 19 2 19 20
M  V30 20 2 9 21
M  V30 21 1 21 22
M  V30 22 2 22 23
M  V30 23 1 23 24
M  V30 24 2 24 25
M  V30 25 1 25 26
M  V30 26 2 26 27
M  V30 27 1 21 28
M  V30 28 1 28 29
M  V30 29 2 29 4
M  V30 30 1 28 7
M  V30 31 1 20 10
M  V30 32 1 27 22
M  V30 33 1 18 14
M  V30 34 1 1 30
M  V30 35 1 1 31
M  V30 36 1 1 32
M  V30 37 1 3 33
M  V30 38 1 3 34
M  V30 39 1 5 35
M  V30 40 1 6 36
M  V30 41 1 11 37
M  V30 42 1 12 38
M  V30 43 1 15 39
M  V30 44 1 15 40
M  V30 45 1 16 41
M  V30 46 1 16 42
M  V30 47 1 17 43
M  V30 48 1 17 44
M  V30 49 1 18 45
M  V30 50 1 18 46
M  V30 51 1 19 47
M  V30 52 1 20 48
M  V30 53 1 23 49
M  V30 54 1 24 50
M  V30 55 1 25 51
M  V30 56 1 26 52
M  V30 57 1 27 53
M  V30 58 1 29 54
M  V30 END BOND
M  V30 END CTAB
M  END
>  <Dataset>  (381) 
ChEMBL_Kinases

>  <Ligand_Instance>  (381) 
nan

>  <PDB_ID>  (381) 
nan

>  <Standardized_SMILES>  (381) 
COCc1ccc2nc(-c3ccc(C4(N)CCC4)cc3)c(-c3ccccc3)n2c1

>  <Name>  (381) 
nan

>  <Pocket>  (381) 
nan

>  <ATP_Site>  (381) 
nan

>  <Peripheral>  (381) 
nan

>  <Num_H_Atoms_ProtBoundConf>  (381) 
nan

>  <Num_Resolved_Atoms>  (381) 
nan

>  <Num_Not_Resolved_Atoms>  (381) 
nan

$$$$
CHEMBL4564586
     RDKit          3D

  0  0  0  0  0  0  0  0  0  0999 V3000
M  V30 BEGIN CTAB
M  V30 COUNTS 43 46 0 0 0
M  V30 BEGIN ATOM
M  V30 1 N 2.116668 -5.469742 2.606278 0
M  V30 2 C 2.811183 -5.334951 1.365659 0
M  V30 3 O 3.597241 -6.246901 0.999991 0
M  V30 4 C 2.530776 -4.108539 0.617061 0
M  V30 5 C 3.211384 -3.985884 -0.589316 0
M  V30 6 C 3.019293 -2.859950 -1.380873 0
M  V30 7 Cl 3.846334 -2.641820 -2.914182 0
M  V30 8 C 2.125424 -1.912852 -0.877456 0
M  V30 9 C 1.781903 -0.717028 -1.495422 0
M  V30 10 Cl 2.286998 0.006491 -3.007669 0
M  V30 11 C 0.884127 -0.153182 -0.611943 0
M  V30 12 C 0.232484 1.111584 -0.805217 0
M  V30 13 C -0.314287 2.180832 -0.987045 0
M  V30 14 C -0.970945 3.467200 -1.187684 0
M  V30 15 C -2.397419 3.654691 -0.783874 0
M  V30 16 C -2.031333 3.572462 -2.277213 0
M  V30 17 N 0.691474 -0.953775 0.476605 0
M  V30 18 C -0.132008 -0.780506 1.622427 0 CFG=1
M  V30 19 C 0.647261 -0.728066 2.921729 0
M  V30 20 C 0.356927 0.534596 3.683668 0
M  V30 21 C -1.116291 0.622170 3.927922 0
M  V30 22 N -1.925002 0.199533 2.784241 0
M  V30 23 C -1.065527 0.369621 1.597220 0
M  V30 24 C 1.460924 -2.047080 0.314486 0
M  V30 25 N 1.686633 -3.145838 1.025864 0
M  V30 26 H 2.180461 -5.267058 3.630719 0
M  V30 27 H 1.208488 -5.953064 2.391695 0
M  V30 28 H 3.895839 -4.747868 -0.938939 0
M  V30 29 H -0.280185 4.340457 -1.093805 0
M  V30 30 H -2.890053 2.739014 -0.391393 0
M  V30 31 H -2.763310 4.637363 -0.448810 0
M  V30 32 H -2.247989 2.609322 -2.804354 0
M  V30 33 H -2.108707 4.524210 -2.848118 0
M  V30 34 H -0.784172 -1.701088 1.692061 0
M  V30 35 H 1.746091 -0.843248 2.709476 0
M  V30 36 H 0.398469 -1.566278 3.606931 0
M  V30 37 H 0.849172 0.398917 4.685100 0
M  V30 38 H 0.813200 1.434078 3.251148 0
M  V30 39 H -1.432562 1.611430 4.319452 0
M  V30 40 H -1.363804 -0.100362 4.742095 0
M  V30 41 H -2.274454 -0.771372 2.865060 0
M  V30 42 H -1.707208 0.294082 0.718723 0
M  V30 43 H -0.598532 1.349017 1.776493 0
M  V30 END ATOM
M  V30 BEGIN BOND
M  V30 1 1 1 2
M  V30 2 2 2 3
M  V30 3 1 2 4
M  V30 4 2 4 5
M  V30 5 1 5 6
M  V30 6 1 6 7
M  V30 7 2 6 8
M  V30 8 1 8 9
M  V30 9 1 9 10
M  V30 10 2 9 11
M  V30 11 1 11 12
M  V30 12 3 12 13
M  V30 13 1 13 14
M  V30 14 1 14 15
M  V30 15 1 15 16
M  V30 16 1 11 17
M  V30 17 1 17 18
M  V30 18 1 18 19
M  V30 19 1 19 20
M  V30 20 1 20 21
M  V30 21 1 21 22
M  V30 22 1 22 23
M  V30 23 1 17 24
M  V30 24 2 24 25
M  V30 25 1 25 4
M  V30 26 1 24 8
M  V30 27 1 16 14
M  V30 28 1 23 18
M  V30 29 1 1 26
M  V30 30 1 1 27
M  V30 31 1 5 28
M  V30 32 1 14 29
M  V30 33 1 15 30
M  V30 34 1 15 31
M  V30 35 1 16 32
M  V30 36 1 16 33
M  V30 37 1 18 34 CFG=1
M  V30 38 1 19 35
M  V30 39 1 19 36
M  V30 40 1 20 37
M  V30 41 1 20 38
M  V30 42 1 21 39
M  V30 43 1 21 40
M  V30 44 1 22 41
M  V30 45 1 23 42
M  V30 46 1 23 43
M  V30 END BOND
M  V30 END CTAB
M  END
>  <Dataset>  (382) 
ChEMBL_Kinases

>  <Ligand_Instance>  (382) 
nan

>  <PDB_ID>  (382) 
nan

>  <Standardized_SMILES>  (382) 
NC(=O)c1cc(Cl)c2c(Cl)c(C#CC3CC3)n([C@H]3CCCNC3)c2n1

>  <Name>  (382) 
nan

>  <Pocket>  (382) 
nan

>  <ATP_Site>  (382) 
nan

>  <Peripheral>  (382) 
nan

>  <Num_H_Atoms_ProtBoundConf>  (382) 
nan

>  <Num_Resolved_Atoms>  (382) 
nan

>  <Num_Not_Resolved_Atoms>  (382) 
nan

$$$$
CHEMBL3699689
     RDKit          3D

  0  0  0  0  0  0  0  0  0  0999 V3000
M  V30 BEGIN CTAB
M  V30 COUNTS 54 58 0 0 0
M  V30 BEGIN ATOM
M  V30 1 C 1.808374 -7.731379 -2.963169 0
M  V30 2 N 1.733764 -6.498740 -2.219723 0
M  V30 3 C 2.733656 -6.008839 -1.315443 0
M  V30 4 O 3.772477 -6.692838 -1.138314 0
M  V30 5 C 2.590880 -4.750232 -0.595794 0
M  V30 6 C 3.619434 -4.383585 0.245872 0
M  V30 7 C 3.528852 -3.200340 0.947380 0
M  V30 8 C 2.438135 -2.332838 0.856519 0
M  V30 9 N 2.068877 -1.154006 1.389908 0
M  V30 10 C 0.852904 -0.797896 0.898240 0
M  V30 11 C 0.186477 0.436796 1.293459 0
M  V30 12 C -0.140975 1.468054 0.435833 0
M  V30 13 C -0.780463 2.617222 0.917971 0
M  V30 14 C -1.103319 2.756240 2.261905 0
M  V30 15 C -1.768889 4.013761 2.608445 0
M  V30 16 N -2.688156 4.454878 1.584351 0
M  V30 17 C -0.835468 5.162557 2.984208 0
M  V30 18 C -0.981882 4.733172 4.443290 0
M  V30 19 C -2.305868 4.100904 4.018886 0
M  V30 20 C -0.768482 1.706485 3.126692 0
M  V30 21 C -0.132516 0.570809 2.629119 0
M  V30 22 C 0.493795 -1.805100 0.043824 0
M  V30 23 C -0.728324 -1.835115 -0.700321 0
M  V30 24 C -0.562073 -1.868401 -2.080228 0
M  V30 25 C -1.593544 -1.900694 -2.980024 0
M  V30 26 C -2.902674 -1.900755 -2.501677 0
M  V30 27 C -3.089685 -1.868030 -1.139642 0
M  V30 28 C -2.027537 -1.835567 -0.243832 0
M  V30 29 N 1.462953 -2.766647 0.003581 0
M  V30 30 C 1.503649 -3.911690 -0.703072 0
M  V30 31 H 1.649363 -7.597898 -4.060398 0
M  V30 32 H 2.827447 -8.155426 -2.777229 0
M  V30 33 H 1.096180 -8.490695 -2.537998 0
M  V30 34 H 0.869654 -5.957583 -2.385078 0
M  V30 35 H 4.531278 -4.932673 0.434350 0
M  V30 36 H 4.312400 -2.861220 1.626766 0
M  V30 37 H 0.111628 1.355450 -0.609937 0
M  V30 38 H -1.005186 3.389804 0.167226 0
M  V30 39 H -3.445045 5.051293 1.969165 0
M  V30 40 H -2.168429 5.001814 0.862987 0
M  V30 41 H 0.200450 5.059772 2.662882 0
M  V30 42 H -1.281006 6.165236 2.839560 0
M  V30 43 H -0.208103 4.008334 4.786428 0
M  V30 44 H -1.045395 5.545320 5.170788 0
M  V30 45 H -2.545021 3.168054 4.526581 0
M  V30 46 H -3.126432 4.849782 4.131082 0
M  V30 47 H -1.034374 1.854796 4.146148 0
M  V30 48 H 0.061208 -0.148381 3.408749 0
M  V30 49 H 0.407424 -1.871502 -2.561091 0
M  V30 50 H -1.470826 -1.926685 -4.052794 0
M  V30 51 H -3.726274 -1.926321 -3.202014 0
M  V30 52 H -4.102282 -1.866712 -0.725210 0
M  V30 53 H -2.122577 -1.808950 0.834133 0
M  V30 54 H 0.720504 -4.207246 -1.354642 0
M  V30 END ATOM
M  V30 BEGIN BOND
M  V30 1 1 1 2
M  V30 2 1 2 3
M  V30 3 2 3 4
M  V30 4 1 3 5
M  V30 5 1 5 6
M  V30 6 2 6 7
M  V30 7 1 7 8
M  V30 8 2 8 9
M  V30 9 1 9 10
M  V30 10 1 10 11
M  V30 11 2 11 12
M  V30 12 1 12 13
M  V30 13 2 13 14
M  V30 14 1 14 15
M  V30 15 1 15 16
M  V30 16 1 15 17
M  V30 17 1 17 18
M  V30 18 1 18 19
M  V30 19 1 14 20
M  V30 20 2 20 21
M  V30 21 2 10 22
M  V30 22 1 22 23
M  V30 23 2 23 24
M  V30 24 1 24 25
M  V30 25 2 25 26
M  V30 26 1 26 27
M  V30 27 2 27 28
M  V30 28 1 22 29
M  V30 29 1 29 30
M  V30 30 2 30 5
M  V30 31 1 29 8
M  V30 32 1 21 11
M  V30 33 1 28 23
M  V30 34 1 19 15
M  V30 35 1 1 31
M  V30 36 1 1 32
M  V30 37 1 1 33
M  V30 38 1 2 34
M  V30 39 1 6 35
M  V30 40 1 7 36
M  V30 41 1 12 37
M  V30 42 1 13 38
M  V30 43 1 16 39
M  V30 44 1 16 40
M  V30 45 1 17 41
M  V30 46 1 17 42
M  V30 47 1 18 43
M  V30 48 1 18 44
M  V30 49 1 19 45
M  V30 50 1 19 46
M  V30 51 1 20 47
M  V30 52 1 21 48
M  V30 53 1 24 49
M  V30 54 1 25 50
M  V30 55 1 26 51
M  V30 56 1 27 52
M  V30 57 1 28 53
M  V30 58 1 30 54
M  V30 END BOND
M  V30 END CTAB
M  END
>  <Dataset>  (383) 
ChEMBL_Kinases

>  <Ligand_Instance>  (383) 
nan

>  <PDB_ID>  (383) 
nan

>  <Standardized_SMILES>  (383) 
CNC(=O)c1ccc2nc(-c3ccc(C4(N)CCC4)cc3)c(-c3ccccc3)n2c1

>  <Name>  (383) 
nan

>  <Pocket>  (383) 
nan

>  <ATP_Site>  (383) 
nan

>  <Peripheral>  (383) 
nan

>  <Num_H_Atoms_ProtBoundConf>  (383) 
nan

>  <Num_Resolved_Atoms>  (383) 
nan

>  <Num_Not_Resolved_Atoms>  (383) 
nan

$$$$
CHEMBL3699688
     RDKit          3D

  0  0  0  0  0  0  0  0  0  0999 V3000
M  V30 BEGIN CTAB
M  V30 COUNTS 51 55 0 0 0
M  V30 BEGIN ATOM
M  V30 1 C 1.116049 -2.179675 7.932070 0
M  V30 2 O 1.806024 -1.084787 7.338116 0
M  V30 3 C 1.592176 -0.813520 5.997785 0
M  V30 4 C 2.302391 0.263622 5.512813 0
M  V30 5 C 2.194449 0.661482 4.185079 0
M  V30 6 N 1.380310 -0.012566 3.341668 0
M  V30 7 C 1.087739 0.148702 2.032207 0
M  V30 8 C 1.624314 1.172485 1.156263 0
M  V30 9 C 2.390737 1.071797 0.014647 0
M  V30 10 C 2.782975 2.212062 -0.652268 0
M  V30 11 C 2.414521 3.476727 -0.187772 0
M  V30 12 C 1.646711 3.600430 0.954466 0
M  V30 13 C 1.257240 2.437855 1.618733 0
M  V30 14 C 0.186787 -0.829306 1.677234 0
M  V30 15 C -0.406493 -1.044539 0.362530 0
M  V30 16 C -0.118000 -2.296557 -0.181729 0
M  V30 17 C -0.622121 -2.621186 -1.424718 0
M  V30 18 C -1.413342 -1.752215 -2.171809 0
M  V30 19 C -1.895386 -2.219214 -3.493366 0
M  V30 20 N -0.871926 -3.073179 -4.106828 0
M  V30 21 C -3.243407 -2.918203 -3.441395 0
M  V30 22 C -3.849421 -1.681583 -4.108084 0
M  V30 23 C -2.446496 -1.178747 -4.404824 0
M  V30 24 C -1.673144 -0.527671 -1.596877 0
M  V30 25 C -1.188042 -0.166413 -0.357985 0
M  V30 26 N -0.052082 -1.573546 2.793641 0
M  V30 27 C 0.688260 -1.063859 3.818407 0
M  V30 28 C 0.758807 -1.500243 5.126312 0
M  V30 29 H 0.072741 -2.244911 7.585731 0
M  V30 30 H 1.629822 -3.115209 7.570147 0
M  V30 31 H 1.197054 -2.154249 9.038558 0
M  V30 32 H 2.985278 0.881846 6.087931 0
M  V30 33 H 2.721314 1.488623 3.755371 0
M  V30 34 H 2.605546 0.054880 -0.236609 0
M  V30 35 H 3.373886 2.080668 -1.528663 0
M  V30 36 H 2.746583 4.340963 -0.745397 0
M  V30 37 H 1.388847 4.599196 1.271862 0
M  V30 38 H 0.656373 2.675411 2.503251 0
M  V30 39 H 0.493041 -3.043233 0.329307 0
M  V30 40 H -0.387597 -3.600585 -1.834153 0
M  V30 41 H 0.062955 -2.723245 -3.880575 0
M  V30 42 H -1.052571 -4.074943 -3.812176 0
M  V30 43 H -3.255729 -3.829427 -4.098613 0
M  V30 44 H -3.674631 -3.051331 -2.431620 0
M  V30 45 H -4.394203 -1.002683 -3.427728 0
M  V30 46 H -4.450756 -1.985208 -4.985010 0
M  V30 47 H -2.252025 -0.125682 -4.171368 0
M  V30 48 H -2.236616 -1.411514 -5.490967 0
M  V30 49 H -2.286482 0.160628 -2.161348 0
M  V30 50 H -1.375406 0.770972 0.104025 0
M  V30 51 H 0.230647 -2.325825 5.548391 0
M  V30 END ATOM
M  V30 BEGIN BOND
M  V30 1 1 1 2
M  V30 2 1 2 3
M  V30 3 1 3 4
M  V30 4 2 4 5
M  V30 5 1 5 6
M  V30 6 1 6 7
M  V30 7 1 7 8
M  V30 8 2 8 9
M  V30 9 1 9 10
M  V30 10 2 10 11
M  V30 11 1 11 12
M  V30 12 2 12 13
M  V30 13 2 7 14
M  V30 14 1 14 15
M  V30 15 2 15 16
M  V30 16 1 16 17
M  V30 17 2 17 18
M  V30 18 1 18 19
M  V30 19 1 19 20
M  V30 20 1 19 21
M  V30 21 1 21 22
M  V30 22 1 22 23
M  V30 23 1 18 24
M  V30 24 2 24 25
M  V30 25 1 14 26
M  V30 26 2 26 27
M  V30 27 1 27 28
M  V30 28 2 28 3
M  V30 29 1 27 6
M  V30 30 1 13 8
M  V30 31 1 25 15
M  V30 32 1 23 19
M  V30 33 1 1 29
M  V30 34 1 1 30
M  V30 35 1 1 31
M  V30 36 1 4 32
M  V30 37 1 5 33
M  V30 38 1 9 34
M  V30 39 1 10 35
M  V30 40 1 11 36
M  V30 41 1 12 37
M  V30 42 1 13 38
M  V30 43 1 16 39
M  V30 44 1 17 40
M  V30 45 1 20 41
M  V30 46 1 20 42
M  V30 47 1 21 43
M  V30 48 1 21 44
M  V30 49 1 22 45
M  V30 50 1 22 46
M  V30 51 1 23 47
M  V30 52 1 23 48
M  V30 53 1 24 49
M  V30 54 1 25 50
M  V30 55 1 28 51
M  V30 END BOND
M  V30 END CTAB
M  END
>  <Dataset>  (384) 
ChEMBL_Kinases

>  <Ligand_Instance>  (384) 
nan

>  <PDB_ID>  (384) 
nan

>  <Standardized_SMILES>  (384) 
COc1ccn2c(-c3ccccc3)c(-c3ccc(C4(N)CCC4)cc3)nc2c1

>  <Name>  (384) 
nan

>  <Pocket>  (384) 
nan

>  <ATP_Site>  (384) 
nan

>  <Peripheral>  (384) 
nan

>  <Num_H_Atoms_ProtBoundConf>  (384) 
nan

>  <Num_Resolved_Atoms>  (384) 
nan

>  <Num_Not_Resolved_Atoms>  (384) 
nan

$$$$
CHEMBL2325731
     RDKit          3D

  0  0  0  0  0  0  0  0  0  0999 V3000
M  V30 BEGIN CTAB
M  V30 COUNTS 61 64 0 0 0
M  V30 BEGIN ATOM
M  V30 1 C 5.102054 0.484682 3.097923 0
M  V30 2 N 4.274130 1.497668 2.476839 0
M  V30 3 C 4.446989 2.788924 3.158991 0
M  V30 4 C 3.360288 1.445120 1.362496 0
M  V30 5 O 2.730859 2.493949 0.992321 0
M  V30 6 C 3.156094 0.177554 0.653803 0
M  V30 7 C 1.895401 -0.536696 1.091156 0
M  V30 8 N 0.717577 0.272580 0.848851 0
M  V30 9 C -0.269046 -0.276623 -0.016988 0
M  V30 10 O -0.128006 -1.417011 -0.551788 0
M  V30 11 C -1.534198 0.419064 -0.370907 0
M  V30 12 N -1.513335 1.695645 0.333522 0
M  V30 13 C -2.715398 -0.333489 0.135925 0
M  V30 14 C -3.521421 -1.033140 -0.918374 0
M  V30 15 N -2.743096 -1.427446 -2.073964 0
M  V30 16 C -2.612657 -2.792547 -2.454662 0
M  V30 17 N -1.443367 -3.476676 -2.539551 0
M  V30 18 C -1.468133 -4.788083 -2.919977 0
M  V30 19 N -2.632017 -5.396887 -3.207279 0
M  V30 20 C -3.814212 -4.758976 -3.136738 0
M  V30 21 N -5.077106 -5.157137 -3.372195 0
M  V30 22 C -5.924670 -4.122566 -3.154981 0
M  V30 23 C -5.119920 -3.057830 -2.771250 0
M  V30 24 C -3.780538 -3.428300 -2.749882 0
M  V30 25 C -2.158774 -0.275358 -2.733186 0
M  V30 26 C -1.551567 0.725346 -1.832478 0
M  V30 27 C 1.907567 -0.836066 2.542162 0
M  V30 28 C 1.654356 0.143945 3.484672 0
M  V30 29 C 1.659217 -0.106493 4.841943 0
M  V30 30 C 1.926677 -1.384500 5.287619 0
M  V30 31 Cl 1.963428 -1.838228 6.993329 0
M  V30 32 C 2.184324 -2.389933 4.381668 0
M  V30 33 C 2.174001 -2.116170 3.031642 0
M  V30 34 H 4.694147 0.360625 4.134306 0
M  V30 35 H 6.129329 0.873124 3.214097 0
M  V30 36 H 5.061226 -0.489423 2.567689 0
M  V30 37 H 3.896536 2.675343 4.128695 0
M  V30 38 H 3.947126 3.604939 2.579391 0
M  V30 39 H 5.508736 2.999139 3.376336 0
M  V30 40 H 3.095078 0.390647 -0.432506 0
M  V30 41 H 4.031666 -0.481163 0.812121 0
M  V30 42 H 1.809550 -1.485664 0.524904 0
M  V30 43 H 0.565894 1.210326 1.267942 0
M  V30 44 H -2.453425 2.134223 0.229229 0
M  V30 45 H -0.739822 2.312764 0.013680 0
M  V30 46 H -3.394884 0.282904 0.760077 0
M  V30 47 H -2.353245 -1.130702 0.821517 0
M  V30 48 H -4.013716 -1.955291 -0.506668 0
M  V30 49 H -4.311233 -0.337960 -1.287877 0
M  V30 50 H -0.481482 -5.226311 -2.951250 0
M  V30 51 H -5.409376 -6.100061 -3.676065 0
M  V30 52 H -7.005852 -4.034745 -3.233196 0
M  V30 53 H -5.479423 -2.066119 -2.519854 0
M  V30 54 H -1.461457 -0.668198 -3.513859 0
M  V30 55 H -3.006022 0.171542 -3.329178 0
M  V30 56 H -1.997881 1.731032 -2.049647 0
M  V30 57 H -0.478158 0.848986 -2.156998 0
M  V30 58 H 1.436711 1.174903 3.184769 0
M  V30 59 H 1.470005 0.613768 5.612405 0
M  V30 60 H 2.398836 -3.407465 4.697674 0
M  V30 61 H 2.367819 -2.856097 2.257033 0
M  V30 END ATOM
M  V30 BEGIN BOND
M  V30 1 1 1 2
M  V30 2 1 2 3
M  V30 3 1 2 4
M  V30 4 2 4 5
M  V30 5 1 4 6
M  V30 6 1 6 7
M  V30 7 1 7 8
M  V30 8 1 8 9
M  V30 9 2 9 10
M  V30 10 1 9 11
M  V30 11 1 11 12
M  V30 12 1 11 13
M  V30 13 1 13 14
M  V30 14 1 14 15
M  V30 15 1 15 16
M  V30 16 2 16 17
M  V30 17 1 17 18
M  V30 18 2 18 19
M  V30 19 1 19 20
M  V30 20 1 20 21
M  V30 21 1 21 22
M  V30 22 2 22 23
M  V30 23 1 23 24
M  V30 24 1 15 25
M  V30 25 1 25 26
M  V30 26 1 7 27
M  V30 27 2 27 28
M  V30 28 1 28 29
M  V30 29 2 29 30
M  V30 30 1 30 31
M  V30 31 1 30 32
M  V30 32 2 32 33
M  V30 33 1 26 11
M  V30 34 1 33 27
M  V30 35 1 24 16
M  V30 36 2 24 20
M  V30 37 1 1 34
M  V30 38 1 1 35
M  V30 39 1 1 36
M  V30 40 1 3 37
M  V30 41 1 3 38
M  V30 42 1 3 39
M  V30 43 1 6 40
M  V30 44 1 6 41
M  V30 45 1 7 42
M  V30 46 1 8 43
M  V30 47 1 12 44
M  V30 48 1 12 45
M  V30 49 1 13 46
M  V30 50 1 13 47
M  V30 51 1 14 48
M  V30 52 1 14 49
M  V30 53 1 18 50
M  V30 54 1 21 51
M  V30 55 1 22 52
M  V30 56 1 23 53
M  V30 57 1 25 54
M  V30 58 1 25 55
M  V30 59 1 26 56
M  V30 60 1 26 57
M  V30 61 1 28 58
M  V30 62 1 29 59
M  V30 63 1 32 60
M  V30 64 1 33 61
M  V30 END BOND
M  V30 END CTAB
M  END
>  <Dataset>  (385) 
ChEMBL_Kinases

>  <Ligand_Instance>  (385) 
nan

>  <PDB_ID>  (385) 
nan

>  <Standardized_SMILES>  (385) 
CN(C)C(=O)CC(NC(=O)C1(N)CCN(c2ncnc3[nH]ccc23)CC1)c1ccc(Cl)cc1

>  <Name>  (385) 
nan

>  <Pocket>  (385) 
nan

>  <ATP_Site>  (385) 
nan

>  <Peripheral>  (385) 
nan

>  <Num_H_Atoms_ProtBoundConf>  (385) 
nan

>  <Num_Resolved_Atoms>  (385) 
nan

>  <Num_Not_Resolved_Atoms>  (385) 
nan

$$$$
CHEMBL3699686
     RDKit          3D

  0  0  0  0  0  0  0  0  0  0999 V3000
M  V30 BEGIN CTAB
M  V30 COUNTS 48 52 0 0 0
M  V30 BEGIN ATOM
M  V30 1 N 6.301191 -6.674524 0.149828 0
M  V30 2 C 5.546508 -5.771345 0.145710 0
M  V30 3 C 4.629676 -4.672464 0.115975 0
M  V30 4 C 4.853702 -3.604966 -0.735825 0
M  V30 5 C 3.923178 -2.593035 -0.702652 0
M  V30 6 N 2.814034 -2.564942 0.095281 0
M  V30 7 C 1.812110 -1.647814 0.238777 0
M  V30 8 C 1.814299 -0.417101 -0.548629 0
M  V30 9 C 1.750283 -0.444009 -1.923476 0
M  V30 10 C 1.766162 0.769218 -2.581764 0
M  V30 11 C 1.843600 1.934662 -1.854861 0
M  V30 12 C 1.907999 1.968827 -0.470485 0
M  V30 13 C 1.892075 0.770751 0.175320 0
M  V30 14 C 0.959919 -2.174693 1.201393 0
M  V30 15 C -0.204091 -1.354385 1.510354 0
M  V30 16 C -0.346179 -0.547518 2.618392 0
M  V30 17 C -1.512462 0.165016 2.771739 0
M  V30 18 C -2.576875 0.147956 1.901397 0
M  V30 19 C -3.838776 0.910040 2.017740 0
M  V30 20 N -5.023085 0.048225 2.090208 0
M  V30 21 C -3.913329 1.905366 3.142016 0
M  V30 22 C -4.460668 2.925642 2.148763 0
M  V30 23 C -4.069719 2.007701 1.034883 0
M  V30 24 C -2.425478 -0.670315 0.783317 0
M  V30 25 C -1.243405 -1.401881 0.613880 0
M  V30 26 N 1.460166 -3.361859 1.599307 0
M  V30 27 C 2.600119 -3.623169 0.933134 0
M  V30 28 C 3.516559 -4.653177 0.921662 0
M  V30 29 H 5.711060 -3.562067 -1.392969 0
M  V30 30 H 4.129670 -1.759873 -1.388675 0
M  V30 31 H 1.693211 -1.430380 -2.353562 0
M  V30 32 H 1.715355 0.729105 -3.658942 0
M  V30 33 H 1.853021 2.826075 -2.442294 0
M  V30 34 H 1.967223 2.951491 -0.003493 0
M  V30 35 H 1.942832 0.805850 1.251544 0
M  V30 36 H 0.470064 -0.511465 3.322922 0
M  V30 37 H -1.582232 0.778480 3.655590 0
M  V30 38 H -5.899297 0.609897 1.981739 0
M  V30 39 H -5.000867 -0.525231 2.963636 0
M  V30 40 H -2.938486 2.225488 3.576158 0
M  V30 41 H -4.644568 1.635495 3.958433 0
M  V30 42 H -5.548775 2.996607 2.274828 0
M  V30 43 H -3.882113 3.877719 2.207764 0
M  V30 44 H -4.849536 1.811923 0.265374 0
M  V30 45 H -3.096118 2.267333 0.537688 0
M  V30 46 H -3.193297 -0.777704 0.010233 0
M  V30 47 H -1.173829 -2.023709 -0.271497 0
M  V30 48 H 3.293193 -5.468450 1.608864 0
M  V30 END ATOM
M  V30 BEGIN BOND
M  V30 1 3 1 2
M  V30 2 1 2 3
M  V30 3 1 3 4
M  V30 4 2 4 5
M  V30 5 1 5 6
M  V30 6 1 6 7
M  V30 7 1 7 8
M  V30 8 2 8 9
M  V30 9 1 9 10
M  V30 10 2 10 11
M  V30 11 1 11 12
M  V30 12 2 12 13
M  V30 13 2 7 14
M  V30 14 1 14 15
M  V30 15 2 15 16
M  V30 16 1 16 17
M  V30 17 2 17 18
M  V30 18 1 18 19
M  V30 19 1 19 20
M  V30 20 1 19 21
M  V30 21 1 21 22
M  V30 22 1 22 23
M  V30 23 1 18 24
M  V30 24 2 24 25
M  V30 25 1 14 26
M  V30 26 2 26 27
M  V30 27 1 27 28
M  V30 28 2 28 3
M  V30 29 1 27 6
M  V30 30 1 13 8
M  V30 31 1 25 15
M  V30 32 1 23 19
M  V30 33 1 4 29
M  V30 34 1 5 30
M  V30 35 1 9 31
M  V30 36 1 10 32
M  V30 37 1 11 33
M  V30 38 1 12 34
M  V30 39 1 13 35
M  V30 40 1 16 36
M  V30 41 1 17 37
M  V30 42 1 20 38
M  V30 43 1 20 39
M  V30 44 1 21 40
M  V30 45 1 21 41
M  V30 46 1 22 42
M  V30 47 1 22 43
M  V30 48 1 23 44
M  V30 49 1 23 45
M  V30 50 1 24 46
M  V30 51 1 25 47
M  V30 52 1 28 48
M  V30 END BOND
M  V30 END CTAB
M  END
>  <Dataset>  (386) 
ChEMBL_Kinases

>  <Ligand_Instance>  (386) 
nan

>  <PDB_ID>  (386) 
nan

>  <Standardized_SMILES>  (386) 
N#Cc1ccn2c(-c3ccccc3)c(-c3ccc(C4(N)CCC4)cc3)nc2c1

>  <Name>  (386) 
nan

>  <Pocket>  (386) 
nan

>  <ATP_Site>  (386) 
nan

>  <Peripheral>  (386) 
nan

>  <Num_H_Atoms_ProtBoundConf>  (386) 
nan

>  <Num_Resolved_Atoms>  (386) 
nan

>  <Num_Not_Resolved_Atoms>  (386) 
nan

$$$$
CHEMBL3699685
     RDKit          3D

  0  0  0  0  0  0  0  0  0  0999 V3000
M  V30 BEGIN CTAB
M  V30 COUNTS 50 54 0 0 0
M  V30 BEGIN ATOM
M  V30 1 C 2.989443 -4.849047 2.694346 0
M  V30 2 C 3.646731 -3.637580 2.164542 0
M  V30 3 C 5.006675 -3.407622 2.168700 0
M  V30 4 C 5.549386 -2.245919 1.652898 0
M  V30 5 C 4.743279 -1.262572 1.108902 0
M  V30 6 N 3.419226 -1.508456 1.115487 0
M  V30 7 C 2.423369 -0.718548 0.648991 0
M  V30 8 C 2.411833 0.582867 0.018282 0
M  V30 9 C 3.081892 0.724983 -1.198714 0
M  V30 10 C 3.096287 1.959953 -1.840666 0
M  V30 11 C 2.460468 3.042077 -1.294261 0
M  V30 12 C 1.780058 2.938651 -0.078894 0
M  V30 13 C 1.781768 1.704409 0.535166 0
M  V30 14 C 1.231577 -1.382356 0.868984 0
M  V30 15 C -0.176302 -1.093860 0.610419 0
M  V30 16 C -0.996444 -1.028577 1.719462 0
M  V30 17 C -2.348434 -0.764224 1.624774 0
M  V30 18 C -2.941680 -0.551833 0.400299 0
M  V30 19 C -4.352123 -0.258936 0.086258 0
M  V30 20 N -4.782874 -0.799273 -1.179734 0
M  V30 21 C -4.561849 1.246406 0.097828 0
M  V30 22 C -5.547942 1.064654 1.210228 0
M  V30 23 C -5.356260 -0.423494 1.173092 0
M  V30 24 C -2.109926 -0.618738 -0.715449 0
M  V30 25 C -0.759049 -0.882646 -0.623050 0
M  V30 26 N 1.543781 -2.557841 1.463978 0
M  V30 27 C 2.884228 -2.627667 1.611425 0
M  V30 28 H 3.559592 -5.333860 3.494054 0
M  V30 29 H 1.992992 -4.617356 3.106020 0
M  V30 30 H 2.861012 -5.592740 1.875434 0
M  V30 31 H 5.647957 -4.171962 2.592600 0
M  V30 32 H 6.610296 -2.098710 1.671622 0
M  V30 33 H 5.142433 -0.344314 0.698541 0
M  V30 34 H 3.607630 -0.116509 -1.676881 0
M  V30 35 H 3.611502 2.074277 -2.779454 0
M  V30 36 H 2.496383 3.992258 -1.830793 0
M  V30 37 H 1.273408 3.797810 0.358116 0
M  V30 38 H 1.256028 1.601303 1.486112 0
M  V30 39 H -0.625192 -1.181524 2.730621 0
M  V30 40 H -3.033767 -0.701976 2.458736 0
M  V30 41 H -4.770985 -0.148387 -1.971609 0
M  V30 42 H -4.489805 -1.771424 -1.364673 0
M  V30 43 H -3.667515 1.849074 0.387238 0
M  V30 44 H -4.989280 1.663371 -0.852418 0
M  V30 45 H -6.543684 1.431395 0.893801 0
M  V30 46 H -5.269954 1.580941 2.151203 0
M  V30 47 H -6.305409 -0.897740 0.786164 0
M  V30 48 H -5.032895 -0.890041 2.121702 0
M  V30 49 H -2.450347 -0.470822 -1.736821 0
M  V30 50 H -0.095996 -0.939317 -1.473343 0
M  V30 END ATOM
M  V30 BEGIN BOND
M  V30 1 1 1 2
M  V30 2 2 2 3
M  V30 3 1 3 4
M  V30 4 2 4 5
M  V30 5 1 5 6
M  V30 6 1 6 7
M  V30 7 1 7 8
M  V30 8 2 8 9
M  V30 9 1 9 10
M  V30 10 2 10 11
M  V30 11 1 11 12
M  V30 12 2 12 13
M  V30 13 2 7 14
M  V30 14 1 14 15
M  V30 15 2 15 16
M  V30 16 1 16 17
M  V30 17 2 17 18
M  V30 18 1 18 19
M  V30 19 1 19 20
M  V30 20 1 19 21
M  V30 21 1 21 22
M  V30 22 1 22 23
M  V30 23 1 18 24
M  V30 24 2 24 25
M  V30 25 1 14 26
M  V30 26 2 26 27
M  V30 27 1 27 2
M  V30 28 1 27 6
M  V30 29 1 13 8
M  V30 30 1 25 15
M  V30 31 1 23 19
M  V30 32 1 1 28
M  V30 33 1 1 29
M  V30 34 1 1 30
M  V30 35 1 3 31
M  V30 36 1 4 32
M  V30 37 1 5 33
M  V30 38 1 9 34
M  V30 39 1 10 35
M  V30 40 1 11 36
M  V30 41 1 12 37
M  V30 42 1 13 38
M  V30 43 1 16 39
M  V30 44 1 17 40
M  V30 45 1 20 41
M  V30 46 1 20 42
M  V30 47 1 21 43
M  V30 48 1 21 44
M  V30 49 1 22 45
M  V30 50 1 22 46
M  V30 51 1 23 47
M  V30 52 1 23 48
M  V30 53 1 24 49
M  V30 54 1 25 50
M  V30 END BOND
M  V30 END CTAB
M  END
>  <Dataset>  (387) 
ChEMBL_Kinases

>  <Ligand_Instance>  (387) 
nan

>  <PDB_ID>  (387) 
nan

>  <Standardized_SMILES>  (387) 
Cc1cccn2c(-c3ccccc3)c(-c3ccc(C4(N)CCC4)cc3)nc12

>  <Name>  (387) 
nan

>  <Pocket>  (387) 
nan

>  <ATP_Site>  (387) 
nan

>  <Peripheral>  (387) 
nan

>  <Num_H_Atoms_ProtBoundConf>  (387) 
nan

>  <Num_Resolved_Atoms>  (387) 
nan

>  <Num_Not_Resolved_Atoms>  (387) 
nan

$$$$
CHEMBL3699684
     RDKit          3D

  0  0  0  0  0  0  0  0  0  0999 V3000
M  V30 BEGIN CTAB
M  V30 COUNTS 50 54 0 0 0
M  V30 BEGIN ATOM
M  V30 1 C 3.907597 -6.358719 -1.357135 0
M  V30 2 C 3.281362 -5.017161 -1.160978 0
M  V30 3 C 3.844998 -3.985925 -1.881029 0
M  V30 4 C 3.266406 -2.743543 -1.700883 0
M  V30 5 N 2.217607 -2.597342 -0.862339 0
M  V30 6 C 1.562052 -1.449398 -0.591417 0
M  V30 7 C 1.781790 -0.098941 -1.094169 0
M  V30 8 C 0.994768 0.756772 -1.825181 0
M  V30 9 C 1.479075 2.001295 -2.166551 0
M  V30 10 C 2.744351 2.411814 -1.789261 0
M  V30 11 C 3.561471 1.578566 -1.055109 0
M  V30 12 C 3.061957 0.315555 -0.712173 0
M  V30 13 C 0.557783 -1.715178 0.312761 0
M  V30 14 C -0.479981 -0.950894 0.993853 0
M  V30 15 C -0.400545 -0.718328 2.373022 0
M  V30 16 C -1.409225 0.012260 3.015258 0
M  V30 17 C -2.499535 0.524294 2.341940 0
M  V30 18 C -3.443592 1.258494 3.212944 0
M  V30 19 N -3.869250 0.487017 4.392255 0
M  V30 20 C -4.612736 1.863795 2.466684 0
M  V30 21 C -4.476406 3.109204 3.339569 0
M  V30 22 C -3.038995 2.661875 3.606854 0
M  V30 23 C -2.576148 0.294565 0.985542 0
M  V30 24 C -1.582043 -0.424338 0.357076 0
M  V30 25 N 0.630083 -3.043262 0.572741 0
M  V30 26 C 1.639668 -3.578508 -0.142538 0
M  V30 27 C 2.211002 -4.846997 -0.310242 0
M  V30 28 H 4.915909 -6.400757 -0.924230 0
M  V30 29 H 3.301707 -7.168083 -0.858266 0
M  V30 30 H 3.882104 -6.627034 -2.433872 0
M  V30 31 H 4.681536 -4.063864 -2.558982 0
M  V30 32 H 3.677961 -1.906258 -2.248082 0
M  V30 33 H 0.043115 0.308569 -2.047925 0
M  V30 34 H 0.764323 2.586727 -2.745149 0
M  V30 35 H 3.058964 3.398131 -2.091358 0
M  V30 36 H 4.539056 1.946872 -0.787588 0
M  V30 37 H 3.813535 -0.237489 -0.130383 0
M  V30 38 H 0.475138 -1.143624 2.845641 0
M  V30 39 H -1.158741 0.080610 4.074146 0
M  V30 40 H -4.447397 -0.340696 4.138650 0
M  V30 41 H -3.007567 0.157398 4.872798 0
M  V30 42 H -4.393750 2.147595 1.439841 0
M  V30 43 H -5.531212 1.315688 2.659728 0
M  V30 44 H -5.147464 3.118290 4.196441 0
M  V30 45 H -4.457296 4.069724 2.795849 0
M  V30 46 H -2.817454 2.793125 4.684104 0
M  V30 47 H -2.285974 3.104974 2.948944 0
M  V30 48 H -3.430349 0.696531 0.475375 0
M  V30 49 H -1.714693 -0.562785 -0.699345 0
M  V30 50 H 1.786555 -5.662054 0.241433 0
M  V30 END ATOM
M  V30 BEGIN BOND
M  V30 1 1 1 2
M  V30 2 1 2 3
M  V30 3 2 3 4
M  V30 4 1 4 5
M  V30 5 1 5 6
M  V30 6 1 6 7
M  V30 7 2 7 8
M  V30 8 1 8 9
M  V30 9 2 9 10
M  V30 10 1 10 11
M  V30 11 2 11 12
M  V30 12 2 6 13
M  V30 13 1 13 14
M  V30 14 2 14 15
M  V30 15 1 15 16
M  V30 16 2 16 17
M  V30 17 1 17 18
M  V30 18 1 18 19
M  V30 19 1 18 20
M  V30 20 1 20 21
M  V30 21 1 21 22
M  V30 22 1 17 23
M  V30 23 2 23 24
M  V30 24 1 13 25
M  V30 25 2 25 26
M  V30 26 1 26 27
M  V30 27 2 27 2
M  V30 28 1 26 5
M  V30 29 1 12 7
M  V30 30 1 24 14
M  V30 31 1 22 18
M  V30 32 1 1 28
M  V30 33 1 1 29
M  V30 34 1 1 30
M  V30 35 1 3 31
M  V30 36 1 4 32
M  V30 37 1 8 33
M  V30 38 1 9 34
M  V30 39 1 10 35
M  V30 40 1 11 36
M  V30 41 1 12 37
M  V30 42 1 15 38
M  V30 43 1 16 39
M  V30 44 1 19 40
M  V30 45 1 19 41
M  V30 46 1 20 42
M  V30 47 1 20 43
M  V30 48 1 21 44
M  V30 49 1 21 45
M  V30 50 1 22 46
M  V30 51 1 22 47
M  V30 52 1 23 48
M  V30 53 1 24 49
M  V30 54 1 27 50
M  V30 END BOND
M  V30 END CTAB
M  END
>  <Dataset>  (388) 
ChEMBL_Kinases

>  <Ligand_Instance>  (388) 
nan

>  <PDB_ID>  (388) 
nan

>  <Standardized_SMILES>  (388) 
Cc1ccn2c(-c3ccccc3)c(-c3ccc(C4(N)CCC4)cc3)nc2c1

>  <Name>  (388) 
nan

>  <Pocket>  (388) 
nan

>  <ATP_Site>  (388) 
nan

>  <Peripheral>  (388) 
nan

>  <Num_H_Atoms_ProtBoundConf>  (388) 
nan

>  <Num_Resolved_Atoms>  (388) 
nan

>  <Num_Not_Resolved_Atoms>  (388) 
nan

$$$$
CHEMBL2325998
     RDKit          3D

  0  0  0  0  0  0  0  0  0  0999 V3000
M  V30 BEGIN CTAB
M  V30 COUNTS 54 57 0 0 0
M  V30 BEGIN ATOM
M  V30 1 C 2.204949 1.711911 1.962238 0
M  V30 2 C 2.588336 0.376342 1.359008 0
M  V30 3 C 4.082664 0.210710 1.477108 0
M  V30 4 C 1.809908 -0.678643 2.078453 0 CFG=1
M  V30 5 C 2.200605 -0.589939 3.543764 0
M  V30 6 O 0.467085 -0.327015 2.041566 0
M  V30 7 C 2.084609 -2.069245 1.637761 0 CFG=2
M  V30 8 C 1.833001 -2.353366 0.187137 0
M  V30 9 N 0.438764 -2.628731 -0.100830 0
M  V30 10 C -0.182989 -1.936102 -1.166117 0
M  V30 11 N -1.259948 -1.133797 -1.015015 0
M  V30 12 C -1.822396 -0.491856 -2.055903 0
M  V30 13 C -2.987156 0.368349 -1.854455 0
M  V30 14 N -3.650710 1.064646 -2.776063 0
M  V30 15 N -4.660473 1.731950 -2.207009 0
M  V30 16 C -4.666822 1.474257 -0.887253 0
M  V30 17 N -5.463198 1.889398 0.120197 0
M  V30 18 C -5.240653 1.464300 1.392132 0
M  V30 19 C -4.209629 0.605635 1.702200 0
M  V30 20 C -3.400983 0.190830 0.645396 0
M  V30 21 C -3.609038 0.608771 -0.646852 0
M  V30 22 C -1.311235 -0.631220 -3.340386 0
M  V30 23 F -1.911084 0.036003 -4.363108 0
M  V30 24 C -0.215351 -1.438524 -3.539852 0
M  V30 25 C 0.322554 -2.074120 -2.435551 0
M  V30 26 O 1.420757 -2.884158 -2.630298 0
M  V30 27 C -0.235936 -3.609533 0.733604 0
M  V30 28 C 0.022103 -3.206505 2.161499 0
M  V30 29 N 1.406459 -3.011126 2.458453 0
M  V30 30 H 2.947483 2.060507 2.706259 0
M  V30 31 H 2.139645 2.515671 1.197497 0
M  V30 32 H 1.216460 1.672540 2.454176 0
M  V30 33 H 2.341063 0.462117 0.285939 0
M  V30 34 H 4.548165 1.111487 1.913406 0
M  V30 35 H 4.341779 -0.624108 2.165383 0
M  V30 36 H 4.553482 0.074250 0.479327 0
M  V30 37 H 1.336260 -0.823699 4.215516 0
M  V30 38 H 2.546200 0.409085 3.851712 0
M  V30 39 H 3.051426 -1.298242 3.766235 0
M  V30 40 H 0.199108 0.202566 1.271134 0
M  V30 41 H 3.171300 -2.251951 1.789446 0
M  V30 42 H 2.356167 -3.331608 -0.031347 0
M  V30 43 H 2.258924 -1.648799 -0.517696 0
M  V30 44 H -5.336030 2.358946 -2.733704 0
M  V30 45 H -5.964659 1.888753 2.071628 0
M  V30 46 H -4.104817 0.321137 2.724792 0
M  V30 47 H -2.586085 -0.486433 0.883400 0
M  V30 48 H 0.211282 -1.572834 -4.521567 0
M  V30 49 H 1.230909 -3.871615 -2.772484 0
M  V30 50 H -1.328352 -3.617119 0.563802 0
M  V30 51 H 0.221762 -4.599895 0.512540 0
M  V30 52 H -0.641947 -2.359588 2.381295 0
M  V30 53 H -0.325597 -4.052418 2.797730 0
M  V30 54 H 1.452837 -2.731423 3.472454 0
M  V30 END ATOM
M  V30 BEGIN BOND
M  V30 1 1 1 2
M  V30 2 1 2 3
M  V30 3 1 2 4
M  V30 4 1 4 5
M  V30 5 1 4 6 CFG=1
M  V30 6 1 4 7
M  V30 7 1 7 8
M  V30 8 1 8 9
M  V30 9 1 9 10
M  V30 10 2 10 11
M  V30 11 1 11 12
M  V30 12 1 12 13
M  V30 13 2 13 14
M  V30 14 1 14 15
M  V30 15 1 15 16
M  V30 16 2 16 17
M  V30 17 1 17 18
M  V30 18 2 18 19
M  V30 19 1 19 20
M  V30 20 2 20 21
M  V30 21 2 12 22
M  V30 22 1 22 23
M  V30 23 1 22 24
M  V30 24 2 24 25
M  V30 25 1 25 26
M  V30 26 1 9 27
M  V30 27 1 27 28
M  V30 28 1 28 29
M  V30 29 1 29 7
M  V30 30 1 25 10
M  V30 31 1 21 13
M  V30 32 1 21 16
M  V30 33 1 1 30
M  V30 34 1 1 31
M  V30 35 1 1 32
M  V30 36 1 2 33
M  V30 37 1 3 34
M  V30 38 1 3 35
M  V30 39 1 3 36
M  V30 40 1 5 37
M  V30 41 1 5 38
M  V30 42 1 5 39
M  V30 43 1 6 40
M  V30 44 1 7 41 CFG=3
M  V30 45 1 8 42
M  V30 46 1 8 43
M  V30 47 1 15 44
M  V30 48 1 18 45
M  V30 49 1 19 46
M  V30 50 1 20 47
M  V30 51 1 24 48
M  V30 52 1 26 49
M  V30 53 1 27 50
M  V30 54 1 27 51
M  V30 55 1 28 52
M  V30 56 1 28 53
M  V30 57 1 29 54
M  V30 END BOND
M  V30 END CTAB
M  END
>  <Dataset>  (389) 
ChEMBL_Kinases

>  <Ligand_Instance>  (389) 
nan

>  <PDB_ID>  (389) 
nan

>  <Standardized_SMILES>  (389) 
CC(C)[C@@](C)(O)[C@@H]1CN(c2nc(-c3n[nH]c4ncccc34)c(F)cc2O)CCN1

>  <Name>  (389) 
nan

>  <Pocket>  (389) 
nan

>  <ATP_Site>  (389) 
nan

>  <Peripheral>  (389) 
nan

>  <Num_H_Atoms_ProtBoundConf>  (389) 
nan

>  <Num_Resolved_Atoms>  (389) 
nan

>  <Num_Not_Resolved_Atoms>  (389) 
nan

$$$$
CHEMBL2325999
     RDKit          3D

  0  0  0  0  0  0  0  0  0  0999 V3000
M  V30 BEGIN CTAB
M  V30 COUNTS 54 57 0 0 0
M  V30 BEGIN ATOM
M  V30 1 C 4.492599 0.578368 1.994740 0
M  V30 2 C 3.775133 0.643936 0.678027 0
M  V30 3 C 4.688495 0.261819 -0.464576 0
M  V30 4 C 2.471508 -0.119854 0.639899 0 CFG=1
M  V30 5 C 1.557518 0.460363 1.680191 0
M  V30 6 O 1.915263 0.217251 -0.624992 0
M  V30 7 C 2.641230 -1.595160 0.685922 0 CFG=2
M  V30 8 C 1.463797 -2.369852 0.131885 0
M  V30 9 N 0.409111 -2.520655 1.083764 0
M  V30 10 C -0.863132 -2.392521 0.460287 0
M  V30 11 N -1.693381 -1.476802 0.693166 0
M  V30 12 C -2.663957 -0.751930 0.692480 0
M  V30 13 C -3.815678 0.106252 0.687021 0
M  V30 14 N -4.196148 0.434267 1.921001 0
M  V30 15 N -5.202694 1.284663 1.935224 0
M  V30 16 C -5.488707 1.522977 0.644689 0
M  V30 17 N -6.337558 2.278516 -0.069301 0
M  V30 18 C -6.369198 2.345341 -1.408719 0
M  V30 19 C -5.478971 1.598070 -2.184445 0
M  V30 20 C -4.575896 0.794128 -1.526842 0
M  V30 21 C -4.635243 0.800473 -0.156309 0
M  V30 22 C -3.185436 -1.672001 -0.339352 0
M  V30 23 F -4.457205 -1.789733 -1.001241 0
M  V30 24 C -2.655638 -2.843838 -0.955314 0
M  V30 25 C -1.379588 -3.225311 -0.503890 0
M  V30 26 C -0.599967 -4.342408 -0.929596 0
M  V30 27 N 0.042474 -5.227925 -1.271163 0
M  V30 28 C 0.824624 -2.769006 2.463700 0
M  V30 29 C 2.256226 -3.172092 2.449708 0
M  V30 30 N 3.143257 -2.131196 1.930285 0
M  V30 31 H 3.869094 0.022969 2.758006 0
M  V30 32 H 5.493526 0.103099 1.903023 0
M  V30 33 H 4.574032 1.603460 2.403924 0
M  V30 34 H 3.498803 1.704072 0.488990 0
M  V30 35 H 5.303939 1.145543 -0.745904 0
M  V30 36 H 5.421818 -0.488522 -0.055065 0
M  V30 37 H 4.178513 -0.080292 -1.368220 0
M  V30 38 H 1.738606 0.105602 2.706085 0
M  V30 39 H 1.799941 1.565535 1.728291 0
M  V30 40 H 0.492022 0.443638 1.368066 0
M  V30 41 H 2.275680 1.054705 -0.981587 0
M  V30 42 H 3.475022 -1.817709 -0.060100 0
M  V30 43 H 1.187778 -1.854819 -0.814829 0
M  V30 44 H 1.845463 -3.361677 -0.190647 0
M  V30 45 H -5.731932 1.735855 2.733091 0
M  V30 46 H -7.102911 2.993655 -1.873023 0
M  V30 47 H -5.485434 1.637868 -3.253371 0
M  V30 48 H -3.866395 0.256021 -2.111990 0
M  V30 49 H -2.975709 -3.576581 -1.726514 0
M  V30 50 H 0.576611 -1.931837 3.128609 0
M  V30 51 H 0.247723 -3.640043 2.869049 0
M  V30 52 H 2.336347 -4.087142 1.815253 0
M  V30 53 H 2.576860 -3.395140 3.492249 0
M  V30 54 H 4.078725 -2.587853 1.859064 0
M  V30 END ATOM
M  V30 BEGIN BOND
M  V30 1 1 1 2
M  V30 2 1 2 3
M  V30 3 1 2 4
M  V30 4 1 4 5
M  V30 5 1 4 6 CFG=3
M  V30 6 1 4 7
M  V30 7 1 7 8
M  V30 8 1 8 9
M  V30 9 1 9 10
M  V30 10 2 10 11
M  V30 11 1 11 12
M  V30 12 1 12 13
M  V30 13 2 13 14
M  V30 14 1 14 15
M  V30 15 1 15 16
M  V30 16 2 16 17
M  V30 17 1 17 18
M  V30 18 2 18 19
M  V30 19 1 19 20
M  V30 20 2 20 21
M  V30 21 2 12 22
M  V30 22 1 22 23
M  V30 23 1 22 24
M  V30 24 2 24 25
M  V30 25 1 25 26
M  V30 26 3 26 27
M  V30 27 1 9 28
M  V30 28 1 28 29
M  V30 29 1 29 30
M  V30 30 1 30 7
M  V30 31 1 25 10
M  V30 32 1 21 13
M  V30 33 1 21 16
M  V30 34 1 1 31
M  V30 35 1 1 32
M  V30 36 1 1 33
M  V30 37 1 2 34
M  V30 38 1 3 35
M  V30 39 1 3 36
M  V30 40 1 3 37
M  V30 41 1 5 38
M  V30 42 1 5 39
M  V30 43 1 5 40
M  V30 44 1 6 41
M  V30 45 1 7 42 CFG=3
M  V30 46 1 8 43
M  V30 47 1 8 44
M  V30 48 1 15 45
M  V30 49 1 18 46
M  V30 50 1 19 47
M  V30 51 1 20 48
M  V30 52 1 24 49
M  V30 53 1 28 50
M  V30 54 1 28 51
M  V30 55 1 29 52
M  V30 56 1 29 53
M  V30 57 1 30 54
M  V30 END BOND
M  V30 END CTAB
M  END
>  <Dataset>  (390) 
ChEMBL_Kinases

>  <Ligand_Instance>  (390) 
nan

>  <PDB_ID>  (390) 
nan

>  <Standardized_SMILES>  (390) 
CC(C)[C@@](C)(O)[C@@H]1CN(c2nc(-c3n[nH]c4ncccc34)c(F)cc2C#N)CCN1

>  <Name>  (390) 
nan

>  <Pocket>  (390) 
nan

>  <ATP_Site>  (390) 
nan

>  <Peripheral>  (390) 
nan

>  <Num_H_Atoms_ProtBoundConf>  (390) 
nan

>  <Num_Resolved_Atoms>  (390) 
nan

>  <Num_Not_Resolved_Atoms>  (390) 
nan

$$$$
CHEMBL4524534
     RDKit          3D

  0  0  0  0  0  0  0  0  0  0999 V3000
M  V30 BEGIN CTAB
M  V30 COUNTS 58 62 0 0 0
M  V30 BEGIN ATOM
M  V30 1 C 1.859129 -0.794210 7.180198 0
M  V30 2 C 2.343679 -1.137350 5.819152 0
M  V30 3 N 3.052108 -2.231539 5.492530 0
M  V30 4 O 3.326681 -2.266894 4.227890 0
M  V30 5 C 2.807356 -1.184068 3.640269 0
M  V30 6 C 2.893774 -0.851921 2.222715 0
M  V30 7 C 3.525772 -1.659931 1.304756 0
M  V30 8 C 3.543964 -1.261596 -0.037930 0
M  V30 9 C 2.959512 -0.097175 -0.486952 0
M  V30 10 N 2.813524 0.525350 -1.682016 0
M  V30 11 C 2.113667 1.678707 -1.487905 0
M  V30 12 N 1.636418 2.711772 -2.337587 0
M  V30 13 C 0.196045 2.754223 -2.440444 0
M  V30 14 C -0.643657 1.880508 -1.770521 0
M  V30 15 C -2.021625 1.990085 -1.897554 0
M  V30 16 C -2.717836 0.987993 -1.102780 0
M  V30 17 O -3.098830 1.677885 -0.114558 0
M  V30 18 N -3.100966 -0.375305 -1.025059 0
M  V30 19 C -3.846705 -0.742295 0.159172 0
M  V30 20 C -3.003582 -1.848035 0.816707 0
M  V30 21 N -2.320485 -2.620475 -0.193152 0
M  V30 22 C -1.333855 -3.470878 0.370615 0
M  V30 23 O -1.010959 -3.601591 1.578898 0
M  V30 24 C -0.451835 -4.407795 -0.347132 0
M  V30 25 C 0.448916 -5.057866 0.674243 0
M  V30 26 F -0.254045 -5.747646 1.629264 0
M  V30 27 F 1.323954 -5.890910 0.013799 0
M  V30 28 F 1.218386 -4.074247 1.279368 0
M  V30 29 C -2.448803 -2.682392 -1.640594 0
M  V30 30 C -2.728112 -1.269586 -2.101914 0
M  V30 31 C -2.598311 2.947108 -2.678066 0
M  V30 32 C -1.745107 3.793986 -3.328588 0
M  V30 33 N -0.425345 3.691590 -3.207226 0
M  V30 34 N 1.822718 1.773774 -0.157911 0
M  V30 35 C 2.328627 0.698173 0.473644 0
M  V30 36 C 2.300944 0.318965 1.804380 0
M  V30 37 N 2.206260 -0.495487 4.621502 0
M  V30 38 H 1.725642 -1.725566 7.758621 0
M  V30 39 H 2.537611 -0.114229 7.702522 0
M  V30 40 H 0.838666 -0.333224 7.020531 0
M  V30 41 H 3.996935 -2.583750 1.604111 0
M  V30 42 H 4.029398 -1.862845 -0.801172 0
M  V30 43 H 2.173434 3.411784 -2.871368 0
M  V30 44 H -0.165173 1.120520 -1.158260 0
M  V30 45 H -4.843130 -1.169542 -0.144102 0
M  V30 46 H -3.967530 0.062686 0.872296 0
M  V30 47 H -3.616399 -2.474068 1.491342 0
M  V30 48 H -2.256820 -1.304345 1.449779 0
M  V30 49 H -0.968162 -5.203094 -0.897349 0
M  V30 50 H 0.162013 -3.858100 -1.078314 0
M  V30 51 H -1.545384 -3.054795 -2.120909 0
M  V30 52 H -3.275321 -3.375828 -1.921915 0
M  V30 53 H -3.503274 -1.305512 -2.897300 0
M  V30 54 H -1.791273 -0.913724 -2.608739 0
M  V30 55 H -3.677999 2.954015 -2.715159 0
M  V30 56 H -2.184122 4.564261 -3.955339 0
M  V30 57 H 1.295441 2.526475 0.362978 0
M  V30 58 H 1.808678 0.940104 2.523799 0
M  V30 END ATOM
M  V30 BEGIN BOND
M  V30 1 1 1 2
M  V30 2 2 2 3
M  V30 3 1 3 4
M  V30 4 1 4 5
M  V30 5 1 5 6
M  V30 6 2 6 7
M  V30 7 1 7 8
M  V30 8 2 8 9
M  V30 9 1 9 10
M  V30 10 2 10 11
M  V30 11 1 11 12
M  V30 12 1 12 13
M  V30 13 2 13 14
M  V30 14 1 14 15
M  V30 15 1 15 16
M  V30 16 2 16 17
M  V30 17 1 16 18
M  V30 18 1 18 19
M  V30 19 1 19 20
M  V30 20 1 20 21
M  V30 21 1 21 22
M  V30 22 2 22 23
M  V30 23 1 22 24
M  V30 24 1 24 25
M  V30 25 1 25 26
M  V30 26 1 25 27
M  V30 27 1 25 28
M  V30 28 1 21 29
M  V30 29 1 29 30
M  V30 30 2 15 31
M  V30 31 1 31 32
M  V30 32 2 32 33
M  V30 33 1 11 34
M  V30 34 1 34 35
M  V30 35 2 35 36
M  V30 36 2 5 37
M  V30 37 1 37 2
M  V30 38 1 36 6
M  V30 39 1 35 9
M  V30 40 1 33 13
M  V30 41 1 30 18
M  V30 42 1 1 38
M  V30 43 1 1 39
M  V30 44 1 1 40
M  V30 45 1 7 41
M  V30 46 1 8 42
M  V30 47 1 12 43
M  V30 48 1 14 44
M  V30 49 1 19 45
M  V30 50 1 19 46
M  V30 51 1 20 47
M  V30 52 1 20 48
M  V30 53 1 24 49
M  V30 54 1 24 50
M  V30 55 1 29 51
M  V30 56 1 29 52
M  V30 57 1 30 53
M  V30 58 1 30 54
M  V30 59 1 31 55
M  V30 60 1 32 56
M  V30 61 1 34 57
M  V30 62 1 36 58
M  V30 END BOND
M  V30 END CTAB
M  END
>  <Dataset>  (391) 
ChEMBL_Kinases

>  <Ligand_Instance>  (391) 
nan

>  <PDB_ID>  (391) 
nan

>  <Standardized_SMILES>  (391) 
Cc1noc(-c2ccc3nc(Nc4cc(C(=O)N5CCN(C(=O)CC(F)(F)F)CC5)ccn4)[nH]c3c2)n1

>  <Name>  (391) 
nan

>  <Pocket>  (391) 
nan

>  <ATP_Site>  (391) 
nan

>  <Peripheral>  (391) 
nan

>  <Num_H_Atoms_ProtBoundConf>  (391) 
nan

>  <Num_Resolved_Atoms>  (391) 
nan

>  <Num_Not_Resolved_Atoms>  (391) 
nan

$$$$
CHEMBL2326000
     RDKit          3D

  0  0  0  0  0  0  0  0  0  0999 V3000
M  V30 BEGIN CTAB
M  V30 COUNTS 57 60 0 0 0
M  V30 BEGIN ATOM
M  V30 1 C 0.747008 -1.083484 2.350275 0
M  V30 2 C 2.152212 -1.410339 2.061512 0
M  V30 3 C 2.225697 -2.889358 1.746863 0
M  V30 4 C 2.886906 -0.546129 1.091483 0 CFG=1
M  V30 5 C 2.885769 0.878333 1.577429 0
M  V30 6 O 4.250370 -0.997037 1.248858 0
M  V30 7 C 2.637780 -0.600510 -0.343072 0 CFG=2
M  V30 8 C 1.571269 0.255114 -0.959252 0
M  V30 9 N 0.760714 -0.663284 -1.826042 0
M  V30 10 C -0.448290 -0.952602 -1.182657 0
M  V30 11 N -0.968661 -0.173264 -0.205948 0
M  V30 12 C -2.109477 -0.482433 0.482481 0
M  V30 13 C -2.095225 0.528565 1.569452 0
M  V30 14 N -2.099149 1.387440 2.500915 0
M  V30 15 N -2.776157 2.091088 3.180996 0
M  V30 16 C -3.899457 1.689424 2.615113 0
M  V30 17 N -5.139905 2.208226 3.005445 0
M  V30 18 C -6.219345 1.781710 2.343402 0
M  V30 19 C -6.122595 0.870897 1.319082 0
M  V30 20 C -4.781906 0.464165 1.069864 0
M  V30 21 C -3.545141 0.762115 1.628911 0
M  V30 22 C -2.748528 -1.630425 0.178667 0
M  V30 23 F -3.767335 -2.023968 0.952657 0
M  V30 24 C -2.272606 -2.439854 -0.780264 0
M  V30 25 C -1.100168 -2.113832 -1.495924 0
M  V30 26 C -0.654036 -3.071577 -2.509881 0
M  V30 27 O 0.460065 -3.842008 -2.177814 0
M  V30 28 C 1.558113 -0.923799 -2.988622 0
M  V30 29 C 2.836272 -1.597871 -2.441258 0
M  V30 30 N 2.696281 -1.885437 -1.003607 0
M  V30 31 H 0.028119 -1.768439 1.838812 0
M  V30 32 H 0.490961 -0.001427 2.232841 0
M  V30 33 H 0.550120 -1.282940 3.446461 0
M  V30 34 H 2.717550 -1.286844 3.016482 0
M  V30 35 H 3.256965 -3.272839 1.924617 0
M  V30 36 H 1.747490 -3.204690 0.819978 0
M  V30 37 H 1.610290 -3.341535 2.568206 0
M  V30 38 H 3.548970 1.460758 0.920846 0
M  V30 39 H 3.208774 0.952568 2.624143 0
M  V30 40 H 1.859735 1.334416 1.466358 0
M  V30 41 H 4.376591 -0.936939 2.202689 0
M  V30 42 H 3.614682 -0.105555 -0.788215 0
M  V30 43 H 1.973557 1.011311 -1.685165 0
M  V30 44 H 0.930460 0.822139 -0.268483 0
M  V30 45 H -2.359376 2.711933 3.870666 0
M  V30 46 H -7.143869 2.140559 2.712570 0
M  V30 47 H -6.953827 0.530742 0.740731 0
M  V30 48 H -4.879427 -0.159743 0.161879 0
M  V30 49 H -2.826861 -3.338181 -0.970555 0
M  V30 50 H -1.474053 -3.873264 -2.590326 0
M  V30 51 H -0.675269 -2.707991 -3.543796 0
M  V30 52 H 0.205911 -4.512191 -1.489328 0
M  V30 53 H 1.933241 0.066613 -3.372104 0
M  V30 54 H 1.147390 -1.393308 -3.850174 0
M  V30 55 H 3.708217 -0.977094 -2.540511 0
M  V30 56 H 2.988178 -2.564525 -2.982388 0
M  V30 57 H 3.557019 -2.407153 -0.784211 0
M  V30 END ATOM
M  V30 BEGIN BOND
M  V30 1 1 1 2
M  V30 2 1 2 3
M  V30 3 1 2 4
M  V30 4 1 4 5
M  V30 5 1 4 6 CFG=3
M  V30 6 1 4 7
M  V30 7 1 7 8
M  V30 8 1 8 9
M  V30 9 1 9 10
M  V30 10 2 10 11
M  V30 11 1 11 12
M  V30 12 1 12 13
M  V30 13 2 13 14
M  V30 14 1 14 15
M  V30 15 1 15 16
M  V30 16 2 16 17
M  V30 17 1 17 18
M  V30 18 2 18 19
M  V30 19 1 19 20
M  V30 20 2 20 21
M  V30 21 2 12 22
M  V30 22 1 22 23
M  V30 23 1 22 24
M  V30 24 2 24 25
M  V30 25 1 25 26
M  V30 26 1 26 27
M  V30 27 1 9 28
M  V30 28 1 28 29
M  V30 29 1 29 30
M  V30 30 1 30 7
M  V30 31 1 25 10
M  V30 32 1 21 13
M  V30 33 1 21 16
M  V30 34 1 1 31
M  V30 35 1 1 32
M  V30 36 1 1 33
M  V30 37 1 2 34
M  V30 38 1 3 35
M  V30 39 1 3 36
M  V30 40 1 3 37
M  V30 41 1 5 38
M  V30 42 1 5 39
M  V30 43 1 5 40
M  V30 44 1 6 41
M  V30 45 1 7 42 CFG=3
M  V30 46 1 8 43
M  V30 47 1 8 44
M  V30 48 1 15 45
M  V30 49 1 18 46
M  V30 50 1 19 47
M  V30 51 1 20 48
M  V30 52 1 24 49
M  V30 53 1 26 50
M  V30 54 1 26 51
M  V30 55 1 27 52
M  V30 56 1 28 53
M  V30 57 1 28 54
M  V30 58 1 29 55
M  V30 59 1 29 56
M  V30 60 1 30 57
M  V30 END BOND
M  V30 END CTAB
M  END
>  <Dataset>  (392) 
ChEMBL_Kinases

>  <Ligand_Instance>  (392) 
nan

>  <PDB_ID>  (392) 
nan

>  <Standardized_SMILES>  (392) 
CC(C)[C@@](C)(O)[C@@H]1CN(c2nc(-c3n[nH]c4ncccc34)c(F)cc2CO)CCN1

>  <Name>  (392) 
nan

>  <Pocket>  (392) 
nan

>  <ATP_Site>  (392) 
nan

>  <Peripheral>  (392) 
nan

>  <Num_H_Atoms_ProtBoundConf>  (392) 
nan

>  <Num_Resolved_Atoms>  (392) 
nan

>  <Num_Not_Resolved_Atoms>  (392) 
nan

$$$$
CHEMBL3699683
     RDKit          3D

  0  0  0  0  0  0  0  0  0  0999 V3000
M  V30 BEGIN CTAB
M  V30 COUNTS 48 52 0 0 0
M  V30 BEGIN ATOM
M  V30 1 N 2.430752 -6.116770 4.047860 0
M  V30 2 C 2.879204 -5.146918 3.555289 0
M  V30 3 C 3.443924 -3.976783 2.944713 0
M  V30 4 C 4.823855 -3.790695 2.947729 0
M  V30 5 C 5.345484 -2.654330 2.352986 0
M  V30 6 C 4.514276 -1.712217 1.761658 0
M  V30 7 N 3.163468 -1.904809 1.764541 0
M  V30 8 C 2.125084 -1.168204 1.272369 0
M  V30 9 C 2.359695 0.095855 0.584366 0
M  V30 10 C 1.937693 0.058740 -0.741512 0
M  V30 11 C 2.067178 1.157564 -1.579807 0
M  V30 12 C 2.625661 2.304669 -1.082384 0
M  V30 13 C 3.049113 2.351789 0.236569 0
M  V30 14 C 2.919583 1.261429 1.065108 0
M  V30 15 C 0.944170 -1.846573 1.560193 0
M  V30 16 C -0.376862 -1.352930 1.182077 0
M  V30 17 C -0.790671 -0.155760 1.730685 0
M  V30 18 C -2.033169 0.403851 1.436623 0
M  V30 19 C -2.894577 -0.253616 0.564220 0
M  V30 20 C -4.166025 0.458874 0.353801 0
M  V30 21 N -4.668107 1.081081 1.553255 0
M  V30 22 C -4.047467 1.425400 -0.815549 0
M  V30 23 C -4.616021 0.335057 -1.699734 0
M  V30 24 C -5.206131 -0.277239 -0.455212 0
M  V30 25 C -2.478832 -1.441620 0.022477 0
M  V30 26 C -1.247305 -1.987662 0.319349 0
M  V30 27 N 1.304262 -2.978292 2.220581 0
M  V30 28 C 2.658645 -3.010779 2.343707 0
M  V30 29 H 5.494623 -4.517766 3.405675 0
M  V30 30 H 6.428991 -2.501758 2.352605 0
M  V30 31 H 4.948810 -0.835544 1.304735 0
M  V30 32 H 1.478712 -0.799950 -1.246543 0
M  V30 33 H 1.750567 1.165518 -2.616707 0
M  V30 34 H 2.738301 3.185872 -1.726476 0
M  V30 35 H 3.498848 3.243135 0.674278 0
M  V30 36 H 3.214980 1.191835 2.100213 0
M  V30 37 H -0.125033 0.373804 2.418239 0
M  V30 38 H -2.261696 1.357977 1.927416 0
M  V30 39 H -4.264285 2.040059 1.649003 0
M  V30 40 H -5.704173 1.195363 1.552687 0
M  V30 41 H -3.012445 1.744178 -1.029320 0
M  V30 42 H -4.749490 2.301167 -0.695771 0
M  V30 43 H -5.387004 0.801467 -2.381714 0
M  V30 44 H -3.854258 -0.248006 -2.237307 0
M  V30 45 H -5.194873 -1.378401 -0.400620 0
M  V30 46 H -6.214952 0.174489 -0.253403 0
M  V30 47 H -3.176937 -1.903452 -0.638629 0
M  V30 48 H -0.931537 -2.916310 -0.109598 0
M  V30 END ATOM
M  V30 BEGIN BOND
M  V30 1 3 1 2
M  V30 2 1 2 3
M  V30 3 2 3 4
M  V30 4 1 4 5
M  V30 5 2 5 6
M  V30 6 1 6 7
M  V30 7 1 7 8
M  V30 8 1 8 9
M  V30 9 2 9 10
M  V30 10 1 10 11
M  V30 11 2 11 12
M  V30 12 1 12 13
M  V30 13 2 13 14
M  V30 14 2 8 15
M  V30 15 1 15 16
M  V30 16 2 16 17
M  V30 17 1 17 18
M  V30 18 2 18 19
M  V30 19 1 19 20
M  V30 20 1 20 21
M  V30 21 1 20 22
M  V30 22 1 22 23
M  V30 23 1 23 24
M  V30 24 1 19 25
M  V30 25 2 25 26
M  V30 26 1 15 27
M  V30 27 2 27 28
M  V30 28 1 28 3
M  V30 29 1 28 7
M  V30 30 1 14 9
M  V30 31 1 26 16
M  V30 32 1 24 20
M  V30 33 1 4 29
M  V30 34 1 5 30
M  V30 35 1 6 31
M  V30 36 1 10 32
M  V30 37 1 11 33
M  V30 38 1 12 34
M  V30 39 1 13 35
M  V30 40 1 14 36
M  V30 41 1 17 37
M  V30 42 1 18 38
M  V30 43 1 21 39
M  V30 44 1 21 40
M  V30 45 1 22 41
M  V30 46 1 22 42
M  V30 47 1 23 43
M  V30 48 1 23 44
M  V30 49 1 24 45
M  V30 50 1 24 46
M  V30 51 1 25 47
M  V30 52 1 26 48
M  V30 END BOND
M  V30 END CTAB
M  END
>  <Dataset>  (393) 
ChEMBL_Kinases

>  <Ligand_Instance>  (393) 
nan

>  <PDB_ID>  (393) 
nan

>  <Standardized_SMILES>  (393) 
N#Cc1cccn2c(-c3ccccc3)c(-c3ccc(C4(N)CCC4)cc3)nc12

>  <Name>  (393) 
nan

>  <Pocket>  (393) 
nan

>  <ATP_Site>  (393) 
nan

>  <Peripheral>  (393) 
nan

>  <Num_H_Atoms_ProtBoundConf>  (393) 
nan

>  <Num_Resolved_Atoms>  (393) 
nan

>  <Num_Not_Resolved_Atoms>  (393) 
nan

$$$$
CHEMBL3699682
     RDKit          3D

  0  0  0  0  0  0  0  0  0  0999 V3000
M  V30 BEGIN CTAB
M  V30 COUNTS 56 60 0 0 0
M  V30 BEGIN ATOM
M  V30 1 C 2.910697 -3.488028 5.440231 0
M  V30 2 C 4.273362 -4.094635 5.345392 0
M  V30 3 C 4.621010 -4.773834 4.072472 0
M  V30 4 O 4.629739 -4.020401 2.909271 0
M  V30 5 C 3.627845 -3.346846 2.297245 0
M  V30 6 C 4.222591 -2.766782 1.162960 0
M  V30 7 C 3.502138 -1.976494 0.253164 0
M  V30 8 N 2.184588 -1.764632 0.476084 0
M  V30 9 C 1.198061 -1.080570 -0.160445 0
M  V30 10 C 1.420307 -0.336653 -1.386723 0
M  V30 11 C 0.938986 -0.518784 -2.662908 0
M  V30 12 C 1.240290 0.279116 -3.725915 0
M  V30 13 C 2.100373 1.342017 -3.453674 0
M  V30 14 C 2.622921 1.590256 -2.206819 0
M  V30 15 C 2.281164 0.748649 -1.173923 0
M  V30 16 C 0.002581 -1.224401 0.556364 0
M  V30 17 C -1.293537 -0.648161 0.213196 0
M  V30 18 C -2.086222 -0.985786 -0.864224 0
M  V30 19 C -3.291411 -0.361173 -1.089654 0
M  V30 20 C -3.780673 0.626342 -0.270114 0
M  V30 21 C -5.059493 1.367400 -0.420552 0
M  V30 22 N -5.754920 1.587554 0.841899 0
M  V30 23 C -4.892217 2.639199 -1.222415 0
M  V30 24 C -5.310468 1.859901 -2.445897 0
M  V30 25 C -5.975070 0.870015 -1.518144 0
M  V30 26 C -3.016840 1.006366 0.836447 0
M  V30 27 C -1.796871 0.346723 1.030879 0
M  V30 28 N 0.326325 -1.997304 1.604092 0
M  V30 29 C 1.631167 -2.325138 1.563299 0
M  V30 30 N 2.327918 -3.075793 2.422366 0
M  V30 31 H 2.823990 -2.458038 5.054745 0
M  V30 32 H 2.117213 -4.109324 4.955611 0
M  V30 33 H 2.562233 -3.441822 6.522999 0
M  V30 34 H 4.331533 -4.872646 6.150078 0
M  V30 35 H 5.008863 -3.279574 5.558819 0
M  V30 36 H 3.807516 -5.565321 3.930082 0
M  V30 37 H 5.536424 -5.416246 4.170095 0
M  V30 38 H 5.247253 -2.797432 0.784729 0
M  V30 39 H 3.860434 -1.489649 -0.639620 0
M  V30 40 H 0.292805 -1.371980 -2.733510 0
M  V30 41 H 0.815737 0.057751 -4.689658 0
M  V30 42 H 2.351637 1.989392 -4.292945 0
M  V30 43 H 3.276000 2.441033 -2.123544 0
M  V30 44 H 2.739772 1.020724 -0.224796 0
M  V30 45 H -1.714025 -1.762604 -1.513574 0
M  V30 46 H -3.903427 -0.637197 -1.935195 0
M  V30 47 H -5.279091 1.077539 1.621123 0
M  V30 48 H -5.655872 2.611623 1.056325 0
M  V30 49 H -3.864510 3.049468 -1.244236 0
M  V30 50 H -5.692834 3.365365 -0.974066 0
M  V30 51 H -4.408177 1.453249 -2.947964 0
M  V30 52 H -6.008838 2.398373 -3.122018 0
M  V30 53 H -5.883054 -0.186404 -1.805634 0
M  V30 54 H -7.013699 1.204295 -1.309054 0
M  V30 55 H -3.310096 1.780039 1.553810 0
M  V30 56 H -1.218624 0.655399 1.896288 0
M  V30 END ATOM
M  V30 BEGIN BOND
M  V30 1 1 1 2
M  V30 2 1 2 3
M  V30 3 1 3 4
M  V30 4 1 4 5
M  V30 5 1 5 6
M  V30 6 2 6 7
M  V30 7 1 7 8
M  V30 8 1 8 9
M  V30 9 1 9 10
M  V30 10 2 10 11
M  V30 11 1 11 12
M  V30 12 2 12 13
M  V30 13 1 13 14
M  V30 14 2 14 15
M  V30 15 2 9 16
M  V30 16 1 16 17
M  V30 17 2 17 18
M  V30 18 1 18 19
M  V30 19 2 19 20
M  V30 20 1 20 21
M  V30 21 1 21 22
M  V30 22 1 21 23
M  V30 23 1 23 24
M  V30 24 1 24 25
M  V30 25 1 20 26
M  V30 26 2 26 27
M  V30 27 1 16 28
M  V30 28 2 28 29
M  V30 29 1 29 30
M  V30 30 2 30 5
M  V30 31 1 29 8
M  V30 32 1 15 10
M  V30 33 1 27 17
M  V30 34 1 25 21
M  V30 35 1 1 31
M  V30 36 1 1 32
M  V30 37 1 1 33
M  V30 38 1 2 34
M  V30 39 1 2 35
M  V30 40 1 3 36
M  V30 41 1 3 37
M  V30 42 1 6 38
M  V30 43 1 7 39
M  V30 44 1 11 40
M  V30 45 1 12 41
M  V30 46 1 13 42
M  V30 47 1 14 43
M  V30 48 1 15 44
M  V30 49 1 18 45
M  V30 50 1 19 46
M  V30 51 1 22 47
M  V30 52 1 22 48
M  V30 53 1 23 49
M  V30 54 1 23 50
M  V30 55 1 24 51
M  V30 56 1 24 52
M  V30 57 1 25 53
M  V30 58 1 25 54
M  V30 59 1 26 55
M  V30 60 1 27 56
M  V30 END BOND
M  V30 END CTAB
M  END
>  <Dataset>  (394) 
ChEMBL_Kinases

>  <Ligand_Instance>  (394) 
nan

>  <PDB_ID>  (394) 
nan

>  <Standardized_SMILES>  (394) 
CCCOc1ccn2c(-c3ccccc3)c(-c3ccc(C4(N)CCC4)cc3)nc2n1

>  <Name>  (394) 
nan

>  <Pocket>  (394) 
nan

>  <ATP_Site>  (394) 
nan

>  <Peripheral>  (394) 
nan

>  <Num_H_Atoms_ProtBoundConf>  (394) 
nan

>  <Num_Resolved_Atoms>  (394) 
nan

>  <Num_Not_Resolved_Atoms>  (394) 
nan

$$$$
CHEMBL3699687
     RDKit          3D

  0  0  0  0  0  0  0  0  0  0999 V3000
M  V30 BEGIN CTAB
M  V30 COUNTS 50 54 0 0 0
M  V30 BEGIN ATOM
M  V30 1 C -1.281645 -7.320327 -0.066844 0
M  V30 2 C -0.547801 -6.045468 -0.360954 0
M  V30 3 C 0.493760 -6.137684 -1.278700 0
M  V30 4 C 1.171304 -4.966993 -1.552060 0
M  V30 5 C 0.841726 -3.749542 -0.949182 0
M  V30 6 N 1.329452 -2.494281 -1.037730 0
M  V30 7 C 0.605258 -1.686704 -0.204203 0
M  V30 8 C 0.895335 -0.262087 -0.078077 0
M  V30 9 C 2.142575 0.124937 0.375839 0
M  V30 10 C 2.489305 1.476525 0.520322 0
M  V30 11 C 1.512197 2.416739 0.183033 0
M  V30 12 C 1.988425 3.810994 0.373966 0
M  V30 13 N 3.334617 3.988096 -0.138036 0
M  V30 14 C 1.029254 4.903797 0.040292 0
M  V30 15 C 0.702112 5.123163 1.485725 0
M  V30 16 C 1.899354 4.238679 1.836415 0
M  V30 17 C 0.280420 2.009697 -0.265514 0
M  V30 18 C -0.060558 0.683671 -0.407600 0
M  V30 19 C -0.345254 -2.467400 0.406027 0
M  V30 20 C -1.315137 -1.997614 1.361076 0
M  V30 21 C -1.098626 -1.442152 2.617529 0
M  V30 22 C -2.160778 -1.045293 3.403366 0
M  V30 23 C -3.470252 -1.183152 2.976158 0
M  V30 24 C -3.724615 -1.733825 1.726853 0
M  V30 25 C -2.630543 -2.126199 0.953817 0
M  V30 26 N -0.185261 -3.719891 -0.060363 0
M  V30 27 C -0.879163 -4.843468 0.239429 0
M  V30 28 H -0.539827 -8.110201 0.105356 0
M  V30 29 H -1.845988 -7.173518 0.896755 0
M  V30 30 H -2.025134 -7.518761 -0.848365 0
M  V30 31 H 0.758797 -7.080156 -1.753934 0
M  V30 32 H 2.000853 -4.970022 -2.264387 0
M  V30 33 H 2.868779 -0.659438 0.625031 0
M  V30 34 H 3.483660 1.679869 0.880572 0
M  V30 35 H 3.994398 4.001524 0.669679 0
M  V30 36 H 3.359823 4.909029 -0.626044 0
M  V30 37 H 1.610234 5.792844 -0.331747 0
M  V30 38 H 0.219500 4.716341 -0.660119 0
M  V30 39 H 0.885529 6.160589 1.866237 0
M  V30 40 H -0.249425 4.719359 1.863089 0
M  V30 41 H 1.583429 3.413088 2.528482 0
M  V30 42 H 2.783997 4.775895 2.198602 0
M  V30 43 H -0.407423 2.785335 -0.501035 0
M  V30 44 H -1.026658 0.424464 -0.758437 0
M  V30 45 H -0.048688 -1.367979 2.879110 0
M  V30 46 H -1.909914 -0.622739 4.367251 0
M  V30 47 H -4.250550 -0.859849 3.624020 0
M  V30 48 H -4.742301 -1.850103 1.374456 0
M  V30 49 H -2.917354 -2.550706 -0.017610 0
M  V30 50 H -1.699679 -4.810522 0.951723 0
M  V30 END ATOM
M  V30 BEGIN BOND
M  V30 1 1 1 2
M  V30 2 1 2 3
M  V30 3 2 3 4
M  V30 4 1 4 5
M  V30 5 2 5 6
M  V30 6 1 6 7
M  V30 7 1 7 8
M  V30 8 2 8 9
M  V30 9 1 9 10
M  V30 10 2 10 11
M  V30 11 1 11 12
M  V30 12 1 12 13
M  V30 13 1 12 14
M  V30 14 1 14 15
M  V30 15 1 15 16
M  V30 16 1 11 17
M  V30 17 2 17 18
M  V30 18 2 7 19
M  V30 19 1 19 20
M  V30 20 2 20 21
M  V30 21 1 21 22
M  V30 22 2 22 23
M  V30 23 1 23 24
M  V30 24 2 24 25
M  V30 25 1 19 26
M  V30 26 1 26 27
M  V30 27 2 27 2
M  V30 28 1 26 5
M  V30 29 1 18 8
M  V30 30 1 25 20
M  V30 31 1 16 12
M  V30 32 1 1 28
M  V30 33 1 1 29
M  V30 34 1 1 30
M  V30 35 1 3 31
M  V30 36 1 4 32
M  V30 37 1 9 33
M  V30 38 1 10 34
M  V30 39 1 13 35
M  V30 40 1 13 36
M  V30 41 1 14 37
M  V30 42 1 14 38
M  V30 43 1 15 39
M  V30 44 1 15 40
M  V30 45 1 16 41
M  V30 46 1 16 42
M  V30 47 1 17 43
M  V30 48 1 18 44
M  V30 49 1 21 45
M  V30 50 1 22 46
M  V30 51 1 23 47
M  V30 52 1 24 48
M  V30 53 1 25 49
M  V30 54 1 27 50
M  V30 END BOND
M  V30 END CTAB
M  END
>  <Dataset>  (395) 
ChEMBL_Kinases

>  <Ligand_Instance>  (395) 
nan

>  <PDB_ID>  (395) 
nan

>  <Standardized_SMILES>  (395) 
Cc1ccc2nc(-c3ccc(C4(N)CCC4)cc3)c(-c3ccccc3)n2c1

>  <Name>  (395) 
nan

>  <Pocket>  (395) 
nan

>  <ATP_Site>  (395) 
nan

>  <Peripheral>  (395) 
nan

>  <Num_H_Atoms_ProtBoundConf>  (395) 
nan

>  <Num_Resolved_Atoms>  (395) 
nan

>  <Num_Not_Resolved_Atoms>  (395) 
nan

$$$$
CHEMBL2325732
     RDKit          3D

  0  0  0  0  0  0  0  0  0  0999 V3000
M  V30 BEGIN CTAB
M  V30 COUNTS 58 61 0 0 0
M  V30 BEGIN ATOM
M  V30 1 C 0.799750 0.841223 4.616250 0
M  V30 2 C 1.488866 -0.286359 3.928008 0
M  V30 3 O 1.005873 -1.425499 4.111397 0
M  V30 4 N 2.629928 -0.077454 3.110161 0
M  V30 5 C 3.350078 -1.119277 2.411231 0
M  V30 6 C 2.445245 -1.828038 1.436085 0
M  V30 7 N 1.906148 -0.918302 0.436622 0
M  V30 8 C 0.563349 -0.505799 0.089000 0
M  V30 9 O -0.132214 -1.176464 0.931004 0
M  V30 10 C 0.479076 0.469290 -1.029811 0
M  V30 11 N 1.792431 0.851648 -1.536415 0
M  V30 12 C -0.173043 1.727728 -0.503467 0
M  V30 13 C -1.667018 1.715238 -0.668574 0
M  V30 14 N -2.192324 0.372374 -0.819168 0
M  V30 15 C -3.390341 -0.096011 -0.190920 0
M  V30 16 N -3.391512 -1.139736 0.684327 0
M  V30 17 C -4.551866 -1.556319 1.262481 0
M  V30 18 N -5.746976 -0.965021 1.002401 0
M  V30 19 C -5.805425 0.073482 0.143244 0
M  V30 20 N -6.829555 0.848020 -0.304335 0
M  V30 21 C -6.358637 1.773089 -1.172841 0
M  V30 22 C -4.993045 1.543065 -1.249270 0
M  V30 23 C -4.631011 0.489677 -0.437280 0
M  V30 24 C -1.599869 -0.680633 -1.612896 0
M  V30 25 C -0.288375 -0.175225 -2.155741 0
M  V30 26 C 3.127963 -2.985495 0.803258 0
M  V30 27 C 2.922646 -4.286061 1.255477 0
M  V30 28 C 3.523275 -5.420057 0.717980 0
M  V30 29 C 4.385242 -5.228376 -0.342990 0
M  V30 30 Cl 5.179979 -6.616659 -1.071242 0
M  V30 31 C 4.627477 -3.973512 -0.832243 0
M  V30 32 C 4.002751 -2.886586 -0.258187 0
M  V30 33 H 0.885237 0.766669 5.712580 0
M  V30 34 H -0.274426 0.766006 4.323395 0
M  V30 35 H 1.148778 1.812536 4.216125 0
M  V30 36 H 2.932232 0.914662 3.039424 0
M  V30 37 H 4.262110 -0.722083 1.974459 0
M  V30 38 H 3.610977 -1.871395 3.197127 0
M  V30 39 H 1.600757 -2.251592 2.018284 0
M  V30 40 H 2.824708 -0.607774 -0.009166 0
M  V30 41 H 2.194857 0.145375 -2.162614 0
M  V30 42 H 2.417177 1.224607 -0.807625 0
M  V30 43 H 0.230854 2.608300 -1.041455 0
M  V30 44 H 0.111259 1.838684 0.563767 0
M  V30 45 H -2.113392 2.116863 0.264210 0
M  V30 46 H -2.013348 2.345816 -1.500441 0
M  V30 47 H -4.588649 -2.379292 1.959634 0
M  V30 48 H -7.840958 0.782706 -0.049908 0
M  V30 49 H -6.929358 2.537199 -1.701183 0
M  V30 50 H -4.373508 2.139830 -1.871800 0
M  V30 51 H -2.288269 -1.002707 -2.434108 0
M  V30 52 H -1.436102 -1.549897 -0.934829 0
M  V30 53 H -0.501758 0.570127 -2.973370 0
M  V30 54 H 0.344100 -1.003893 -2.550261 0
M  V30 55 H 2.235642 -4.438088 2.100789 0
M  V30 56 H 3.297392 -6.382970 1.141177 0
M  V30 57 H 5.309736 -3.825445 -1.671957 0
M  V30 58 H 4.219693 -1.930047 -0.668536 0
M  V30 END ATOM
M  V30 BEGIN BOND
M  V30 1 1 1 2
M  V30 2 2 2 3
M  V30 3 1 2 4
M  V30 4 1 4 5
M  V30 5 1 5 6
M  V30 6 1 6 7
M  V30 7 1 7 8
M  V30 8 2 8 9
M  V30 9 1 8 10
M  V30 10 1 10 11
M  V30 11 1 10 12
M  V30 12 1 12 13
M  V30 13 1 13 14
M  V30 14 1 14 15
M  V30 15 2 15 16
M  V30 16 1 16 17
M  V30 17 2 17 18
M  V30 18 1 18 19
M  V30 19 1 19 20
M  V30 20 1 20 21
M  V30 21 2 21 22
M  V30 22 1 22 23
M  V30 23 1 14 24
M  V30 24 1 24 25
M  V30 25 1 6 26
M  V30 26 2 26 27
M  V30 27 1 27 28
M  V30 28 2 28 29
M  V30 29 1 29 30
M  V30 30 1 29 31
M  V30 31 2 31 32
M  V30 32 1 25 10
M  V30 33 1 32 26
M  V30 34 1 23 15
M  V30 35 2 23 19
M  V30 36 1 1 33
M  V30 37 1 1 34
M  V30 38 1 1 35
M  V30 39 1 4 36
M  V30 40 1 5 37
M  V30 41 1 5 38
M  V30 42 1 6 39
M  V30 43 1 7 40
M  V30 44 1 11 41
M  V30 45 1 11 42
M  V30 46 1 12 43
M  V30 47 1 12 44
M  V30 48 1 13 45
M  V30 49 1 13 46
M  V30 50 1 17 47
M  V30 51 1 20 48
M  V30 52 1 21 49
M  V30 53 1 22 50
M  V30 54 1 24 51
M  V30 55 1 24 52
M  V30 56 1 25 53
M  V30 57 1 25 54
M  V30 58 1 27 55
M  V30 59 1 28 56
M  V30 60 1 31 57
M  V30 61 1 32 58
M  V30 END BOND
M  V30 END CTAB
M  END
>  <Dataset>  (396) 
ChEMBL_Kinases

>  <Ligand_Instance>  (396) 
nan

>  <PDB_ID>  (396) 
nan

>  <Standardized_SMILES>  (396) 
CC(=O)NCC(NC(=O)C1(N)CCN(c2ncnc3[nH]ccc23)CC1)c1ccc(Cl)cc1

>  <Name>  (396) 
nan

>  <Pocket>  (396) 
nan

>  <ATP_Site>  (396) 
nan

>  <Peripheral>  (396) 
nan

>  <Num_H_Atoms_ProtBoundConf>  (396) 
nan

>  <Num_Resolved_Atoms>  (396) 
nan

>  <Num_Not_Resolved_Atoms>  (396) 
nan

$$$$
CHEMBL2325733
     RDKit          3D

  0  0  0  0  0  0  0  0  0  0999 V3000
M  V30 BEGIN CTAB
M  V30 COUNTS 56 59 0 0 0
M  V30 BEGIN ATOM
M  V30 1 N 0.954317 -1.925677 3.357014 0
M  V30 2 C 0.077728 -1.899291 2.198906 0
M  V30 3 C 0.582745 -0.805375 1.321909 0
M  V30 4 O -0.173823 -0.766368 0.317633 0
M  V30 5 N 1.664641 0.072795 1.468182 0
M  V30 6 C 1.863297 1.037327 0.389410 0
M  V30 7 C 3.181019 0.882965 -0.313392 0
M  V30 8 S 3.330928 2.101096 -1.615912 0
M  V30 9 N 2.034701 1.845270 -2.732590 0
M  V30 10 O 3.299800 3.489300 -1.081052 0
M  V30 11 O 4.646159 1.869099 -2.331062 0
M  V30 12 C 1.654554 2.393937 0.942528 0
M  V30 13 C 2.197171 2.785275 2.146341 0
M  V30 14 C 2.051920 4.019056 2.727177 0
M  V30 15 C 1.296859 4.955920 2.051548 0
M  V30 16 Cl 1.047318 6.563518 2.703067 0
M  V30 17 C 0.712319 4.648299 0.831703 0
M  V30 18 C 0.913043 3.381257 0.324502 0
M  V30 19 C 0.263827 -3.175006 1.446089 0
M  V30 20 C -0.878623 -4.131016 1.467187 0
M  V30 21 N -2.064681 -3.372294 1.102423 0
M  V30 22 C -3.089897 -3.737680 0.191367 0
M  V30 23 N -4.365154 -3.831576 0.659775 0
M  V30 24 C -5.393867 -4.174255 -0.156123 0
M  V30 25 N -5.171293 -4.435396 -1.478691 0
M  V30 26 C -3.900272 -4.333517 -1.908448 0
M  V30 27 N -3.391870 -4.530740 -3.145655 0
M  V30 28 C -2.051740 -4.332535 -3.192117 0
M  V30 29 C -1.688878 -3.987328 -1.899963 0
M  V30 30 C -2.819136 -3.991841 -1.133100 0
M  V30 31 C -2.384875 -2.063600 1.650596 0
M  V30 32 C -1.316316 -1.549062 2.568850 0
M  V30 33 H 1.878143 -2.300991 3.055099 0
M  V30 34 H 1.008900 -1.009367 3.843453 0
M  V30 35 H 2.194786 -0.082683 2.346320 0
M  V30 36 H 1.093742 0.902179 -0.398899 0
M  V30 37 H 3.232525 -0.100275 -0.790667 0
M  V30 38 H 4.069584 1.005196 0.317447 0
M  V30 39 H 1.365356 2.640159 -2.782623 0
M  V30 40 H 2.404837 1.609610 -3.687008 0
M  V30 41 H 2.808246 2.095101 2.739221 0
M  V30 42 H 2.498840 4.283447 3.678827 0
M  V30 43 H 0.138718 5.391187 0.339089 0
M  V30 44 H 0.446364 3.159968 -0.631681 0
M  V30 45 H 1.167941 -3.745159 1.814187 0
M  V30 46 H 0.501290 -3.006540 0.370548 0
M  V30 47 H -0.708340 -4.912483 0.721096 0
M  V30 48 H -1.077930 -4.556687 2.476258 0
M  V30 49 H -6.415994 -4.253999 0.199007 0
M  V30 50 H -3.958743 -4.809481 -3.998274 0
M  V30 51 H -1.446829 -4.433637 -4.067990 0
M  V30 52 H -0.715710 -3.757044 -1.548643 0
M  V30 53 H -3.332585 -2.213574 2.210200 0
M  V30 54 H -2.619946 -1.340990 0.839915 0
M  V30 55 H -1.534587 -1.925134 3.588090 0
M  V30 56 H -1.457023 -0.447221 2.611769 0
M  V30 END ATOM
M  V30 BEGIN BOND
M  V30 1 1 1 2
M  V30 2 1 2 3
M  V30 3 2 3 4
M  V30 4 1 3 5
M  V30 5 1 5 6
M  V30 6 1 6 7
M  V30 7 1 7 8
M  V30 8 1 8 9
M  V30 9 2 8 10
M  V30 10 2 8 11
M  V30 11 1 6 12
M  V30 12 2 12 13
M  V30 13 1 13 14
M  V30 14 2 14 15
M  V30 15 1 15 16
M  V30 16 1 15 17
M  V30 17 2 17 18
M  V30 18 1 2 19
M  V30 19 1 19 20
M  V30 20 1 20 21
M  V30 21 1 21 22
M  V30 22 2 22 23
M  V30 23 1 23 24
M  V30 24 2 24 25
M  V30 25 1 25 26
M  V30 26 1 26 27
M  V30 27 1 27 28
M  V30 28 2 28 29
M  V30 29 1 29 30
M  V30 30 1 21 31
M  V30 31 1 31 32
M  V30 32 1 32 2
M  V30 33 1 18 12
M  V30 34 1 30 22
M  V30 35 2 30 26
M  V30 36 1 1 33
M  V30 37 1 1 34
M  V30 38 1 5 35
M  V30 39 1 6 36
M  V30 40 1 7 37
M  V30 41 1 7 38
M  V30 42 1 9 39
M  V30 43 1 9 40
M  V30 44 1 13 41
M  V30 45 1 14 42
M  V30 46 1 17 43
M  V30 47 1 18 44
M  V30 48 1 19 45
M  V30 49 1 19 46
M  V30 50 1 20 47
M  V30 51 1 20 48
M  V30 52 1 24 49
M  V30 53 1 27 50
M  V30 54 1 28 51
M  V30 55 1 29 52
M  V30 56 1 31 53
M  V30 57 1 31 54
M  V30 58 1 32 55
M  V30 59 1 32 56
M  V30 END BOND
M  V30 END CTAB
M  END
>  <Dataset>  (397) 
ChEMBL_Kinases

>  <Ligand_Instance>  (397) 
nan

>  <PDB_ID>  (397) 
nan

>  <Standardized_SMILES>  (397) 
NC1(C(=O)NC(CS(N)(=O)=O)c2ccc(Cl)cc2)CCN(c2ncnc3[nH]ccc23)CC1

>  <Name>  (397) 
nan

>  <Pocket>  (397) 
nan

>  <ATP_Site>  (397) 
nan

>  <Peripheral>  (397) 
nan

>  <Num_H_Atoms_ProtBoundConf>  (397) 
nan

>  <Num_Resolved_Atoms>  (397) 
nan

>  <Num_Not_Resolved_Atoms>  (397) 
nan

$$$$
CHEMBL2325734
     RDKit          3D

  0  0  0  0  0  0  0  0  0  0999 V3000
M  V30 BEGIN CTAB
M  V30 COUNTS 59 62 0 0 0
M  V30 BEGIN ATOM
M  V30 1 N -0.367695 -2.520022 0.335481 0
M  V30 2 C -0.378411 -1.129598 -0.138946 0
M  V30 3 C 0.139560 -0.333554 0.983503 0
M  V30 4 O 0.164202 -1.402330 1.686407 0
M  V30 5 N 0.496654 1.025476 1.286719 0
M  V30 6 C 0.963818 1.294006 2.600709 0
M  V30 7 C 2.107512 2.183159 2.810085 0
M  V30 8 C 3.437958 1.898343 2.262358 0
M  V30 9 S 3.630293 1.812336 0.522434 0
M  V30 10 N 5.309443 1.502188 0.115411 0
M  V30 11 O 3.281077 3.100497 -0.159400 0
M  V30 12 O 2.868942 0.726215 -0.145822 0
M  V30 13 C -0.223494 1.748806 3.457837 0
M  V30 14 C -1.030659 2.681296 2.808284 0
M  V30 15 C -2.146856 3.202147 3.429566 0
M  V30 16 C -2.426339 2.764882 4.707359 0
M  V30 17 Cl -3.838307 3.409968 5.520479 0
M  V30 18 C -1.627650 1.848101 5.338395 0
M  V30 19 C -0.511276 1.316549 4.738003 0
M  V30 20 C -1.843651 -0.735588 -0.309597 0
M  V30 21 C -2.465708 -1.344009 -1.546642 0
M  V30 22 N -1.439781 -2.259367 -2.097897 0
M  V30 23 C -1.754407 -3.625169 -2.026049 0
M  V30 24 N -3.029912 -4.011579 -1.817342 0
M  V30 25 C -3.419299 -5.294638 -1.769922 0
M  V30 26 N -2.554529 -6.311129 -1.929000 0
M  V30 27 C -1.260446 -6.019437 -2.141256 0
M  V30 28 N -0.184682 -6.793794 -2.322065 0
M  V30 29 C 0.894691 -6.015745 -2.484010 0
M  V30 30 C 0.454970 -4.712532 -2.397948 0
M  V30 31 C -0.896543 -4.691563 -2.183728 0
M  V30 32 C -0.345803 -1.492045 -2.602509 0
M  V30 33 C 0.396706 -0.947933 -1.399740 0
M  V30 34 H -1.107027 -2.698805 1.018620 0
M  V30 35 H 0.569154 -2.884136 0.528003 0
M  V30 36 H 0.310104 1.512251 0.407486 0
M  V30 37 H 1.206495 0.301646 3.094792 0
M  V30 38 H 1.861941 3.268609 2.507462 0
M  V30 39 H 2.232376 2.336972 3.943307 0
M  V30 40 H 4.140006 2.733824 2.599519 0
M  V30 41 H 3.928824 0.999807 2.769042 0
M  V30 42 H 5.475278 0.490998 0.398027 0
M  V30 43 H 5.446852 1.559172 -0.907518 0
M  V30 44 H -0.830789 3.039855 1.803839 0
M  V30 45 H -2.786798 3.926520 2.944107 0
M  V30 46 H -1.827999 1.489536 6.343567 0
M  V30 47 H 0.188928 0.591349 5.135987 0
M  V30 48 H -2.386070 -1.154753 0.564748 0
M  V30 49 H -1.969561 0.364622 -0.266622 0
M  V30 50 H -2.682286 -0.533191 -2.272253 0
M  V30 51 H -3.419817 -1.849041 -1.363809 0
M  V30 52 H -4.460306 -5.535381 -1.598792 0
M  V30 53 H -0.127611 -7.837813 -2.344216 0
M  V30 54 H 1.931971 -6.327597 -2.652775 0
M  V30 55 H 1.120610 -3.871783 -2.484229 0
M  V30 56 H -0.782173 -0.573902 -3.113628 0
M  V30 57 H 0.271495 -1.942194 -3.372276 0
M  V30 58 H 0.589804 0.145910 -1.505476 0
M  V30 59 H 1.375088 -1.441346 -1.298518 0
M  V30 END ATOM
M  V30 BEGIN BOND
M  V30 1 1 1 2
M  V30 2 1 2 3
M  V30 3 2 3 4
M  V30 4 1 3 5
M  V30 5 1 5 6
M  V30 6 1 6 7
M  V30 7 1 7 8
M  V30 8 1 8 9
M  V30 9 1 9 10
M  V30 10 2 9 11
M  V30 11 2 9 12
M  V30 12 1 6 13
M  V30 13 2 13 14
M  V30 14 1 14 15
M  V30 15 2 15 16
M  V30 16 1 16 17
M  V30 17 1 16 18
M  V30 18 2 18 19
M  V30 19 1 2 20
M  V30 20 1 20 21
M  V30 21 1 21 22
M  V30 22 1 22 23
M  V30 23 2 23 24
M  V30 24 1 24 25
M  V30 25 2 25 26
M  V30 26 1 26 27
M  V30 27 1 27 28
M  V30 28 1 28 29
M  V30 29 2 29 30
M  V30 30 1 30 31
M  V30 31 1 22 32
M  V30 32 1 32 33
M  V30 33 1 33 2
M  V30 34 1 19 13
M  V30 35 1 31 23
M  V30 36 2 31 27
M  V30 37 1 1 34
M  V30 38 1 1 35
M  V30 39 1 5 36
M  V30 40 1 6 37
M  V30 41 1 7 38
M  V30 42 1 7 39
M  V30 43 1 8 40
M  V30 44 1 8 41
M  V30 45 1 10 42
M  V30 46 1 10 43
M  V30 47 1 14 44
M  V30 48 1 15 45
M  V30 49 1 18 46
M  V30 50 1 19 47
M  V30 51 1 20 48
M  V30 52 1 20 49
M  V30 53 1 21 50
M  V30 54 1 21 51
M  V30 55 1 25 52
M  V30 56 1 28 53
M  V30 57 1 29 54
M  V30 58 1 30 55
M  V30 59 1 32 56
M  V30 60 1 32 57
M  V30 61 1 33 58
M  V30 62 1 33 59
M  V30 END BOND
M  V30 END CTAB
M  END
>  <Dataset>  (398) 
ChEMBL_Kinases

>  <Ligand_Instance>  (398) 
nan

>  <PDB_ID>  (398) 
nan

>  <Standardized_SMILES>  (398) 
NC1(C(=O)NC(CCS(N)(=O)=O)c2ccc(Cl)cc2)CCN(c2ncnc3[nH]ccc23)CC1

>  <Name>  (398) 
nan

>  <Pocket>  (398) 
nan

>  <ATP_Site>  (398) 
nan

>  <Peripheral>  (398) 
nan

>  <Num_H_Atoms_ProtBoundConf>  (398) 
nan

>  <Num_Resolved_Atoms>  (398) 
nan

>  <Num_Not_Resolved_Atoms>  (398) 
nan

$$$$
CHEMBL2325735
     RDKit          3D

  0  0  0  0  0  0  0  0  0  0999 V3000
M  V30 BEGIN CTAB
M  V30 COUNTS 59 62 0 0 0
M  V30 BEGIN ATOM
M  V30 1 C 2.263716 -3.630245 4.528123 0
M  V30 2 S 3.507555 -2.569011 3.957712 0
M  V30 3 O 3.638482 -1.370717 4.867996 0
M  V30 4 O 4.840807 -3.291491 4.051977 0
M  V30 5 N 3.369352 -2.035261 2.358500 0
M  V30 6 C 2.215380 -1.269854 2.025485 0
M  V30 7 C 2.266009 -0.883416 0.558314 0
M  V30 8 N 1.094473 -0.120817 0.271459 0
M  V30 9 C 1.231344 1.254480 -0.060562 0
M  V30 10 O 2.361464 1.829032 -0.110847 0
M  V30 11 C 0.214921 2.306382 -0.406868 0
M  V30 12 N 1.026442 3.513086 -0.641281 0
M  V30 13 C -0.630113 2.576737 0.795792 0
M  V30 14 C -1.768589 1.634124 0.988881 0
M  V30 15 N -2.265910 1.030216 -0.224807 0
M  V30 16 C -2.922609 -0.218088 -0.307064 0
M  V30 17 N -2.300396 -1.144778 -1.091818 0
M  V30 18 C -2.819072 -2.373907 -1.255447 0
M  V30 19 N -3.973561 -2.781417 -0.668353 0
M  V30 20 C -4.600622 -1.886343 0.106644 0
M  V30 21 N -5.730707 -1.882610 0.845543 0
M  V30 22 C -5.939469 -0.707867 1.461556 0
M  V30 23 C -4.889245 0.126885 1.117239 0
M  V30 24 C -4.094809 -0.620125 0.293803 0
M  V30 25 C -2.028511 1.839602 -1.415314 0
M  V30 26 C -0.532716 1.978990 -1.652527 0
M  V30 27 C 2.451264 -2.043841 -0.336330 0
M  V30 28 C 3.653375 -2.402344 -0.936728 0
M  V30 29 C 3.729984 -3.519450 -1.768964 0
M  V30 30 C 2.606980 -4.286982 -2.007959 0
M  V30 31 Cl 2.705807 -5.693573 -3.056501 0
M  V30 32 C 1.385597 -3.946493 -1.415169 0
M  V30 33 C 1.319858 -2.823613 -0.581840 0
M  V30 34 H 2.112421 -3.519993 5.641793 0
M  V30 35 H 1.266699 -3.489502 4.094938 0
M  V30 36 H 2.501935 -4.707894 4.383133 0
M  V30 37 H 4.222986 -1.483324 2.123856 0
M  V30 38 H 2.230921 -0.312834 2.590051 0
M  V30 39 H 1.259165 -1.746669 2.194423 0
M  V30 40 H 3.132289 -0.196895 0.457372 0
M  V30 41 H 0.093575 -0.389474 0.256081 0
M  V30 42 H 1.572757 3.271284 -1.517317 0
M  V30 43 H 1.675119 3.682991 0.147655 0
M  V30 44 H 0.022259 2.504039 1.687029 0
M  V30 45 H -1.007733 3.612498 0.742084 0
M  V30 46 H -1.518793 0.801772 1.686386 0
M  V30 47 H -2.600578 2.183402 1.500688 0
M  V30 48 H -2.338173 -3.121059 -1.874539 0
M  V30 49 H -6.382005 -2.718764 0.928989 0
M  V30 50 H -6.785096 -0.475425 2.108269 0
M  V30 51 H -4.757240 1.141973 1.445350 0
M  V30 52 H -2.429170 1.304499 -2.298027 0
M  V30 53 H -2.528001 2.825200 -1.368380 0
M  V30 54 H -0.110696 1.089857 -2.147563 0
M  V30 55 H -0.433111 2.808928 -2.380547 0
M  V30 56 H 4.517185 -1.767385 -0.720508 0
M  V30 57 H 4.689080 -3.743696 -2.203180 0
M  V30 58 H 0.501913 -4.557005 -1.608067 0
M  V30 59 H 0.374679 -2.598754 -0.151067 0
M  V30 END ATOM
M  V30 BEGIN BOND
M  V30 1 1 1 2
M  V30 2 2 2 3
M  V30 3 2 2 4
M  V30 4 1 2 5
M  V30 5 1 5 6
M  V30 6 1 6 7
M  V30 7 1 7 8
M  V30 8 1 8 9
M  V30 9 2 9 10
M  V30 10 1 9 11
M  V30 11 1 11 12
M  V30 12 1 11 13
M  V30 13 1 13 14
M  V30 14 1 14 15
M  V30 15 1 15 16
M  V30 16 2 16 17
M  V30 17 1 17 18
M  V30 18 2 18 19
M  V30 19 1 19 20
M  V30 20 1 20 21
M  V30 21 1 21 22
M  V30 22 2 22 23
M  V30 23 1 23 24
M  V30 24 1 15 25
M  V30 25 1 25 26
M  V30 26 1 7 27
M  V30 27 2 27 28
M  V30 28 1 28 29
M  V30 29 2 29 30
M  V30 30 1 30 31
M  V30 31 1 30 32
M  V30 32 2 32 33
M  V30 33 1 26 11
M  V30 34 1 33 27
M  V30 35 1 24 16
M  V30 36 2 24 20
M  V30 37 1 1 34
M  V30 38 1 1 35
M  V30 39 1 1 36
M  V30 40 1 5 37
M  V30 41 1 6 38
M  V30 42 1 6 39
M  V30 43 1 7 40
M  V30 44 1 8 41
M  V30 45 1 12 42
M  V30 46 1 12 43
M  V30 47 1 13 44
M  V30 48 1 13 45
M  V30 49 1 14 46
M  V30 50 1 14 47
M  V30 51 1 18 48
M  V30 52 1 21 49
M  V30 53 1 22 50
M  V30 54 1 23 51
M  V30 55 1 25 52
M  V30 56 1 25 53
M  V30 57 1 26 54
M  V30 58 1 26 55
M  V30 59 1 28 56
M  V30 60 1 29 57
M  V30 61 1 32 58
M  V30 62 1 33 59
M  V30 END BOND
M  V30 END CTAB
M  END
>  <Dataset>  (399) 
ChEMBL_Kinases

>  <Ligand_Instance>  (399) 
nan

>  <PDB_ID>  (399) 
nan

>  <Standardized_SMILES>  (399) 
CS(=O)(=O)NCC(NC(=O)C1(N)CCN(c2ncnc3[nH]ccc23)CC1)c1ccc(Cl)cc1

>  <Name>  (399) 
nan

>  <Pocket>  (399) 
nan

>  <ATP_Site>  (399) 
nan

>  <Peripheral>  (399) 
nan

>  <Num_H_Atoms_ProtBoundConf>  (399) 
nan

>  <Num_Resolved_Atoms>  (399) 
nan

>  <Num_Not_Resolved_Atoms>  (399) 
nan

$$$$
CHEMBL3699707
     RDKit          3D

  0  0  0  0  0  0  0  0  0  0999 V3000
M  V30 BEGIN CTAB
M  V30 COUNTS 56 60 0 0 0
M  V30 BEGIN ATOM
M  V30 1 C 3.256279 -5.198379 5.543373 0
M  V30 2 C 2.920524 -3.723600 5.519022 0
M  V30 3 C 3.005396 -3.199051 6.926457 0
M  V30 4 O 3.801647 -3.024281 4.639251 0
M  V30 5 C 3.193083 -2.358385 3.584425 0
M  V30 6 C 4.015008 -1.657650 2.695874 0
M  V30 7 C 3.471967 -0.963008 1.609115 0
M  V30 8 N 2.133355 -1.006961 1.469573 0
M  V30 9 C 1.356518 -0.431386 0.518825 0
M  V30 10 C 1.725422 0.398869 -0.626434 0
M  V30 11 C 1.398921 -0.176397 -1.848811 0
M  V30 12 C 1.666728 0.452111 -3.047418 0
M  V30 13 C 2.274075 1.682827 -3.030467 0
M  V30 14 C 2.600955 2.259610 -1.819367 0
M  V30 15 C 2.336409 1.637591 -0.617935 0
M  V30 16 C 0.032899 -0.747651 0.775131 0
M  V30 17 C -1.175764 -0.367301 0.041879 0
M  V30 18 C -1.942683 -1.383360 -0.500683 0
M  V30 19 C -3.079801 -1.033699 -1.190757 0
M  V30 20 C -3.503902 0.258504 -1.376794 0
M  V30 21 C -4.690063 0.749150 -2.094993 0
M  V30 22 N -5.344497 1.858298 -1.403641 0
M  V30 23 C -4.340099 1.059175 -3.532297 0
M  V30 24 C -4.848361 -0.316155 -3.890680 0
M  V30 25 C -5.637951 -0.281861 -2.606498 0
M  V30 26 C -2.719961 1.258263 -0.824596 0
M  V30 27 C -1.556769 0.947120 -0.115626 0
M  V30 28 N 0.052263 -1.512090 1.883840 0
M  V30 29 C 1.316223 -1.680022 2.318903 0
M  V30 30 N 1.850361 -2.349232 3.367553 0
M  V30 31 H 4.298831 -5.364104 5.187989 0
M  V30 32 H 3.104404 -5.582149 6.560915 0
M  V30 33 H 2.563138 -5.732218 4.846959 0
M  V30 34 H 1.868159 -3.592777 5.184521 0
M  V30 35 H 3.092567 -2.087162 6.957970 0
M  V30 36 H 2.056993 -3.458341 7.436574 0
M  V30 37 H 3.824727 -3.633942 7.520233 0
M  V30 38 H 5.085149 -1.594528 2.766542 0
M  V30 39 H 4.081823 -0.416329 0.911400 0
M  V30 40 H 0.916730 -1.147413 -1.955041 0
M  V30 41 H 1.432579 0.046284 -4.018892 0
M  V30 42 H 2.516069 2.237678 -3.934643 0
M  V30 43 H 3.072263 3.212835 -1.782742 0
M  V30 44 H 2.556016 2.013313 0.366512 0
M  V30 45 H -1.707528 -2.436410 -0.418433 0
M  V30 46 H -3.713443 -1.790884 -1.629609 0
M  V30 47 H -4.833018 2.045016 -0.514630 0
M  V30 48 H -5.291283 2.708532 -1.992854 0
M  V30 49 H -3.268037 1.256425 -3.717284 0
M  V30 50 H -5.035446 1.810873 -3.975488 0
M  V30 51 H -4.021508 -1.060881 -3.874324 0
M  V30 52 H -5.470809 -0.352290 -4.811930 0
M  V30 53 H -5.714684 -1.236162 -2.064089 0
M  V30 54 H -6.627278 0.190575 -2.805156 0
M  V30 55 H -2.846378 2.351637 -0.836924 0
M  V30 56 H -0.884714 1.655511 0.349045 0
M  V30 END ATOM
M  V30 BEGIN BOND
M  V30 1 1 1 2
M  V30 2 1 2 3
M  V30 3 1 2 4
M  V30 4 1 4 5
M  V30 5 1 5 6
M  V30 6 2 6 7
M  V30 7 1 7 8
M  V30 8 1 8 9
M  V30 9 1 9 10
M  V30 10 2 10 11
M  V30 11 1 11 12
M  V30 12 2 12 13
M  V30 13 1 13 14
M  V30 14 2 14 15
M  V30 15 2 9 16
M  V30 16 1 16 17
M  V30 17 2 17 18
M  V30 18 1 18 19
M  V30 19 2 19 20
M  V30 20 1 20 21
M  V30 21 1 21 22
M  V30 22 1 21 23
M  V30 23 1 23 24
M  V30 24 1 24 25
M  V30 25 1 20 26
M  V30 26 2 26 27
M  V30 27 1 16 28
M  V30 28 2 28 29
M  V30 29 1 29 30
M  V30 30 2 30 5
M  V30 31 1 29 8
M  V30 32 1 15 10
M  V30 33 1 27 17
M  V30 34 1 25 21
M  V30 35 1 1 31
M  V30 36 1 1 32
M  V30 37 1 1 33
M  V30 38 1 2 34
M  V30 39 1 3 35
M  V30 40 1 3 36
M  V30 41 1 3 37
M  V30 42 1 6 38
M  V30 43 1 7 39
M  V30 44 1 11 40
M  V30 45 1 12 41
M  V30 46 1 13 42
M  V30 47 1 14 43
M  V30 48 1 15 44
M  V30 49 1 18 45
M  V30 50 1 19 46
M  V30 51 1 22 47
M  V30 52 1 22 48
M  V30 53 1 23 49
M  V30 54 1 23 50
M  V30 55 1 24 51
M  V30 56 1 24 52
M  V30 57 1 25 53
M  V30 58 1 25 54
M  V30 59 1 26 55
M  V30 60 1 27 56
M  V30 END BOND
M  V30 END CTAB
M  END
>  <Dataset>  (400) 
ChEMBL_Kinases

>  <Ligand_Instance>  (400) 
nan

>  <PDB_ID>  (400) 
nan

>  <Standardized_SMILES>  (400) 
CC(C)Oc1ccn2c(-c3ccccc3)c(-c3ccc(C4(N)CCC4)cc3)nc2n1

>  <Name>  (400) 
nan

>  <Pocket>  (400) 
nan

>  <ATP_Site>  (400) 
nan

>  <Peripheral>  (400) 
nan

>  <Num_H_Atoms_ProtBoundConf>  (400) 
nan

>  <Num_Resolved_Atoms>  (400) 
nan

>  <Num_Not_Resolved_Atoms>  (400) 
nan

$$$$
CHEMBL3702224
     RDKit          3D

  0  0  0  0  0  0  0  0  0  0999 V3000
M  V30 BEGIN CTAB
M  V30 COUNTS 61 65 0 0 0
M  V30 BEGIN ATOM
M  V30 1 C 3.212134 -1.471074 -0.105337 0
M  V30 2 C 3.182637 -0.093219 0.458373 0
M  V30 3 C 2.300057 0.027891 1.682873 0 CFG=1
M  V30 4 C 2.743435 -0.864103 2.799818 0
M  V30 5 N 2.117499 1.387902 2.091538 0
M  V30 6 C 3.048008 2.203134 2.634559 0
M  V30 7 C 4.364806 2.054752 2.961417 0
M  V30 8 N 5.072482 3.045934 3.500421 0
M  V30 9 C 4.592717 4.275220 3.780062 0
M  V30 10 C 3.246606 4.469711 3.460480 0
M  V30 11 C 2.495931 3.451842 2.900065 0
M  V30 12 C 1.190491 3.427907 2.518032 0
M  V30 13 C 0.147429 4.327003 2.524197 0
M  V30 14 N -1.059583 3.933064 2.044633 0
M  V30 15 C -1.246797 2.676119 1.564426 0
M  V30 16 N -2.524986 2.285987 1.065463 0
M  V30 17 C -2.702351 0.956084 0.561174 0
M  V30 18 C -3.914604 0.517882 0.063543 0
M  V30 19 C -4.016857 -0.774096 -0.406641 0
M  V30 20 C -2.953968 -1.651121 -0.400658 0
M  V30 21 N -3.028098 -3.004275 -0.885516 0
M  V30 22 C -4.238272 -3.516996 -1.445978 0
M  V30 23 C -4.056094 -4.631108 -2.435590 0
M  V30 24 N -2.983572 -5.520643 -2.105194 0
M  V30 25 C -1.736807 -4.868945 -1.863037 0
M  V30 26 C -1.095700 -4.250537 -3.074775 0
M  V30 27 C -0.768637 -5.935138 -1.338678 0
M  V30 28 C -1.854219 -3.827456 -0.788501 0
M  V30 29 N -1.806087 -1.158274 0.097211 0
M  V30 30 N -1.683235 0.076159 0.553716 0
M  V30 31 N -0.218708 1.807689 1.564431 0
M  V30 32 C 0.995467 2.149873 2.028580 0
M  V30 33 H 3.034708 -1.528064 -1.198882 0
M  V30 34 H 2.488428 -2.164075 0.358066 0
M  V30 35 H 4.215227 -1.955407 0.044073 0
M  V30 36 H 4.227910 0.233313 0.653233 0
M  V30 37 H 2.818794 0.582446 -0.342459 0
M  V30 38 H 1.291788 -0.355581 1.350220 0
M  V30 39 H 2.468435 -0.327018 3.751822 0
M  V30 40 H 3.822819 -1.037799 2.853207 0
M  V30 41 H 2.153239 -1.815556 2.836432 0
M  V30 42 H 4.862457 1.123123 2.787983 0
M  V30 43 H 5.216872 5.042586 4.219286 0
M  V30 44 H 2.835468 5.449802 3.675333 0
M  V30 45 H 0.367338 5.292124 2.914358 0
M  V30 46 H -3.311056 2.942713 1.064484 0
M  V30 47 H -4.748654 1.186515 0.051998 0
M  V30 48 H -4.957871 -1.086611 -0.782529 0
M  V30 49 H -4.855360 -2.740077 -1.948821 0
M  V30 50 H -4.924954 -3.934536 -0.651918 0
M  V30 51 H -4.979563 -5.242653 -2.509324 0
M  V30 52 H -3.900103 -4.228275 -3.464216 0
M  V30 53 H -2.848882 -6.196878 -2.888400 0
M  V30 54 H -0.101869 -4.709939 -3.316405 0
M  V30 55 H -0.889225 -3.169662 -2.908313 0
M  V30 56 H -1.725612 -4.358334 -3.978219 0
M  V30 57 H 0.074756 -6.102652 -2.047195 0
M  V30 58 H -0.298963 -5.634620 -0.382378 0
M  V30 59 H -1.287733 -6.899084 -1.137416 0
M  V30 60 H -1.931309 -4.375541 0.194303 0
M  V30 61 H -0.966030 -3.158042 -0.768003 0
M  V30 END ATOM
M  V30 BEGIN BOND
M  V30 1 1 1 2
M  V30 2 1 2 3
M  V30 3 1 3 4
M  V30 4 1 3 5
M  V30 5 1 5 6
M  V30 6 2 6 7
M  V30 7 1 7 8
M  V30 8 2 8 9
M  V30 9 1 9 10
M  V30 10 2 10 11
M  V30 11 1 11 12
M  V30 12 2 12 13
M  V30 13 1 13 14
M  V30 14 2 14 15
M  V30 15 1 15 16
M  V30 16 1 16 17
M  V30 17 2 17 18
M  V30 18 1 18 19
M  V30 19 2 19 20
M  V30 20 1 20 21
M  V30 21 1 21 22
M  V30 22 1 22 23
M  V30 23 1 23 24
M  V30 24 1 24 25
M  V30 25 1 25 26
M  V30 26 1 25 27
M  V30 27 1 25 28
M  V30 28 1 20 29
M  V30 29 2 29 30
M  V30 30 1 15 31
M  V30 31 2 31 32
M  V30 32 1 32 5
M  V30 33 1 11 6
M  V30 34 1 32 12
M  V30 35 1 30 17
M  V30 36 1 28 21
M  V30 37 1 1 33
M  V30 38 1 1 34
M  V30 39 1 1 35
M  V30 40 1 2 36
M  V30 41 1 2 37
M  V30 42 1 3 38 CFG=3
M  V30 43 1 4 39
M  V30 44 1 4 40
M  V30 45 1 4 41
M  V30 46 1 7 42
M  V30 47 1 9 43
M  V30 48 1 10 44
M  V30 49 1 13 45
M  V30 50 1 16 46
M  V30 51 1 18 47
M  V30 52 1 19 48
M  V30 53 1 22 49
M  V30 54 1 22 50
M  V30 55 1 23 51
M  V30 56 1 23 52
M  V30 57 1 24 53
M  V30 58 1 26 54
M  V30 59 1 26 55
M  V30 60 1 26 56
M  V30 61 1 27 57
M  V30 62 1 27 58
M  V30 63 1 27 59
M  V30 64 1 28 60
M  V30 65 1 28 61
M  V30 END BOND
M  V30 END CTAB
M  END
>  <Dataset>  (401) 
ChEMBL_Kinases

>  <Ligand_Instance>  (401) 
nan

>  <PDB_ID>  (401) 
nan

>  <Standardized_SMILES>  (401) 
CC[C@@H](C)n1c2cnccc2c2cnc(Nc3ccc(N4CCNC(C)(C)C4)nn3)nc21

>  <Name>  (401) 
nan

>  <Pocket>  (401) 
nan

>  <ATP_Site>  (401) 
nan

>  <Peripheral>  (401) 
nan

>  <Num_H_Atoms_ProtBoundConf>  (401) 
nan

>  <Num_Resolved_Atoms>  (401) 
nan

>  <Num_Not_Resolved_Atoms>  (401) 
nan

$$$$
CHEMBL3699705
     RDKit          3D

  0  0  0  0  0  0  0  0  0  0999 V3000
M  V30 BEGIN CTAB
M  V30 COUNTS 63 68 0 0 0
M  V30 BEGIN ATOM
M  V30 1 C 5.848600 -1.914320 2.479888 0
M  V30 2 O 5.399654 -0.839721 1.689185 0
M  V30 3 C 5.413008 0.477492 2.162803 0
M  V30 4 C 4.946064 1.434089 1.286420 0
M  V30 5 C 4.893681 2.765381 1.597307 0
M  V30 6 C 4.411518 3.885900 0.768520 0
M  V30 7 O 3.065243 4.203166 1.001858 0
M  V30 8 C 2.088872 3.262939 0.785267 0
M  V30 9 C 0.862566 3.863553 1.100441 0
M  V30 10 C -0.356383 3.183605 0.992747 0
M  V30 11 N -0.377926 1.904854 0.573271 0
M  V30 12 C -1.296731 0.926656 0.338722 0
M  V30 13 C -2.710793 1.114865 0.535961 0
M  V30 14 C -3.465350 0.992628 -0.615293 0
M  V30 15 C -4.851986 1.147753 -0.588991 0
M  V30 16 C -5.523873 1.430105 0.592635 0
M  V30 17 C -4.737502 1.548543 1.742055 0
M  V30 18 C -3.366716 1.395538 1.717626 0
M  V30 19 C -0.657142 -0.222986 -0.101244 0
M  V30 20 C -1.310029 -1.478397 -0.453332 0
M  V30 21 C -2.025833 -2.172493 0.527068 0
M  V30 22 C -2.656861 -3.368146 0.222845 0
M  V30 23 C -2.590335 -3.903764 -1.069337 0
M  V30 24 C -3.319469 -5.164178 -1.177890 0
M  V30 25 N -4.661119 -5.033130 -0.625747 0
M  V30 26 C -3.338745 -5.857879 -2.509154 0
M  V30 27 C -2.215862 -6.788106 -2.070710 0
M  V30 28 C -2.545696 -6.344563 -0.641839 0
M  V30 29 C -1.879740 -3.196919 -2.007267 0
M  V30 30 C -1.243912 -2.005488 -1.727594 0
M  V30 31 N 0.675761 0.074272 -0.130637 0
M  V30 32 C 0.810349 1.349295 0.276606 0
M  V30 33 N 1.980826 1.994457 0.377467 0
M  V30 34 C 5.358979 3.059032 2.885892 0
M  V30 35 C 5.835183 2.101322 3.785122 0
M  V30 36 N 5.835687 0.838210 3.365284 0
M  V30 37 H 4.975247 -2.591742 2.644862 0
M  V30 38 H 6.638744 -2.505193 1.962198 0
M  V30 39 H 6.189602 -1.546098 3.472093 0
M  V30 40 H 4.604937 1.162017 0.299556 0
M  V30 41 H 4.628679 3.723928 -0.311153 0
M  V30 42 H 5.047511 4.779825 1.043278 0
M  V30 43 H 0.653219 4.880971 1.455927 0
M  V30 44 H -1.333922 3.585283 1.218569 0
M  V30 45 H -3.092336 0.773247 -1.625183 0
M  V30 46 H -5.472392 1.060246 -1.462433 0
M  V30 47 H -6.592839 1.560068 0.671909 0
M  V30 48 H -5.233270 1.770595 2.692926 0
M  V30 49 H -2.739738 1.480726 2.581004 0
M  V30 50 H -2.056404 -1.724200 1.526075 0
M  V30 51 H -3.179180 -3.808933 1.070386 0
M  V30 52 H -5.141779 -4.253440 -1.109906 0
M  V30 53 H -5.135335 -5.957774 -0.830692 0
M  V30 54 H -3.031119 -5.282399 -3.387034 0
M  V30 55 H -4.254631 -6.497800 -2.674330 0
M  V30 56 H -2.401765 -7.860495 -2.178734 0
M  V30 57 H -1.216126 -6.520336 -2.425299 0
M  V30 58 H -1.597605 -6.107306 -0.125550 0
M  V30 59 H -3.173490 -7.054596 -0.074982 0
M  V30 60 H -1.870205 -3.667542 -2.979978 0
M  V30 61 H -0.701239 -1.500490 -2.513290 0
M  V30 62 H 5.361511 4.086257 3.234636 0
M  V30 63 H 6.174467 2.419045 4.759485 0
M  V30 END ATOM
M  V30 BEGIN BOND
M  V30 1 1 1 2
M  V30 2 1 2 3
M  V30 3 2 3 4
M  V30 4 1 4 5
M  V30 5 1 5 6
M  V30 6 1 6 7
M  V30 7 1 7 8
M  V30 8 1 8 9
M  V30 9 2 9 10
M  V30 10 1 10 11
M  V30 11 1 11 12
M  V30 12 1 12 13
M  V30 13 2 13 14
M  V30 14 1 14 15
M  V30 15 2 15 16
M  V30 16 1 16 17
M  V30 17 2 17 18
M  V30 18 2 12 19
M  V30 19 1 19 20
M  V30 20 2 20 21
M  V30 21 1 21 22
M  V30 22 2 22 23
M  V30 23 1 23 24
M  V30 24 1 24 25
M  V30 25 1 24 26
M  V30 26 1 26 27
M  V30 27 1 27 28
M  V30 28 1 23 29
M  V30 29 2 29 30
M  V30 30 1 19 31
M  V30 31 2 31 32
M  V30 32 1 32 33
M  V30 33 2 5 34
M  V30 34 1 34 35
M  V30 35 2 35 36
M  V30 36 1 36 3
M  V30 37 2 33 8
M  V30 38 1 32 11
M  V30 39 1 18 13
M  V30 40 1 30 20
M  V30 41 1 28 24
M  V30 42 1 1 37
M  V30 43 1 1 38
M  V30 44 1 1 39
M  V30 45 1 4 40
M  V30 46 1 6 41
M  V30 47 1 6 42
M  V30 48 1 9 43
M  V30 49 1 10 44
M  V30 50 1 14 45
M  V30 51 1 15 46
M  V30 52 1 16 47
M  V30 53 1 17 48
M  V30 54 1 18 49
M  V30 55 1 21 50
M  V30 56 1 22 51
M  V30 57 1 25 52
M  V30 58 1 25 53
M  V30 59 1 26 54
M  V30 60 1 26 55
M  V30 61 1 27 56
M  V30 62 1 27 57
M  V30 63 1 28 58
M  V30 64 1 28 59
M  V30 65 1 29 60
M  V30 66 1 30 61
M  V30 67 1 34 62
M  V30 68 1 35 63
M  V30 END BOND
M  V30 END CTAB
M  END
>  <Dataset>  (402) 
ChEMBL_Kinases

>  <Ligand_Instance>  (402) 
nan

>  <PDB_ID>  (402) 
nan

>  <Standardized_SMILES>  (402) 
COc1cc(COc2ccn3c(-c4ccccc4)c(-c4ccc(C5(N)CCC5)cc4)nc3n2)ccn1

>  <Name>  (402) 
nan

>  <Pocket>  (402) 
nan

>  <ATP_Site>  (402) 
nan

>  <Peripheral>  (402) 
nan

>  <Num_H_Atoms_ProtBoundConf>  (402) 
nan

>  <Num_Resolved_Atoms>  (402) 
nan

>  <Num_Not_Resolved_Atoms>  (402) 
nan

$$$$
CHEMBL3699704
     RDKit          3D

  0  0  0  0  0  0  0  0  0  0999 V3000
M  V30 BEGIN CTAB
M  V30 COUNTS 57 61 0 0 0
M  V30 BEGIN ATOM
M  V30 1 C 0.575164 -2.799090 7.253576 0
M  V30 2 O 1.898836 -2.430443 6.953350 0
M  V30 3 C 1.901286 -1.215751 6.233647 0
M  V30 4 C 3.339255 -0.886047 5.948957 0
M  V30 5 O 3.520137 0.312913 5.228242 0
M  V30 6 C 2.970479 0.482754 3.967308 0
M  V30 7 C 3.132947 1.651961 3.237070 0
M  V30 8 C 2.588096 1.839876 1.969848 0
M  V30 9 N 1.868073 0.847875 1.417033 0
M  V30 10 C 1.215943 0.685413 0.252369 0
M  V30 11 C 1.112162 1.653021 -0.829259 0
M  V30 12 C 1.608191 1.589802 -2.115123 0
M  V30 13 C 1.412768 2.605586 -3.024400 0
M  V30 14 C 0.701868 3.749760 -2.686473 0
M  V30 15 C 0.189729 3.836273 -1.388675 0
M  V30 16 C 0.398981 2.815270 -0.510497 0
M  V30 17 C 0.642452 -0.542481 0.208313 0
M  V30 18 C -0.165904 -1.260238 -0.768337 0
M  V30 19 C -1.454486 -1.515676 -0.279398 0
M  V30 20 C -2.411047 -2.179250 -1.000459 0
M  V30 21 C -2.103256 -2.622013 -2.269161 0
M  V30 22 C -3.000080 -3.349841 -3.185361 0
M  V30 23 N -2.320541 -4.503332 -3.767198 0
M  V30 24 C -4.380221 -3.653696 -2.713989 0
M  V30 25 C -4.860558 -2.360837 -3.372105 0
M  V30 26 C -3.624730 -2.480593 -4.270318 0
M  V30 27 C -0.840168 -2.378873 -2.764929 0
M  V30 28 C 0.121933 -1.711309 -2.039600 0
M  V30 29 N 0.958526 -1.132035 1.377110 0
M  V30 30 C 1.713665 -0.268572 2.115629 0
M  V30 31 N 2.236574 -0.455679 3.337884 0
M  V30 32 H -0.014461 -2.935891 6.346274 0
M  V30 33 H 0.594986 -3.670896 7.931914 0
M  V30 34 H 0.152520 -1.921973 7.799660 0
M  V30 35 H 1.275995 -1.303119 5.340621 0
M  V30 36 H 1.537711 -0.446392 6.951583 0
M  V30 37 H 3.754580 -1.731307 5.342393 0
M  V30 38 H 3.845312 -0.815246 6.936100 0
M  V30 39 H 3.711770 2.450960 3.679014 0
M  V30 40 H 2.723643 2.752986 1.416590 0
M  V30 41 H 2.151305 0.686023 -2.323586 0
M  V30 42 H 1.845631 2.451241 -4.004256 0
M  V30 43 H 0.610042 4.477063 -3.470564 0
M  V30 44 H -0.353945 4.744706 -1.177688 0
M  V30 45 H -0.050593 3.013965 0.454407 0
M  V30 46 H -1.825094 -1.216888 0.712563 0
M  V30 47 H -3.402095 -2.391840 -0.661544 0
M  V30 48 H -2.232240 -5.297057 -3.108926 0
M  V30 49 H -2.785180 -4.747890 -4.680430 0
M  V30 50 H -4.798014 -4.502217 -3.331634 0
M  V30 51 H -4.581052 -3.730261 -1.648431 0
M  V30 52 H -5.812795 -2.475203 -3.953499 0
M  V30 53 H -4.876752 -1.486846 -2.705701 0
M  V30 54 H -3.863114 -3.077142 -5.174751 0
M  V30 55 H -3.139208 -1.516451 -4.422421 0
M  V30 56 H -0.487850 -2.679215 -3.745449 0
M  V30 57 H 1.134840 -1.469610 -2.326202 0
M  V30 END ATOM
M  V30 BEGIN BOND
M  V30 1 1 1 2
M  V30 2 1 2 3
M  V30 3 1 3 4
M  V30 4 1 4 5
M  V30 5 1 5 6
M  V30 6 1 6 7
M  V30 7 2 7 8
M  V30 8 1 8 9
M  V30 9 1 9 10
M  V30 10 1 10 11
M  V30 11 2 11 12
M  V30 12 1 12 13
M  V30 13 2 13 14
M  V30 14 1 14 15
M  V30 15 2 15 16
M  V30 16 2 10 17
M  V30 17 1 17 18
M  V30 18 2 18 19
M  V30 19 1 19 20
M  V30 20 2 20 21
M  V30 21 1 21 22
M  V30 22 1 22 23
M  V30 23 1 22 24
M  V30 24 1 24 25
M  V30 25 1 25 26
M  V30 26 1 21 27
M  V30 27 2 27 28
M  V30 28 1 17 29
M  V30 29 2 29 30
M  V30 30 1 30 31
M  V30 31 2 31 6
M  V30 32 1 30 9
M  V30 33 1 16 11
M  V30 34 1 28 18
M  V30 35 1 26 22
M  V30 36 1 1 32
M  V30 37 1 1 33
M  V30 38 1 1 34
M  V30 39 1 3 35
M  V30 40 1 3 36
M  V30 41 1 4 37
M  V30 42 1 4 38
M  V30 43 1 7 39
M  V30 44 1 8 40
M  V30 45 1 12 41
M  V30 46 1 13 42
M  V30 47 1 14 43
M  V30 48 1 15 44
M  V30 49 1 16 45
M  V30 50 1 19 46
M  V30 51 1 20 47
M  V30 52 1 23 48
M  V30 53 1 23 49
M  V30 54 1 24 50
M  V30 55 1 24 51
M  V30 56 1 25 52
M  V30 57 1 25 53
M  V30 58 1 26 54
M  V30 59 1 26 55
M  V30 60 1 27 56
M  V30 61 1 28 57
M  V30 END BOND
M  V30 END CTAB
M  END
>  <Dataset>  (403) 
ChEMBL_Kinases

>  <Ligand_Instance>  (403) 
nan

>  <PDB_ID>  (403) 
nan

>  <Standardized_SMILES>  (403) 
COCCOc1ccn2c(-c3ccccc3)c(-c3ccc(C4(N)CCC4)cc3)nc2n1

>  <Name>  (403) 
nan

>  <Pocket>  (403) 
nan

>  <ATP_Site>  (403) 
nan

>  <Peripheral>  (403) 
nan

>  <Num_H_Atoms_ProtBoundConf>  (403) 
nan

>  <Num_Resolved_Atoms>  (403) 
nan

>  <Num_Not_Resolved_Atoms>  (403) 
nan

$$$$
CHEMBL3699703
     RDKit          3D

  0  0  0  0  0  0  0  0  0  0999 V3000
M  V30 BEGIN CTAB
M  V30 COUNTS 51 55 0 0 0
M  V30 BEGIN ATOM
M  V30 1 N -2.500471 -4.979951 2.112688 0
M  V30 2 C -1.890956 -5.044609 0.791037 0
M  V30 3 C -1.019905 -3.866851 0.571252 0
M  V30 4 C -0.811433 -3.145893 -0.604424 0
M  V30 5 C 0.022660 -2.052738 -0.656883 0
M  V30 6 C 0.700694 -1.611607 0.460637 0
M  V30 7 C 1.538094 -0.442020 0.232218 0
M  V30 8 N 2.776253 -0.191037 -0.242425 0
M  V30 9 C 2.994140 1.152773 -0.203436 0
M  V30 10 C 4.127466 1.825615 -0.594628 0
M  V30 11 C 4.177348 3.209187 -0.482340 0
M  V30 12 C 3.070144 3.861179 0.025110 0
M  V30 13 C 3.024758 5.351506 0.186262 0
M  V30 14 O 3.509665 5.618275 1.475676 0
M  V30 15 C 1.985066 3.092311 0.387457 0
M  V30 16 N 1.901002 1.743720 0.292054 0
M  V30 17 C 0.982836 0.799305 0.572320 0
M  V30 18 C -0.308010 1.255097 1.134385 0
M  V30 19 C -1.507197 1.016139 0.459015 0
M  V30 20 C -2.667653 1.479347 1.043752 0
M  V30 21 C -2.635239 2.150831 2.248412 0
M  V30 22 C -1.459509 2.391939 2.923211 0
M  V30 23 C -0.297757 1.931161 2.342944 0
M  V30 24 C 0.502950 -2.315429 1.626164 0
M  V30 25 C -0.332744 -3.410098 1.678270 0
M  V30 26 C -1.273917 -6.391860 0.480157 0
M  V30 27 C -2.239468 -6.524082 -0.692588 0
M  V30 28 C -2.976314 -5.285712 -0.225608 0
M  V30 29 H -1.845372 -5.268701 2.875723 0
M  V30 30 H -2.842672 -3.998580 2.250956 0
M  V30 31 H -1.331786 -3.493231 -1.460045 0
M  V30 32 H 0.100837 -1.573033 -1.643488 0
M  V30 33 H 4.994913 1.355373 -0.988889 0
M  V30 34 H 5.022160 3.827179 -0.762682 0
M  V30 35 H 1.959797 5.653614 0.181277 0
M  V30 36 H 3.632693 5.832316 -0.591091 0
M  V30 37 H 4.077745 4.876089 1.799730 0
M  V30 38 H 1.134943 3.636143 0.781588 0
M  V30 39 H -1.485833 0.485693 -0.481117 0
M  V30 40 H -3.626259 1.318809 0.558622 0
M  V30 41 H -3.533232 2.531625 2.738882 0
M  V30 42 H -1.428513 2.918156 3.866796 0
M  V30 43 H 0.643935 2.117578 2.870189 0
M  V30 44 H 1.068148 -1.914724 2.473660 0
M  V30 45 H -0.386890 -3.857976 2.661685 0
M  V30 46 H -0.229276 -6.237263 0.122003 0
M  V30 47 H -1.430537 -7.120304 1.280727 0
M  V30 48 H -2.913301 -7.409987 -0.633738 0
M  V30 49 H -1.744501 -6.418258 -1.695436 0
M  V30 50 H -3.990215 -5.495853 0.190098 0
M  V30 51 H -2.991586 -4.507872 -1.011477 0
M  V30 END ATOM
M  V30 BEGIN BOND
M  V30 1 1 1 2
M  V30 2 1 2 3
M  V30 3 2 3 4
M  V30 4 1 4 5
M  V30 5 2 5 6
M  V30 6 1 6 7
M  V30 7 1 7 8
M  V30 8 2 8 9
M  V30 9 1 9 10
M  V30 10 2 10 11
M  V30 11 1 11 12
M  V30 12 1 12 13
M  V30 13 1 13 14
M  V30 14 2 12 15
M  V30 15 1 15 16
M  V30 16 1 16 17
M  V30 17 1 17 18
M  V30 18 2 18 19
M  V30 19 1 19 20
M  V30 20 2 20 21
M  V30 21 1 21 22
M  V30 22 2 22 23
M  V30 23 1 6 24
M  V30 24 2 24 25
M  V30 25 1 2 26
M  V30 26 1 26 27
M  V30 27 1 27 28
M  V30 28 1 28 2
M  V30 29 1 25 3
M  V30 30 2 17 7
M  V30 31 1 23 18
M  V30 32 1 16 9
M  V30 33 1 1 29
M  V30 34 1 1 30
M  V30 35 1 4 31
M  V30 36 1 5 32
M  V30 37 1 10 33
M  V30 38 1 11 34
M  V30 39 1 13 35
M  V30 40 1 13 36
M  V30 41 1 14 37
M  V30 42 1 15 38
M  V30 43 1 19 39
M  V30 44 1 20 40
M  V30 45 1 21 41
M  V30 46 1 22 42
M  V30 47 1 23 43
M  V30 48 1 24 44
M  V30 49 1 25 45
M  V30 50 1 26 46
M  V30 51 1 26 47
M  V30 52 1 27 48
M  V30 53 1 27 49
M  V30 54 1 28 50
M  V30 55 1 28 51
M  V30 END BOND
M  V30 END CTAB
M  END
>  <Dataset>  (404) 
ChEMBL_Kinases

>  <Ligand_Instance>  (404) 
nan

>  <PDB_ID>  (404) 
nan

>  <Standardized_SMILES>  (404) 
NC1(c2ccc(-c3nc4ccc(CO)cn4c3-c3ccccc3)cc2)CCC1

>  <Name>  (404) 
nan

>  <Pocket>  (404) 
nan

>  <ATP_Site>  (404) 
nan

>  <Peripheral>  (404) 
nan

>  <Num_H_Atoms_ProtBoundConf>  (404) 
nan

>  <Num_Resolved_Atoms>  (404) 
nan

>  <Num_Not_Resolved_Atoms>  (404) 
nan

$$$$
CHEMBL3702158
     RDKit          3D

  0  0  0  0  0  0  0  0  0  0999 V3000
M  V30 BEGIN CTAB
M  V30 COUNTS 56 61 0 0 0
M  V30 BEGIN ATOM
M  V30 1 C -0.521934 -6.890333 -1.340056 0
M  V30 2 C -0.803748 -5.662134 -0.967935 0
M  V30 3 C 0.168315 -4.603206 -0.722474 0
M  V30 4 C -0.234703 -3.341807 -0.334077 0
M  V30 5 C 0.739323 -2.389906 -0.119506 0
M  V30 6 C 2.094474 -2.581673 -0.258002 0
M  V30 7 N 3.103175 -1.613057 -0.040778 0
M  V30 8 C 2.941821 -0.262643 0.358377 0
M  V30 9 N 4.011829 0.524969 0.520136 0
M  V30 10 C 3.955251 1.807410 0.893271 0
M  V30 11 C 2.739227 2.403109 1.139186 0
M  V30 12 C 2.305449 3.647693 1.524371 0
M  V30 13 C 3.011322 4.795344 1.812098 0
M  V30 14 C 2.332434 5.937294 2.182621 0
M  V30 15 N 0.970683 5.913482 2.258813 0
M  V30 16 C 0.319491 4.772316 1.969633 0
M  V30 17 C 0.915606 3.596986 1.594524 0
M  V30 18 N 0.516440 2.357503 1.261610 0
M  V30 19 C -0.868085 1.965590 1.233080 0
M  V30 20 C -1.600739 2.199086 2.519391 0
M  V30 21 C -2.915919 2.847326 2.137511 0
M  V30 22 C -3.086761 2.600950 0.657143 0
M  V30 23 C -1.667688 2.670545 0.157071 0
M  V30 24 C 1.626895 1.621081 0.981613 0
M  V30 25 N 1.782886 0.360753 0.608790 0
M  V30 26 N 2.431865 -3.825239 -0.637215 0
M  V30 27 C 1.527059 -4.792099 -0.860381 0
M  V30 28 C -2.243871 -5.360253 -0.791178 0
M  V30 29 C -3.094925 -6.605712 -0.670184 0
M  V30 30 N -2.814545 -7.443358 -1.845152 0
M  V30 31 C -1.486611 -7.990456 -1.597869 0
M  V30 32 H 0.513767 -7.157174 -1.481303 0
M  V30 33 H -1.275596 -3.130768 -0.209455 0
M  V30 34 H 0.370306 -1.430032 0.179787 0
M  V30 35 H 4.095049 -1.933276 -0.193942 0
M  V30 36 H 4.847953 2.388631 1.006303 0
M  V30 37 H 4.110560 4.828852 1.754667 0
M  V30 38 H 2.879302 6.846430 2.411299 0
M  V30 39 H -0.745261 4.825857 2.050090 0
M  V30 40 H -0.987522 0.871214 1.009394 0
M  V30 41 H -1.875316 1.241029 3.047601 0
M  V30 42 H -1.020646 2.771395 3.259254 0
M  V30 43 H -3.781081 2.394278 2.698741 0
M  V30 44 H -2.953467 3.929721 2.336844 0
M  V30 45 H -3.541272 1.609640 0.452802 0
M  V30 46 H -3.662809 3.400995 0.140032 0
M  V30 47 H -1.565434 2.101565 -0.789310 0
M  V30 48 H -1.384235 3.726957 0.015332 0
M  V30 49 H 1.930635 -5.744223 -1.159645 0
M  V30 50 H -2.622894 -4.801651 -1.677425 0
M  V30 51 H -2.425909 -4.774252 0.148285 0
M  V30 52 H -2.923049 -7.156802 0.268897 0
M  V30 53 H -4.155721 -6.303162 -0.765755 0
M  V30 54 H -2.708902 -6.789232 -2.654667 0
M  V30 55 H -1.467963 -8.726767 -0.773958 0
M  V30 56 H -1.181005 -8.454652 -2.575455 0
M  V30 END ATOM
M  V30 BEGIN BOND
M  V30 1 2 1 2
M  V30 2 1 2 3
M  V30 3 2 3 4
M  V30 4 1 4 5
M  V30 5 2 5 6
M  V30 6 1 6 7
M  V30 7 1 7 8
M  V30 8 2 8 9
M  V30 9 1 9 10
M  V30 10 2 10 11
M  V30 11 1 11 12
M  V30 12 2 12 13
M  V30 13 1 13 14
M  V30 14 2 14 15
M  V30 15 1 15 16
M  V30 16 2 16 17
M  V30 17 1 17 18
M  V30 18 1 18 19
M  V30 19 1 19 20
M  V30 20 1 20 21
M  V30 21 1 21 22
M  V30 22 1 22 23
M  V30 23 1 18 24
M  V30 24 2 24 25
M  V30 25 1 6 26
M  V30 26 2 26 27
M  V30 27 1 2 28
M  V30 28 1 28 29
M  V30 29 1 29 30
M  V30 30 1 30 31
M  V30 31 1 31 1
M  V30 32 1 27 3
M  V30 33 1 25 8
M  V30 34 1 24 11
M  V30 35 1 17 12
M  V30 36 1 23 19
M  V30 37 1 1 32
M  V30 38 1 4 33
M  V30 39 1 5 34
M  V30 40 1 7 35
M  V30 41 1 10 36
M  V30 42 1 13 37
M  V30 43 1 14 38
M  V30 44 1 16 39
M  V30 45 1 19 40
M  V30 46 1 20 41
M  V30 47 1 20 42
M  V30 48 1 21 43
M  V30 49 1 21 44
M  V30 50 1 22 45
M  V30 51 1 22 46
M  V30 52 1 23 47
M  V30 53 1 23 48
M  V30 54 1 27 49
M  V30 55 1 28 50
M  V30 56 1 28 51
M  V30 57 1 29 52
M  V30 58 1 29 53
M  V30 59 1 30 54
M  V30 60 1 31 55
M  V30 61 1 31 56
M  V30 END BOND
M  V30 END CTAB
M  END
>  <Dataset>  (405) 
ChEMBL_Kinases

>  <Ligand_Instance>  (405) 
nan

>  <PDB_ID>  (405) 
nan

>  <Standardized_SMILES>  (405) 
C1=C(c2ccc(Nc3ncc4c5ccncc5n(C5CCCC5)c4n3)nc2)CCNC1

>  <Name>  (405) 
nan

>  <Pocket>  (405) 
nan

>  <ATP_Site>  (405) 
nan

>  <Peripheral>  (405) 
nan

>  <Num_H_Atoms_ProtBoundConf>  (405) 
nan

>  <Num_Resolved_Atoms>  (405) 
nan

>  <Num_Not_Resolved_Atoms>  (405) 
nan

$$$$
CHEMBL3699701
     RDKit          3D

  0  0  0  0  0  0  0  0  0  0999 V3000
M  V30 BEGIN CTAB
M  V30 COUNTS 53 57 0 0 0
M  V30 BEGIN ATOM
M  V30 1 C 4.584810 -4.731836 4.518135 0
M  V30 2 O 4.516978 -3.418836 4.063543 0
M  V30 3 C 3.564161 -2.838230 3.275542 0
M  V30 4 O 2.830938 -3.843251 3.124434 0
M  V30 5 C 3.566363 -1.446784 2.840512 0
M  V30 6 C 4.635873 -0.702499 3.286311 0
M  V30 7 C 4.646165 0.626524 2.875349 0
M  V30 8 C 3.626229 1.099377 2.078639 0
M  V30 9 N 2.611501 0.306124 1.683012 0
M  V30 10 C 1.543805 0.631046 0.903298 0
M  V30 11 C 1.181071 1.890473 0.276170 0
M  V30 12 C 1.106999 2.196385 -1.060922 0
M  V30 13 C 0.735156 3.466228 -1.478971 0
M  V30 14 C 0.424414 4.475649 -0.584858 0
M  V30 15 C 0.500717 4.161008 0.777208 0
M  V30 16 C 0.874541 2.885160 1.175435 0
M  V30 17 C 0.783262 -0.534524 0.786960 0
M  V30 18 C -0.461508 -0.824275 0.088582 0
M  V30 19 C -0.777414 -0.850733 -1.252017 0
M  V30 20 C -2.060664 -1.155249 -1.650788 0
M  V30 21 C -3.083533 -1.445745 -0.746845 0
M  V30 22 C -4.344365 -1.730220 -1.468192 0
M  V30 23 N -4.608127 -0.812140 -2.562066 0
M  V30 24 C -5.550789 -2.039659 -0.655349 0
M  V30 25 C -5.358180 -3.530800 -0.893886 0
M  V30 26 C -4.409117 -3.157315 -2.017325 0
M  V30 27 C -2.762969 -1.418061 0.590237 0
M  V30 28 C -1.483977 -1.114813 0.994139 0
M  V30 29 N 1.436679 -1.483226 1.499634 0
M  V30 30 C 2.541938 -0.982361 2.043536 0
M  V30 31 H 4.805652 -4.662096 5.624779 0
M  V30 32 H 3.643533 -5.307701 4.465942 0
M  V30 33 H 5.454331 -5.310130 4.117188 0
M  V30 34 H 5.415259 -1.111139 3.909820 0
M  V30 35 H 5.477369 1.260792 3.204541 0
M  V30 36 H 3.709814 2.157613 1.799568 0
M  V30 37 H 1.358864 1.381746 -1.725104 0
M  V30 38 H 0.720657 3.561524 -2.550336 0
M  V30 39 H 0.142830 5.440952 -0.989832 0
M  V30 40 H 0.245101 4.994285 1.416404 0
M  V30 41 H 0.877733 2.827606 2.263303 0
M  V30 42 H 0.065500 -0.618745 -1.866750 0
M  V30 43 H -2.133612 -1.131117 -2.735801 0
M  V30 44 H -4.447941 0.189783 -2.265422 0
M  V30 45 H -4.116919 -1.072008 -3.420528 0
M  V30 46 H -6.523084 -1.694457 -1.065500 0
M  V30 47 H -5.435343 -1.738416 0.401114 0
M  V30 48 H -6.272176 -4.060370 -1.193687 0
M  V30 49 H -4.815865 -4.053423 -0.097705 0
M  V30 50 H -4.935185 -3.267353 -2.978049 0
M  V30 51 H -3.454480 -3.687739 -2.057641 0
M  V30 52 H -3.604597 -1.654297 1.217694 0
M  V30 53 H -1.402332 -1.136708 2.084148 0
M  V30 END ATOM
M  V30 BEGIN BOND
M  V30 1 1 1 2
M  V30 2 1 2 3
M  V30 3 2 3 4
M  V30 4 1 3 5
M  V30 5 2 5 6
M  V30 6 1 6 7
M  V30 7 2 7 8
M  V30 8 1 8 9
M  V30 9 1 9 10
M  V30 10 1 10 11
M  V30 11 2 11 12
M  V30 12 1 12 13
M  V30 13 2 13 14
M  V30 14 1 14 15
M  V30 15 2 15 16
M  V30 16 2 10 17
M  V30 17 1 17 18
M  V30 18 2 18 19
M  V30 19 1 19 20
M  V30 20 2 20 21
M  V30 21 1 21 22
M  V30 22 1 22 23
M  V30 23 1 22 24
M  V30 24 1 24 25
M  V30 25 1 25 26
M  V30 26 1 21 27
M  V30 27 2 27 28
M  V30 28 1 17 29
M  V30 29 2 29 30
M  V30 30 1 30 5
M  V30 31 1 30 9
M  V30 32 1 16 11
M  V30 33 1 28 18
M  V30 34 1 26 22
M  V30 35 1 1 31
M  V30 36 1 1 32
M  V30 37 1 1 33
M  V30 38 1 6 34
M  V30 39 1 7 35
M  V30 40 1 8 36
M  V30 41 1 12 37
M  V30 42 1 13 38
M  V30 43 1 14 39
M  V30 44 1 15 40
M  V30 45 1 16 41
M  V30 46 1 19 42
M  V30 47 1 20 43
M  V30 48 1 23 44
M  V30 49 1 23 45
M  V30 50 1 24 46
M  V30 51 1 24 47
M  V30 52 1 25 48
M  V30 53 1 25 49
M  V30 54 1 26 50
M  V30 55 1 26 51
M  V30 56 1 27 52
M  V30 57 1 28 53
M  V30 END BOND
M  V30 END CTAB
M  END
>  <Dataset>  (406) 
ChEMBL_Kinases

>  <Ligand_Instance>  (406) 
nan

>  <PDB_ID>  (406) 
nan

>  <Standardized_SMILES>  (406) 
COC(=O)c1cccn2c(-c3ccccc3)c(-c3ccc(C4(N)CCC4)cc3)nc12

>  <Name>  (406) 
nan

>  <Pocket>  (406) 
nan

>  <ATP_Site>  (406) 
nan

>  <Peripheral>  (406) 
nan

>  <Num_H_Atoms_ProtBoundConf>  (406) 
nan

>  <Num_Resolved_Atoms>  (406) 
nan

>  <Num_Not_Resolved_Atoms>  (406) 
nan

$$$$
CHEMBL3699700
     RDKit          3D

  0  0  0  0  0  0  0  0  0  0999 V3000
M  V30 BEGIN CTAB
M  V30 COUNTS 54 59 0 0 0
M  V30 BEGIN ATOM
M  V30 1 N -1.987422 -6.256191 1.146138 0
M  V30 2 C -1.390321 -5.748576 -0.074922 0
M  V30 3 C -0.879041 -4.377160 0.095930 0
M  V30 4 C -0.877782 -3.358724 -0.834507 0
M  V30 5 C -0.358318 -2.106194 -0.529497 0
M  V30 6 C 0.176571 -1.849461 0.731794 0
M  V30 7 C 0.660402 -0.477747 0.821121 0
M  V30 8 N 1.903157 -0.021936 1.039325 0
M  V30 9 C 1.914011 1.331470 1.044947 0
M  V30 10 C 2.927184 2.269511 1.223600 0
M  V30 11 C 2.668505 3.624743 1.181025 0
M  V30 12 C 3.720376 4.631486 1.365549 0
M  V30 13 C 3.673763 5.871511 0.742457 0
M  V30 14 N 4.787538 6.570346 1.113073 0
M  V30 15 N 5.504631 5.813818 1.929375 0
M  V30 16 C 4.891742 4.627288 2.109257 0
M  V30 17 C 1.367806 4.032235 0.954878 0
M  V30 18 C 0.396313 3.067154 0.783639 0
M  V30 19 N 0.635310 1.746070 0.822817 0
M  V30 20 C -0.131418 0.644870 0.686102 0
M  V30 21 C -1.563931 0.760728 0.436886 0
M  V30 22 C -2.338124 0.226850 1.461329 0
M  V30 23 C -3.707412 0.246757 1.397641 0
M  V30 24 C -4.302395 0.814520 0.282723 0
M  V30 25 C -3.553311 1.357411 -0.759949 0
M  V30 26 C -2.179122 1.309949 -0.642786 0
M  V30 27 C 0.177791 -2.862838 1.665134 0
M  V30 28 C -0.340967 -4.099877 1.347859 0
M  V30 29 C -0.382000 -6.751891 -0.603895 0
M  V30 30 C -1.524040 -7.392571 -1.382663 0
M  V30 31 C -2.227203 -6.033138 -1.276634 0
M  V30 32 H -2.639822 -5.610340 1.605870 0
M  V30 33 H -1.239194 -6.595058 1.802953 0
M  V30 34 H -1.295141 -3.593825 -1.785991 0
M  V30 35 H -0.423143 -1.394061 -1.365685 0
M  V30 36 H 3.963203 1.949393 1.404585 0
M  V30 37 H 2.891237 6.227153 0.077007 0
M  V30 38 H 6.412672 6.046153 2.393669 0
M  V30 39 H 5.173343 3.760461 2.702248 0
M  V30 40 H 1.148860 5.087579 0.919023 0
M  V30 41 H -0.615210 3.426261 0.608064 0
M  V30 42 H -1.945559 -0.240136 2.376391 0
M  V30 43 H -4.384657 -0.147677 2.154611 0
M  V30 44 H -5.369197 0.892735 0.112960 0
M  V30 45 H -4.011919 1.807550 -1.644177 0
M  V30 46 H -1.506082 1.705581 -1.400727 0
M  V30 47 H 0.613707 -2.552537 2.601939 0
M  V30 48 H -0.279190 -4.807038 2.171702 0
M  V30 49 H 0.045872 -7.365869 0.208848 0
M  V30 50 H 0.355061 -6.317087 -1.307686 0
M  V30 51 H -1.262457 -7.688002 -2.419008 0
M  V30 52 H -2.088582 -8.147052 -0.805975 0
M  V30 53 H -3.325954 -6.120103 -1.086485 0
M  V30 54 H -1.989183 -5.457948 -2.193181 0
M  V30 END ATOM
M  V30 BEGIN BOND
M  V30 1 1 1 2
M  V30 2 1 2 3
M  V30 3 2 3 4
M  V30 4 1 4 5
M  V30 5 2 5 6
M  V30 6 1 6 7
M  V30 7 1 7 8
M  V30 8 2 8 9
M  V30 9 1 9 10
M  V30 10 2 10 11
M  V30 11 1 11 12
M  V30 12 1 12 13
M  V30 13 2 13 14
M  V30 14 1 14 15
M  V30 15 1 15 16
M  V30 16 1 11 17
M  V30 17 2 17 18
M  V30 18 1 18 19
M  V30 19 1 19 20
M  V30 20 1 20 21
M  V30 21 2 21 22
M  V30 22 1 22 23
M  V30 23 2 23 24
M  V30 24 1 24 25
M  V30 25 2 25 26
M  V30 26 1 6 27
M  V30 27 2 27 28
M  V30 28 1 2 29
M  V30 29 1 29 30
M  V30 30 1 30 31
M  V30 31 1 31 2
M  V30 32 1 28 3
M  V30 33 2 20 7
M  V30 34 1 26 21
M  V30 35 1 19 9
M  V30 36 2 16 12
M  V30 37 1 1 32
M  V30 38 1 1 33
M  V30 39 1 4 34
M  V30 40 1 5 35
M  V30 41 1 10 36
M  V30 42 1 13 37
M  V30 43 1 15 38
M  V30 44 1 16 39
M  V30 45 1 17 40
M  V30 46 1 18 41
M  V30 47 1 22 42
M  V30 48 1 23 43
M  V30 49 1 24 44
M  V30 50 1 25 45
M  V30 51 1 26 46
M  V30 52 1 27 47
M  V30 53 1 28 48
M  V30 54 1 29 49
M  V30 55 1 29 50
M  V30 56 1 30 51
M  V30 57 1 30 52
M  V30 58 1 31 53
M  V30 59 1 31 54
M  V30 END BOND
M  V30 END CTAB
M  END
>  <Dataset>  (407) 
ChEMBL_Kinases

>  <Ligand_Instance>  (407) 
nan

>  <PDB_ID>  (407) 
nan

>  <Standardized_SMILES>  (407) 
NC1(c2ccc(-c3nc4cc(-c5cn[nH]c5)ccn4c3-c3ccccc3)cc2)CCC1

>  <Name>  (407) 
nan

>  <Pocket>  (407) 
nan

>  <ATP_Site>  (407) 
nan

>  <Peripheral>  (407) 
nan

>  <Num_H_Atoms_ProtBoundConf>  (407) 
nan

>  <Num_Resolved_Atoms>  (407) 
nan

>  <Num_Not_Resolved_Atoms>  (407) 
nan

$$$$
CHEMBL4564217
     RDKit          3D

  0  0  0  0  0  0  0  0  0  0999 V3000
M  V30 BEGIN CTAB
M  V30 COUNTS 39 41 0 0 0
M  V30 BEGIN ATOM
M  V30 1 C 0.412720 -5.953153 1.827194 0
M  V30 2 C 0.682500 -4.524503 2.079046 0
M  V30 3 O -0.265550 -3.897002 2.652624 0
M  V30 4 N 1.862697 -3.804807 1.752351 0
M  V30 5 C 2.005932 -2.416184 2.047864 0
M  V30 6 C 1.612373 -1.474137 1.122451 0
M  V30 7 C 1.687536 -0.105652 1.263020 0
M  V30 8 C 1.271157 0.888671 0.298922 0
M  V30 9 N 2.015038 1.774679 -0.390087 0
M  V30 10 C 1.176896 2.486898 -1.163942 0
M  V30 11 C 1.658546 3.540747 -2.046696 0
M  V30 12 N 0.847823 4.339041 -2.897193 0
M  V30 13 O 2.877498 3.799330 -2.092792 0
M  V30 14 N -0.073791 2.041525 -0.952029 0
M  V30 15 C -0.060983 1.029588 -0.033100 0
M  V30 16 C -1.311245 0.387950 0.354803 0
M  V30 17 C -2.141995 1.281148 1.044361 0
M  V30 18 C -3.382025 0.885033 1.506045 0
M  V30 19 C -3.846775 -0.396971 1.306795 0
M  V30 20 F -5.040847 -0.888278 1.714134 0
M  V30 21 C -3.013297 -1.261801 0.625059 0
M  V30 22 C -1.783620 -0.892771 0.159455 0
M  V30 23 C 2.220725 0.346951 2.476118 0
M  V30 24 C 2.623843 -0.601887 3.423695 0
M  V30 25 N 2.519148 -1.944451 3.214880 0
M  V30 26 H -0.588542 -6.079622 1.339231 0
M  V30 27 H 1.194878 -6.473185 1.249560 0
M  V30 28 H 0.351502 -6.455314 2.825977 0
M  V30 29 H 2.571714 -4.430539 1.282634 0
M  V30 30 H 1.210397 -1.845441 0.201970 0
M  V30 31 H 3.041210 1.848903 -0.300774 0
M  V30 32 H 0.761726 3.681477 -3.716698 0
M  V30 33 H 0.375972 5.289427 -2.915858 0
M  V30 34 H -1.909538 2.323920 1.275327 0
M  V30 35 H -4.048972 1.558076 2.044801 0
M  V30 36 H -3.256717 -2.304646 0.399247 0
M  V30 37 H -1.073248 -1.493087 -0.380660 0
M  V30 38 H 2.350664 1.409142 2.749585 0
M  V30 39 H 3.051616 -0.309878 4.398796 0
M  V30 END ATOM
M  V30 BEGIN BOND
M  V30 1 1 1 2
M  V30 2 2 2 3
M  V30 3 1 2 4
M  V30 4 1 4 5
M  V30 5 2 5 6
M  V30 6 1 6 7
M  V30 7 1 7 8
M  V30 8 1 8 9
M  V30 9 1 9 10
M  V30 10 1 10 11
M  V30 11 1 11 12
M  V30 12 2 11 13
M  V30 13 2 10 14
M  V30 14 1 14 15
M  V30 15 1 15 16
M  V30 16 2 16 17
M  V30 17 1 17 18
M  V30 18 2 18 19
M  V30 19 1 19 20
M  V30 20 1 19 21
M  V30 21 2 21 22
M  V30 22 2 7 23
M  V30 23 1 23 24
M  V30 24 2 24 25
M  V30 25 1 25 5
M  V30 26 2 15 8
M  V30 27 1 22 16
M  V30 28 1 1 26
M  V30 29 1 1 27
M  V30 30 1 1 28
M  V30 31 1 4 29
M  V30 32 1 6 30
M  V30 33 1 9 31
M  V30 34 1 12 32
M  V30 35 1 12 33
M  V30 36 1 17 34
M  V30 37 1 18 35
M  V30 38 1 21 36
M  V30 39 1 22 37
M  V30 40 1 23 38
M  V30 41 1 24 39
M  V30 END BOND
M  V30 END CTAB
M  END
>  <Dataset>  (408) 
ChEMBL_Kinases

>  <Ligand_Instance>  (408) 
nan

>  <PDB_ID>  (408) 
nan

>  <Standardized_SMILES>  (408) 
CC(=O)Nc1cc(-c2[nH]c(C(N)=O)nc2-c2ccc(F)cc2)ccn1

>  <Name>  (408) 
nan

>  <Pocket>  (408) 
nan

>  <ATP_Site>  (408) 
nan

>  <Peripheral>  (408) 
nan

>  <Num_H_Atoms_ProtBoundConf>  (408) 
nan

>  <Num_Resolved_Atoms>  (408) 
nan

>  <Num_Not_Resolved_Atoms>  (408) 
nan

$$$$
CHEMBL3699699
     RDKit          3D

  0  0  0  0  0  0  0  0  0  0999 V3000
M  V30 BEGIN CTAB
M  V30 COUNTS 53 57 0 0 0
M  V30 BEGIN ATOM
M  V30 1 C 2.353349 0.539761 7.467829 0
M  V30 2 C 3.097033 -0.408005 6.548070 0
M  V30 3 C 2.599189 -0.309300 5.150534 0
M  V30 4 C 3.206541 0.603897 4.313752 0
M  V30 5 C 2.841419 0.796637 2.992850 0
M  V30 6 N 1.831971 0.036142 2.521412 0
M  V30 7 C 1.269506 0.005567 1.291937 0
M  V30 8 C 1.606289 0.801857 0.114928 0
M  V30 9 C 2.923174 0.577934 -0.297180 0
M  V30 10 C 3.463453 1.217615 -1.384695 0
M  V30 11 C 2.675310 2.111044 -2.091478 0
M  V30 12 C 1.379938 2.325401 -1.678694 0
M  V30 13 C 0.822957 1.691909 -0.590158 0
M  V30 14 C 0.267322 -0.947213 1.310260 0
M  V30 15 C -0.616650 -1.328059 0.196391 0
M  V30 16 C -1.956933 -1.081958 0.503910 0
M  V30 17 C -2.949270 -1.377229 -0.425889 0
M  V30 18 C -2.601288 -1.912498 -1.648392 0
M  V30 19 C -3.504874 -2.290595 -2.759662 0
M  V30 20 N -3.154736 -1.665597 -4.036224 0
M  V30 21 C -4.979905 -2.061301 -2.520248 0
M  V30 22 C -5.234686 -3.380752 -3.259729 0
M  V30 23 C -3.803485 -3.769228 -2.886441 0
M  V30 24 C -1.276040 -2.146226 -1.929157 0
M  V30 25 C -0.269902 -1.863708 -1.027299 0
M  V30 26 N 0.258918 -1.464214 2.562092 0
M  V30 27 C 1.214326 -0.866423 3.308196 0
M  V30 28 C 1.569976 -1.068962 4.631218 0
M  V30 29 H 3.044368 1.022571 8.195253 0
M  V30 30 H 1.517972 0.032468 7.995074 0
M  V30 31 H 1.916921 1.370171 6.870911 0
M  V30 32 H 4.207627 -0.213202 6.577449 0
M  V30 33 H 2.941707 -1.445598 6.951639 0
M  V30 34 H 4.015138 1.217895 4.679573 0
M  V30 35 H 3.343507 1.528344 2.358260 0
M  V30 36 H 3.635446 -0.105153 0.185481 0
M  V30 37 H 4.474920 1.072195 -1.734580 0
M  V30 38 H 3.079225 2.625962 -2.950570 0
M  V30 39 H 0.729230 3.012222 -2.198450 0
M  V30 40 H -0.159290 1.786757 -0.192195 0
M  V30 41 H -2.322842 -0.662799 1.441120 0
M  V30 42 H -4.006217 -1.223831 -0.282100 0
M  V30 43 H -3.564450 -0.694602 -4.017822 0
M  V30 44 H -2.140993 -1.602093 -4.199682 0
M  V30 45 H -5.330875 -2.222843 -1.468962 0
M  V30 46 H -5.396587 -1.183530 -3.045753 0
M  V30 47 H -5.378881 -3.158638 -4.343892 0
M  V30 48 H -6.017609 -4.022213 -2.807071 0
M  V30 49 H -3.773699 -4.270918 -1.914013 0
M  V30 50 H -3.255244 -4.292938 -3.692949 0
M  V30 51 H -0.888209 -2.566003 -2.863058 0
M  V30 52 H 0.784866 -2.003745 -1.139313 0
M  V30 53 H 1.097128 -1.780955 5.285122 0
M  V30 END ATOM
M  V30 BEGIN BOND
M  V30 1 1 1 2
M  V30 2 1 2 3
M  V30 3 1 3 4
M  V30 4 2 4 5
M  V30 5 1 5 6
M  V30 6 1 6 7
M  V30 7 1 7 8
M  V30 8 2 8 9
M  V30 9 1 9 10
M  V30 10 2 10 11
M  V30 11 1 11 12
M  V30 12 2 12 13
M  V30 13 2 7 14
M  V30 14 1 14 15
M  V30 15 2 15 16
M  V30 16 1 16 17
M  V30 17 2 17 18
M  V30 18 1 18 19
M  V30 19 1 19 20
M  V30 20 1 19 21
M  V30 21 1 21 22
M  V30 22 1 22 23
M  V30 23 1 18 24
M  V30 24 2 24 25
M  V30 25 1 14 26
M  V30 26 2 26 27
M  V30 27 1 27 28
M  V30 28 2 28 3
M  V30 29 1 27 6
M  V30 30 1 13 8
M  V30 31 1 25 15
M  V30 32 1 23 19
M  V30 33 1 1 29
M  V30 34 1 1 30
M  V30 35 1 1 31
M  V30 36 1 2 32
M  V30 37 1 2 33
M  V30 38 1 4 34
M  V30 39 1 5 35
M  V30 40 1 9 36
M  V30 41 1 10 37
M  V30 42 1 11 38
M  V30 43 1 12 39
M  V30 44 1 13 40
M  V30 45 1 16 41
M  V30 46 1 17 42
M  V30 47 1 20 43
M  V30 48 1 20 44
M  V30 49 1 21 45
M  V30 50 1 21 46
M  V30 51 1 22 47
M  V30 52 1 22 48
M  V30 53 1 23 49
M  V30 54 1 23 50
M  V30 55 1 24 51
M  V30 56 1 25 52
M  V30 57 1 28 53
M  V30 END BOND
M  V30 END CTAB
M  END
>  <Dataset>  (409) 
ChEMBL_Kinases

>  <Ligand_Instance>  (409) 
nan

>  <PDB_ID>  (409) 
nan

>  <Standardized_SMILES>  (409) 
CCc1ccn2c(-c3ccccc3)c(-c3ccc(C4(N)CCC4)cc3)nc2c1

>  <Name>  (409) 
nan

>  <Pocket>  (409) 
nan

>  <ATP_Site>  (409) 
nan

>  <Peripheral>  (409) 
nan

>  <Num_H_Atoms_ProtBoundConf>  (409) 
nan

>  <Num_Resolved_Atoms>  (409) 
nan

>  <Num_Not_Resolved_Atoms>  (409) 
nan

$$$$
CHEMBL3699698
     RDKit          3D

  0  0  0  0  0  0  0  0  0  0999 V3000
M  V30 BEGIN CTAB
M  V30 COUNTS 54 58 0 0 0
M  V30 BEGIN ATOM
M  V30 1 C 2.820590 -5.368267 4.998195 0
M  V30 2 C 3.344022 -4.001667 4.662805 0
M  V30 3 O 2.546181 -3.302521 3.721739 0
M  V30 4 C 2.951130 -2.025085 3.347760 0
M  V30 5 C 4.086610 -1.410219 3.847624 0
M  V30 6 C 4.398447 -0.121584 3.400571 0
M  V30 7 C 3.596891 0.539400 2.476067 0
M  V30 8 N 2.509926 -0.116613 2.032642 0
M  V30 9 C 1.622287 0.363891 1.139657 0
M  V30 10 C 1.462363 1.582470 0.386275 0
M  V30 11 C 1.292137 2.859230 0.844160 0
M  V30 12 C 1.149960 3.952707 0.016632 0
M  V30 13 C 1.177301 3.779686 -1.362944 0
M  V30 14 C 1.346888 2.507899 -1.890953 0
M  V30 15 C 1.483568 1.454429 -1.009152 0
M  V30 16 C 0.662861 -0.636188 0.968121 0
M  V30 17 C -0.553171 -0.708395 0.127775 0
M  V30 18 C -1.607152 0.188863 0.351928 0
M  V30 19 C -2.715202 0.084668 -0.450625 0
M  V30 20 C -2.839300 -0.842727 -1.448390 0
M  V30 21 C -4.120825 -0.771693 -2.185737 0
M  V30 22 N -4.506590 0.555721 -2.550810 0
M  V30 23 C -4.313111 -1.766382 -3.297220 0
M  V30 24 C -4.887005 -2.744170 -2.289115 0
M  V30 25 C -5.179204 -1.540407 -1.386383 0
M  V30 26 C -1.807559 -1.716212 -1.662979 0
M  V30 27 C -0.672951 -1.651920 -0.882991 0
M  V30 28 N 1.029169 -1.666384 1.770900 0
M  V30 29 C 2.167904 -1.355335 2.432021 0
M  V30 30 H 3.031698 -5.577226 6.048612 0
M  V30 31 H 1.700462 -5.303383 4.906673 0
M  V30 32 H 3.161197 -6.129675 4.286838 0
M  V30 33 H 4.353106 -4.114401 4.221072 0
M  V30 34 H 3.422511 -3.333136 5.540104 0
M  V30 35 H 4.691579 -1.928012 4.555181 0
M  V30 36 H 5.280926 0.354242 3.789861 0
M  V30 37 H 3.862823 1.545049 2.143219 0
M  V30 38 H 1.275081 2.960028 1.920902 0
M  V30 39 H 1.019483 4.932733 0.423038 0
M  V30 40 H 1.066454 4.630293 -2.020257 0
M  V30 41 H 1.373958 2.326539 -2.957569 0
M  V30 42 H 1.616549 0.462081 -1.467008 0
M  V30 43 H -1.483686 0.917088 1.152710 0
M  V30 44 H -3.487167 0.830009 -0.198758 0
M  V30 45 H -4.957634 0.538976 -3.488574 0
M  V30 46 H -5.055435 1.056016 -1.820293 0
M  V30 47 H -3.436393 -2.088180 -3.861679 0
M  V30 48 H -5.161858 -1.418325 -3.948038 0
M  V30 49 H -4.092008 -3.393124 -1.895537 0
M  V30 50 H -5.801268 -3.273464 -2.641728 0
M  V30 51 H -4.908686 -1.717190 -0.325785 0
M  V30 52 H -6.209497 -1.133977 -1.526076 0
M  V30 53 H -1.950188 -2.433399 -2.463703 0
M  V30 54 H 0.132785 -2.356209 -1.072082 0
M  V30 END ATOM
M  V30 BEGIN BOND
M  V30 1 1 1 2
M  V30 2 1 2 3
M  V30 3 1 3 4
M  V30 4 2 4 5
M  V30 5 1 5 6
M  V30 6 2 6 7
M  V30 7 1 7 8
M  V30 8 1 8 9
M  V30 9 1 9 10
M  V30 10 2 10 11
M  V30 11 1 11 12
M  V30 12 2 12 13
M  V30 13 1 13 14
M  V30 14 2 14 15
M  V30 15 2 9 16
M  V30 16 1 16 17
M  V30 17 2 17 18
M  V30 18 1 18 19
M  V30 19 2 19 20
M  V30 20 1 20 21
M  V30 21 1 21 22
M  V30 22 1 21 23
M  V30 23 1 23 24
M  V30 24 1 24 25
M  V30 25 1 20 26
M  V30 26 2 26 27
M  V30 27 1 16 28
M  V30 28 2 28 29
M  V30 29 1 29 4
M  V30 30 1 29 8
M  V30 31 1 15 10
M  V30 32 1 27 17
M  V30 33 1 25 21
M  V30 34 1 1 30
M  V30 35 1 1 31
M  V30 36 1 1 32
M  V30 37 1 2 33
M  V30 38 1 2 34
M  V30 39 1 5 35
M  V30 40 1 6 36
M  V30 41 1 7 37
M  V30 42 1 11 38
M  V30 43 1 12 39
M  V30 44 1 13 40
M  V30 45 1 14 41
M  V30 46 1 15 42
M  V30 47 1 18 43
M  V30 48 1 19 44
M  V30 49 1 22 45
M  V30 50 1 22 46
M  V30 51 1 23 47
M  V30 52 1 23 48
M  V30 53 1 24 49
M  V30 54 1 24 50
M  V30 55 1 25 51
M  V30 56 1 25 52
M  V30 57 1 26 53
M  V30 58 1 27 54
M  V30 END BOND
M  V30 END CTAB
M  END
>  <Dataset>  (410) 
ChEMBL_Kinases

>  <Ligand_Instance>  (410) 
nan

>  <PDB_ID>  (410) 
nan

>  <Standardized_SMILES>  (410) 
CCOc1cccn2c(-c3ccccc3)c(-c3ccc(C4(N)CCC4)cc3)nc12

>  <Name>  (410) 
nan

>  <Pocket>  (410) 
nan

>  <ATP_Site>  (410) 
nan

>  <Peripheral>  (410) 
nan

>  <Num_H_Atoms_ProtBoundConf>  (410) 
nan

>  <Num_Resolved_Atoms>  (410) 
nan

>  <Num_Not_Resolved_Atoms>  (410) 
nan

$$$$
CHEMBL3699697
     RDKit          3D

  0  0  0  0  0  0  0  0  0  0999 V3000
M  V30 BEGIN CTAB
M  V30 COUNTS 51 55 0 0 0
M  V30 BEGIN ATOM
M  V30 1 N 0.823032 -7.366008 -1.249788 0
M  V30 2 C 2.059471 -6.670812 -1.359010 0
M  V30 3 O 2.263812 -7.852878 -1.687702 0
M  V30 4 C 2.266116 -5.262828 -1.067850 0
M  V30 5 C 3.546138 -4.777360 -1.228318 0
M  V30 6 C 3.703983 -3.432977 -0.944007 0
M  V30 7 C 2.581721 -2.739189 -0.538246 0
M  V30 8 N 2.458462 -1.436206 -0.203821 0
M  V30 9 C 1.178757 -1.171917 0.133809 0
M  V30 10 C 0.703841 0.144034 0.545520 0
M  V30 11 C 1.288372 0.643969 1.693926 0
M  V30 12 C 0.926719 1.879920 2.187583 0
M  V30 13 C -0.018633 2.676145 1.580847 0
M  V30 14 C -0.540364 4.003698 1.933383 0
M  V30 15 N -1.976540 4.090967 1.746314 0
M  V30 16 C 0.222442 5.167957 1.317361 0
M  V30 17 C -0.037221 5.933755 2.611262 0
M  V30 18 C -0.183773 4.567966 3.275592 0
M  V30 19 C -0.607547 2.162467 0.415937 0
M  V30 20 C -0.255578 0.927974 -0.089115 0
M  V30 21 C 0.464268 -2.336733 0.012307 0
M  V30 22 C -0.932381 -2.546005 0.263623 0
M  V30 23 C -1.460546 -2.358184 1.538819 0
M  V30 24 C -2.790359 -2.558263 1.780106 0
M  V30 25 C -3.599130 -2.950030 0.734757 0
M  V30 26 C -3.115283 -3.146472 -0.541366 0
M  V30 27 C -1.759795 -2.939269 -0.772766 0
M  V30 28 N 1.357296 -3.284417 -0.403812 0
M  V30 29 C 1.134879 -4.587904 -0.664656 0
M  V30 30 H -0.079362 -7.180194 -0.768154 0
M  V30 31 H -0.068110 -7.133254 -0.745569 0
M  V30 32 H 4.343903 -5.428093 -1.554294 0
M  V30 33 H 4.679258 -2.980792 -1.046831 0
M  V30 34 H 2.054733 0.131687 2.289680 0
M  V30 35 H 1.345839 2.318977 3.074560 0
M  V30 36 H -2.384906 4.956217 2.139545 0
M  V30 37 H -2.396409 3.252036 2.186103 0
M  V30 38 H 1.282419 4.925824 1.207760 0
M  V30 39 H -0.291615 5.585860 0.443571 0
M  V30 40 H -0.995135 6.483400 2.656482 0
M  V30 41 H 0.845681 6.477755 3.003417 0
M  V30 42 H -0.971655 4.539337 4.057835 0
M  V30 43 H 0.769482 4.156838 3.658109 0
M  V30 44 H -1.368024 2.668061 -0.176627 0
M  V30 45 H -0.669930 0.492759 -0.966627 0
M  V30 46 H -0.805122 -2.052727 2.332414 0
M  V30 47 H -3.204546 -2.411353 2.777611 0
M  V30 48 H -4.666226 -3.121155 0.882981 0
M  V30 49 H -3.702374 -3.452611 -1.395657 0
M  V30 50 H -1.354846 -3.090796 -1.784328 0
M  V30 51 H 0.182490 -5.045882 -0.568009 0
M  V30 END ATOM
M  V30 BEGIN BOND
M  V30 1 1 1 2
M  V30 2 2 2 3
M  V30 3 1 2 4
M  V30 4 1 4 5
M  V30 5 2 5 6
M  V30 6 1 6 7
M  V30 7 2 7 8
M  V30 8 1 8 9
M  V30 9 1 9 10
M  V30 10 2 10 11
M  V30 11 1 11 12
M  V30 12 2 12 13
M  V30 13 1 13 14
M  V30 14 1 14 15
M  V30 15 1 14 16
M  V30 16 1 16 17
M  V30 17 1 17 18
M  V30 18 1 13 19
M  V30 19 2 19 20
M  V30 20 2 9 21
M  V30 21 1 21 22
M  V30 22 2 22 23
M  V30 23 1 23 24
M  V30 24 2 24 25
M  V30 25 1 25 26
M  V30 26 2 26 27
M  V30 27 1 21 28
M  V30 28 1 28 29
M  V30 29 2 29 4
M  V30 30 1 28 7
M  V30 31 1 20 10
M  V30 32 1 27 22
M  V30 33 1 18 14
M  V30 34 1 1 30
M  V30 35 1 1 31
M  V30 36 1 5 32
M  V30 37 1 6 33
M  V30 38 1 11 34
M  V30 39 1 12 35
M  V30 40 1 15 36
M  V30 41 1 15 37
M  V30 42 1 16 38
M  V30 43 1 16 39
M  V30 44 1 17 40
M  V30 45 1 17 41
M  V30 46 1 18 42
M  V30 47 1 18 43
M  V30 48 1 19 44
M  V30 49 1 20 45
M  V30 50 1 23 46
M  V30 51 1 24 47
M  V30 52 1 25 48
M  V30 53 1 26 49
M  V30 54 1 27 50
M  V30 55 1 29 51
M  V30 END BOND
M  V30 END CTAB
M  END
>  <Dataset>  (411) 
ChEMBL_Kinases

>  <Ligand_Instance>  (411) 
nan

>  <PDB_ID>  (411) 
nan

>  <Standardized_SMILES>  (411) 
NC(=O)c1ccc2nc(-c3ccc(C4(N)CCC4)cc3)c(-c3ccccc3)n2c1

>  <Name>  (411) 
nan

>  <Pocket>  (411) 
nan

>  <ATP_Site>  (411) 
nan

>  <Peripheral>  (411) 
nan

>  <Num_H_Atoms_ProtBoundConf>  (411) 
nan

>  <Num_Resolved_Atoms>  (411) 
nan

>  <Num_Not_Resolved_Atoms>  (411) 
nan

$$$$
CHEMBL3699696
     RDKit          3D

  0  0  0  0  0  0  0  0  0  0999 V3000
M  V30 BEGIN CTAB
M  V30 COUNTS 51 55 0 0 0
M  V30 BEGIN ATOM
M  V30 1 C -0.589791 -7.813568 0.667722 0
M  V30 2 O 0.632057 -7.315439 0.161223 0
M  V30 3 C 0.978164 -6.000177 0.059010 0
M  V30 4 C 2.252786 -5.786796 -0.480550 0
M  V30 5 C 2.702853 -4.489467 -0.628107 0
M  V30 6 C 1.897026 -3.442738 -0.245644 0
M  V30 7 N 2.152679 -2.102327 -0.308536 0
M  V30 8 C 1.045287 -1.469238 0.189049 0
M  V30 9 C 0.869277 -0.026046 0.317105 0
M  V30 10 C 1.743392 0.689407 1.115638 0
M  V30 11 C 1.653147 2.056598 1.296365 0
M  V30 12 C 0.645627 2.770787 0.657025 0
M  V30 13 C 0.678910 4.220421 0.945054 0
M  V30 14 N 0.830743 4.572246 2.340481 0
M  V30 15 C -0.397946 5.032582 0.297908 0
M  V30 16 C 0.645895 6.111133 0.030664 0
M  V30 17 C 1.674321 5.003006 0.106251 0
M  V30 18 C -0.230048 2.066879 -0.140533 0
M  V30 19 C -0.134583 0.705296 -0.316401 0
M  V30 20 C 0.124301 -2.420977 0.550941 0
M  V30 21 C -1.184837 -2.171975 1.119555 0
M  V30 22 C -1.554956 -1.569116 2.304853 0
M  V30 23 C -2.904859 -1.458440 2.610766 0
M  V30 24 C -3.872935 -1.924127 1.781373 0
M  V30 25 C -3.532999 -2.532439 0.587641 0
M  V30 26 C -2.182575 -2.649690 0.269199 0
M  V30 27 N 0.664318 -3.622896 0.277010 0
M  V30 28 C 0.239763 -4.894185 0.414546 0
M  V30 29 H -0.421716 -8.415536 1.583934 0
M  V30 30 H -1.337523 -7.022615 0.864267 0
M  V30 31 H -1.062865 -8.520080 -0.077550 0
M  V30 32 H 2.909769 -6.598387 -0.791022 0
M  V30 33 H 3.690883 -4.319614 -1.046504 0
M  V30 34 H 2.541347 0.127926 1.623102 0
M  V30 35 H 2.401194 2.513430 1.951703 0
M  V30 36 H 0.702733 3.725623 2.964993 0
M  V30 37 H 1.810254 4.887134 2.495237 0
M  V30 38 H -0.819529 4.694622 -0.649543 0
M  V30 39 H -1.145866 5.370412 1.057930 0
M  V30 40 H 0.543384 6.572693 -0.978039 0
M  V30 41 H 0.724951 6.813672 0.869502 0
M  V30 42 H 2.588384 5.253076 0.675874 0
M  V30 43 H 1.837169 4.531558 -0.884988 0
M  V30 44 H -0.980061 2.665705 -0.604219 0
M  V30 45 H -0.818318 0.181659 -0.934669 0
M  V30 46 H -0.693851 -1.243252 2.872640 0
M  V30 47 H -3.051085 -0.965203 3.569114 0
M  V30 48 H -4.899286 -1.796708 2.097148 0
M  V30 49 H -4.337087 -2.887140 -0.039376 0
M  V30 50 H -2.044906 -3.149248 -0.701298 0
M  V30 51 H -0.735289 -5.085147 0.826816 0
M  V30 END ATOM
M  V30 BEGIN BOND
M  V30 1 1 1 2
M  V30 2 1 2 3
M  V30 3 1 3 4
M  V30 4 2 4 5
M  V30 5 1 5 6
M  V30 6 2 6 7
M  V30 7 1 7 8
M  V30 8 1 8 9
M  V30 9 2 9 10
M  V30 10 1 10 11
M  V30 11 2 11 12
M  V30 12 1 12 13
M  V30 13 1 13 14
M  V30 14 1 13 15
M  V30 15 1 15 16
M  V30 16 1 16 17
M  V30 17 1 12 18
M  V30 18 2 18 19
M  V30 19 2 8 20
M  V30 20 1 20 21
M  V30 21 2 21 22
M  V30 22 1 22 23
M  V30 23 2 23 24
M  V30 24 1 24 25
M  V30 25 2 25 26
M  V30 26 1 20 27
M  V30 27 1 27 28
M  V30 28 2 28 3
M  V30 29 1 27 6
M  V30 30 1 19 9
M  V30 31 1 26 21
M  V30 32 1 17 13
M  V30 33 1 1 29
M  V30 34 1 1 30
M  V30 35 1 1 31
M  V30 36 1 4 32
M  V30 37 1 5 33
M  V30 38 1 10 34
M  V30 39 1 11 35
M  V30 40 1 14 36
M  V30 41 1 14 37
M  V30 42 1 15 38
M  V30 43 1 15 39
M  V30 44 1 16 40
M  V30 45 1 16 41
M  V30 46 1 17 42
M  V30 47 1 17 43
M  V30 48 1 18 44
M  V30 49 1 19 45
M  V30 50 1 22 46
M  V30 51 1 23 47
M  V30 52 1 24 48
M  V30 53 1 25 49
M  V30 54 1 26 50
M  V30 55 1 28 51
M  V30 END BOND
M  V30 END CTAB
M  END
>  <Dataset>  (412) 
ChEMBL_Kinases

>  <Ligand_Instance>  (412) 
nan

>  <PDB_ID>  (412) 
nan

>  <Standardized_SMILES>  (412) 
COc1ccc2nc(-c3ccc(C4(N)CCC4)cc3)c(-c3ccccc3)n2c1

>  <Name>  (412) 
nan

>  <Pocket>  (412) 
nan

>  <ATP_Site>  (412) 
nan

>  <Peripheral>  (412) 
nan

>  <Num_H_Atoms_ProtBoundConf>  (412) 
nan

>  <Num_Resolved_Atoms>  (412) 
nan

>  <Num_Not_Resolved_Atoms>  (412) 
nan

$$$$
CHEMBL3699695
     RDKit          3D

  0  0  0  0  0  0  0  0  0  0999 V3000
M  V30 BEGIN CTAB
M  V30 COUNTS 47 51 0 0 0
M  V30 BEGIN ATOM
M  V30 1 N 1.289645 -4.868791 2.779601 0
M  V30 2 C 0.164711 -4.425992 1.984843 0
M  V30 3 C 0.459736 -3.200472 1.224927 0
M  V30 4 C 0.299298 -3.010999 -0.131258 0
M  V30 5 C 0.604471 -1.814523 -0.741426 0
M  V30 6 C 1.086184 -0.797389 0.081412 0
M  V30 7 C 1.428665 0.498046 -0.494617 0
M  V30 8 N 2.280813 1.023894 -1.388110 0
M  V30 9 C 2.100038 2.350597 -1.486432 0
M  V30 10 C 2.746252 3.285143 -2.270569 0
M  V30 11 C 2.384790 4.632700 -2.205419 0
M  V30 12 C 1.370376 4.992653 -1.339118 0
M  V30 13 Br 0.811148 6.808155 -1.183689 0
M  V30 14 C 0.749659 4.025790 -0.572034 0
M  V30 15 N 1.108693 2.714326 -0.642307 0
M  V30 16 C 0.677892 1.579001 -0.016622 0
M  V30 17 C -0.415036 1.677573 0.975675 0
M  V30 18 C -1.552439 0.961625 0.625366 0
M  V30 19 C -2.626742 0.988840 1.480639 0
M  V30 20 C -2.554844 1.711320 2.644859 0
M  V30 21 C -1.432571 2.426106 3.004263 0
M  V30 22 C -0.335718 2.405922 2.143915 0
M  V30 23 C 1.262418 -0.944227 1.444786 0
M  V30 24 C 0.940333 -2.174684 2.022201 0
M  V30 25 C -0.380332 -5.592226 1.191888 0
M  V30 26 C -1.760158 -5.007340 1.424387 0
M  V30 27 C -1.174665 -4.401127 2.707416 0
M  V30 28 H 1.265266 -5.903613 2.977913 0
M  V30 29 H 1.370677 -4.361274 3.670737 0
M  V30 30 H -0.082182 -3.859417 -0.692239 0
M  V30 31 H 0.468686 -1.696900 -1.801325 0
M  V30 32 H 3.541239 2.947714 -2.937804 0
M  V30 33 H 2.896979 5.374481 -2.827252 0
M  V30 34 H -0.048495 4.329164 0.106134 0
M  V30 35 H -1.639629 0.376781 -0.295089 0
M  V30 36 H -3.568647 0.457507 1.294816 0
M  V30 37 H -3.373051 1.761852 3.346224 0
M  V30 38 H -1.294918 3.019276 3.900138 0
M  V30 39 H 0.613140 2.907430 2.275293 0
M  V30 40 H 1.640689 -0.118896 2.033079 0
M  V30 41 H 1.103729 -2.218813 3.098204 0
M  V30 42 H -0.310166 -6.530989 1.795548 0
M  V30 43 H -0.051023 -5.709061 0.163056 0
M  V30 44 H -2.562101 -5.746857 1.624643 0
M  V30 45 H -2.089289 -4.236358 0.700285 0
M  V30 46 H -1.592208 -3.412017 2.916353 0
M  V30 47 H -1.231226 -5.168205 3.508306 0
M  V30 END ATOM
M  V30 BEGIN BOND
M  V30 1 1 1 2
M  V30 2 1 2 3
M  V30 3 2 3 4
M  V30 4 1 4 5
M  V30 5 2 5 6
M  V30 6 1 6 7
M  V30 7 1 7 8
M  V30 8 2 8 9
M  V30 9 1 9 10
M  V30 10 2 10 11
M  V30 11 1 11 12
M  V30 12 1 12 13
M  V30 13 2 12 14
M  V30 14 1 14 15
M  V30 15 1 15 16
M  V30 16 1 16 17
M  V30 17 2 17 18
M  V30 18 1 18 19
M  V30 19 2 19 20
M  V30 20 1 20 21
M  V30 21 2 21 22
M  V30 22 1 6 23
M  V30 23 2 23 24
M  V30 24 1 2 25
M  V30 25 1 25 26
M  V30 26 1 26 27
M  V30 27 1 27 2
M  V30 28 1 24 3
M  V30 29 2 16 7
M  V30 30 1 22 17
M  V30 31 1 15 9
M  V30 32 1 1 28
M  V30 33 1 1 29
M  V30 34 1 4 30
M  V30 35 1 5 31
M  V30 36 1 10 32
M  V30 37 1 11 33
M  V30 38 1 14 34
M  V30 39 1 18 35
M  V30 40 1 19 36
M  V30 41 1 20 37
M  V30 42 1 21 38
M  V30 43 1 22 39
M  V30 44 1 23 40
M  V30 45 1 24 41
M  V30 46 1 25 42
M  V30 47 1 25 43
M  V30 48 1 26 44
M  V30 49 1 26 45
M  V30 50 1 27 46
M  V30 51 1 27 47
M  V30 END BOND
M  V30 END CTAB
M  END
>  <Dataset>  (413) 
ChEMBL_Kinases

>  <Ligand_Instance>  (413) 
nan

>  <PDB_ID>  (413) 
nan

>  <Standardized_SMILES>  (413) 
NC1(c2ccc(-c3nc4ccc(Br)cn4c3-c3ccccc3)cc2)CCC1

>  <Name>  (413) 
nan

>  <Pocket>  (413) 
nan

>  <ATP_Site>  (413) 
nan

>  <Peripheral>  (413) 
nan

>  <Num_H_Atoms_ProtBoundConf>  (413) 
nan

>  <Num_Resolved_Atoms>  (413) 
nan

>  <Num_Not_Resolved_Atoms>  (413) 
nan

$$$$
CHEMBL3699694
     RDKit          3D

  0  0  0  0  0  0  0  0  0  0999 V3000
M  V30 BEGIN CTAB
M  V30 COUNTS 51 55 0 0 0
M  V30 BEGIN ATOM
M  V30 1 N -3.234222 -4.362786 1.459673 0
M  V30 2 C -2.355591 -4.445405 0.304842 0
M  V30 3 C -1.429681 -3.296993 0.154046 0
M  V30 4 C -1.026654 -2.591324 -0.959192 0
M  V30 5 C -0.140699 -1.542135 -0.828869 0
M  V30 6 C 0.358860 -1.177443 0.408336 0
M  V30 7 C 1.297729 -0.035337 0.390691 0
M  V30 8 N 2.496606 0.195587 -0.180301 0
M  V30 9 C 2.874025 1.451522 0.168797 0
M  V30 10 C 4.012710 2.160433 -0.154342 0
M  V30 11 C 5.052751 1.521664 -1.025201 0
M  V30 12 O 4.673551 1.493453 -2.365607 0
M  V30 13 C 4.242533 3.445765 0.291329 0
M  V30 14 C 3.277043 4.021465 1.091528 0
M  V30 15 C 2.154987 3.300811 1.399968 0
M  V30 16 N 1.932395 2.030960 0.957258 0
M  V30 17 C 0.944871 1.116850 1.104024 0
M  V30 18 C -0.226601 1.473769 1.922682 0
M  V30 19 C -1.448758 1.497948 1.244112 0
M  V30 20 C -2.612732 1.825985 1.938352 0
M  V30 21 C -2.543496 2.122070 3.283792 0
M  V30 22 C -1.326964 2.099838 3.967005 0
M  V30 23 C -0.184657 1.772895 3.263967 0
M  V30 24 C -0.028548 -1.867646 1.538820 0
M  V30 25 C -0.922824 -2.926171 1.405209 0
M  V30 26 C -1.633755 -5.769216 0.169086 0
M  V30 27 C -2.186272 -5.898818 -1.257543 0
M  V30 28 C -3.174807 -4.807386 -0.911683 0
M  V30 29 H -2.792161 -4.775350 2.312861 0
M  V30 30 H -3.422723 -3.332725 1.581924 0
M  V30 31 H -1.485247 -2.973718 -1.858849 0
M  V30 32 H 0.119697 -1.046050 -1.754376 0
M  V30 33 H 6.006556 2.084591 -0.968819 0
M  V30 34 H 5.270345 0.472442 -0.723852 0
M  V30 35 H 3.772837 1.901089 -2.526433 0
M  V30 36 H 5.134514 4.027031 0.049975 0
M  V30 37 H 3.414823 5.036891 1.468215 0
M  V30 38 H 1.407476 3.768653 2.029265 0
M  V30 39 H -1.613956 1.280808 0.184979 0
M  V30 40 H -3.602386 1.868437 1.488421 0
M  V30 41 H -3.396227 2.388629 3.907932 0
M  V30 42 H -1.266186 2.329414 5.014419 0
M  V30 43 H 0.795419 1.732167 3.713951 0
M  V30 44 H 0.392150 -1.540021 2.473596 0
M  V30 45 H -1.142637 -3.381942 2.375755 0
M  V30 46 H -0.530672 -5.652584 0.147412 0
M  V30 47 H -1.982519 -6.586171 0.833792 0
M  V30 48 H -2.737876 -6.840230 -1.444550 0
M  V30 49 H -1.496165 -5.575635 -2.052767 0
M  V30 50 H -4.199877 -5.164527 -0.695793 0
M  V30 51 H -3.239283 -3.958256 -1.613178 0
M  V30 END ATOM
M  V30 BEGIN BOND
M  V30 1 1 1 2
M  V30 2 1 2 3
M  V30 3 2 3 4
M  V30 4 1 4 5
M  V30 5 2 5 6
M  V30 6 1 6 7
M  V30 7 1 7 8
M  V30 8 2 8 9
M  V30 9 1 9 10
M  V30 10 1 10 11
M  V30 11 1 11 12
M  V30 12 2 10 13
M  V30 13 1 13 14
M  V30 14 2 14 15
M  V30 15 1 15 16
M  V30 16 1 16 17
M  V30 17 1 17 18
M  V30 18 2 18 19
M  V30 19 1 19 20
M  V30 20 2 20 21
M  V30 21 1 21 22
M  V30 22 2 22 23
M  V30 23 1 6 24
M  V30 24 2 24 25
M  V30 25 1 2 26
M  V30 26 1 26 27
M  V30 27 1 27 28
M  V30 28 1 28 2
M  V30 29 1 25 3
M  V30 30 2 17 7
M  V30 31 1 23 18
M  V30 32 1 16 9
M  V30 33 1 1 29
M  V30 34 1 1 30
M  V30 35 1 4 31
M  V30 36 1 5 32
M  V30 37 1 11 33
M  V30 38 1 11 34
M  V30 39 1 12 35
M  V30 40 1 13 36
M  V30 41 1 14 37
M  V30 42 1 15 38
M  V30 43 1 19 39
M  V30 44 1 20 40
M  V30 45 1 21 41
M  V30 46 1 22 42
M  V30 47 1 23 43
M  V30 48 1 24 44
M  V30 49 1 25 45
M  V30 50 1 26 46
M  V30 51 1 26 47
M  V30 52 1 27 48
M  V30 53 1 27 49
M  V30 54 1 28 50
M  V30 55 1 28 51
M  V30 END BOND
M  V30 END CTAB
M  END
>  <Dataset>  (414) 
ChEMBL_Kinases

>  <Ligand_Instance>  (414) 
nan

>  <PDB_ID>  (414) 
nan

>  <Standardized_SMILES>  (414) 
NC1(c2ccc(-c3nc4c(CO)cccn4c3-c3ccccc3)cc2)CCC1

>  <Name>  (414) 
nan

>  <Pocket>  (414) 
nan

>  <ATP_Site>  (414) 
nan

>  <Peripheral>  (414) 
nan

>  <Num_H_Atoms_ProtBoundConf>  (414) 
nan

>  <Num_Resolved_Atoms>  (414) 
nan

>  <Num_Not_Resolved_Atoms>  (414) 
nan

$$$$
CHEMBL3699702
     RDKit          3D

  0  0  0  0  0  0  0  0  0  0999 V3000
M  V30 BEGIN CTAB
M  V30 COUNTS 62 66 0 0 0
M  V30 BEGIN ATOM
M  V30 1 C 2.576491 -1.769863 4.571912 0
M  V30 2 O 3.849223 -1.770378 5.081772 0
M  V30 3 C 4.726971 -1.015000 4.330554 0
M  V30 4 C 4.304184 0.413166 4.264739 0
M  V30 5 N 5.259980 1.168182 3.472204 0
M  V30 6 C 5.264652 0.841731 2.082883 0
M  V30 7 C 4.005751 1.075698 1.369146 0
M  V30 8 C 3.799915 2.332486 0.787133 0
M  V30 9 C 2.680797 2.731186 0.077880 0
M  V30 10 C 1.706821 1.761879 -0.037321 0
M  V30 11 N 0.510218 1.889037 -0.682292 0
M  V30 12 C -0.119049 0.710574 -0.546463 0
M  V30 13 C -1.432235 0.297173 -1.042666 0
M  V30 14 C -2.382938 -0.039243 -0.080759 0
M  V30 15 C -3.652269 -0.442869 -0.470457 0
M  V30 16 C -3.994925 -0.518200 -1.811982 0
M  V30 17 C -5.377119 -0.963497 -2.063112 0
M  V30 18 N -6.362156 -0.510380 -1.118816 0
M  V30 19 C -5.523100 -2.482806 -2.202059 0
M  V30 20 C -6.559682 -2.227034 -3.248656 0
M  V30 21 C -5.900545 -0.856734 -3.457006 0
M  V30 22 C -3.042387 -0.181723 -2.750636 0
M  V30 23 C -1.775430 0.221576 -2.377469 0
M  V30 24 C 0.722208 -0.130152 0.193554 0
M  V30 25 C 0.392592 -1.509703 0.553789 0
M  V30 26 C 0.250098 -2.287403 -0.595669 0
M  V30 27 C -0.062929 -3.629308 -0.542977 0
M  V30 28 C -0.237713 -4.205095 0.709295 0
M  V30 29 C -0.098252 -3.443573 1.837729 0
M  V30 30 C 0.214412 -2.103251 1.784150 0
M  V30 31 N 1.848776 0.537859 0.500370 0
M  V30 32 C 2.957274 0.198282 1.181955 0
M  V30 33 H 2.517846 -2.158701 3.533614 0
M  V30 34 H 2.071701 -0.803135 4.720863 0
M  V30 35 H 1.989690 -2.532092 5.174405 0
M  V30 36 H 4.721614 -1.472576 3.307699 0
M  V30 37 H 5.744810 -1.089379 4.788073 0
M  V30 38 H 3.274386 0.524901 3.865197 0
M  V30 39 H 4.310581 0.835272 5.285229 0
M  V30 40 H 5.261754 2.164169 3.713442 0
M  V30 41 H 6.053152 1.472716 1.591526 0
M  V30 42 H 5.622743 -0.209750 1.994257 0
M  V30 43 H 4.596657 3.085530 0.896252 0
M  V30 44 H 2.633851 3.726107 -0.324643 0
M  V30 45 H -2.120933 0.017431 0.975583 0
M  V30 46 H -4.325210 -0.684521 0.335131 0
M  V30 47 H -6.397037 0.520875 -0.984777 0
M  V30 48 H -6.426311 -1.068185 -0.261738 0
M  V30 49 H -5.874999 -2.954128 -1.265034 0
M  V30 50 H -4.570308 -2.899701 -2.565345 0
M  V30 51 H -7.561406 -2.179622 -2.795358 0
M  V30 52 H -6.454425 -2.919608 -4.097012 0
M  V30 53 H -6.741250 -0.122034 -3.588612 0
M  V30 54 H -5.206034 -0.919248 -4.293377 0
M  V30 55 H -3.349564 -0.253876 -3.781840 0
M  V30 56 H -1.032067 0.484470 -3.111918 0
M  V30 57 H 0.362715 -1.949727 -1.637993 0
M  V30 58 H -0.183630 -4.272765 -1.403265 0
M  V30 59 H -0.484418 -5.256799 0.800859 0
M  V30 60 H -0.220201 -3.826836 2.838241 0
M  V30 61 H 0.353184 -1.392986 2.585762 0
M  V30 62 H 3.082295 -0.780661 1.617760 0
M  V30 END ATOM
M  V30 BEGIN BOND
M  V30 1 1 1 2
M  V30 2 1 2 3
M  V30 3 1 3 4
M  V30 4 1 4 5
M  V30 5 1 5 6
M  V30 6 1 6 7
M  V30 7 1 7 8
M  V30 8 2 8 9
M  V30 9 1 9 10
M  V30 10 2 10 11
M  V30 11 1 11 12
M  V30 12 1 12 13
M  V30 13 2 13 14
M  V30 14 1 14 15
M  V30 15 2 15 16
M  V30 16 1 16 17
M  V30 17 1 17 18
M  V30 18 1 17 19
M  V30 19 1 19 20
M  V30 20 1 20 21
M  V30 21 1 16 22
M  V30 22 2 22 23
M  V30 23 2 12 24
M  V30 24 1 24 25
M  V30 25 2 25 26
M  V30 26 1 26 27
M  V30 27 2 27 28
M  V30 28 1 28 29
M  V30 29 2 29 30
M  V30 30 1 24 31
M  V30 31 1 31 32
M  V30 32 2 32 7
M  V30 33 1 31 10
M  V30 34 1 23 13
M  V30 35 1 30 25
M  V30 36 1 21 17
M  V30 37 1 1 33
M  V30 38 1 1 34
M  V30 39 1 1 35
M  V30 40 1 3 36
M  V30 41 1 3 37
M  V30 42 1 4 38
M  V30 43 1 4 39
M  V30 44 1 5 40
M  V30 45 1 6 41
M  V30 46 1 6 42
M  V30 47 1 8 43
M  V30 48 1 9 44
M  V30 49 1 14 45
M  V30 50 1 15 46
M  V30 51 1 18 47
M  V30 52 1 18 48
M  V30 53 1 19 49
M  V30 54 1 19 50
M  V30 55 1 20 51
M  V30 56 1 20 52
M  V30 57 1 21 53
M  V30 58 1 21 54
M  V30 59 1 22 55
M  V30 60 1 23 56
M  V30 61 1 26 57
M  V30 62 1 27 58
M  V30 63 1 28 59
M  V30 64 1 29 60
M  V30 65 1 30 61
M  V30 66 1 32 62
M  V30 END BOND
M  V30 END CTAB
M  END
>  <Dataset>  (415) 
ChEMBL_Kinases

>  <Ligand_Instance>  (415) 
nan

>  <PDB_ID>  (415) 
nan

>  <Standardized_SMILES>  (415) 
COCCNCc1ccc2nc(-c3ccc(C4(N)CCC4)cc3)c(-c3ccccc3)n2c1

>  <Name>  (415) 
nan

>  <Pocket>  (415) 
nan

>  <ATP_Site>  (415) 
nan

>  <Peripheral>  (415) 
nan

>  <Num_H_Atoms_ProtBoundConf>  (415) 
nan

>  <Num_Resolved_Atoms>  (415) 
nan

>  <Num_Not_Resolved_Atoms>  (415) 
nan

$$$$
CHEMBL2348161
     RDKit          3D

  0  0  0  0  0  0  0  0  0  0999 V3000
M  V30 BEGIN CTAB
M  V30 COUNTS 34 37 0 0 0
M  V30 BEGIN ATOM
M  V30 1 N 1.612884 -5.669412 1.869377 0
M  V30 2 C 0.599897 -4.675022 1.937068 0
M  V30 3 N -0.501502 -4.880780 2.660039 0
M  V30 4 C -1.481555 -3.987432 2.760217 0
M  V30 5 C -1.325787 -2.786744 2.066821 0
M  V30 6 C -0.174851 -2.573790 1.312373 0
M  V30 7 N -0.182612 -1.309254 0.678694 0
M  V30 8 C 0.364100 -0.172282 1.201372 0
M  V30 9 C 0.143002 0.837266 0.271475 0
M  V30 10 C 0.606863 2.188797 0.525781 0
M  V30 11 C 1.897564 2.401993 1.024390 0
M  V30 12 C 2.417505 3.669150 1.294845 0
M  V30 13 N 1.637935 4.734221 1.064025 0
M  V30 14 C 0.403459 4.598237 0.591135 0
M  V30 15 C -0.108427 3.351400 0.324912 0
M  V30 16 C -0.525436 0.355575 -0.811802 0
M  V30 17 C -0.976736 0.927501 -1.981891 0
M  V30 18 N -1.613383 0.149973 -2.857786 0
M  V30 19 C -1.818722 -1.177823 -2.613625 0
M  V30 20 C -1.380296 -1.805787 -1.441533 0
M  V30 21 C -0.714440 -0.982181 -0.530543 0
M  V30 22 N 0.781005 -3.540802 1.262964 0
M  V30 23 H 2.331628 -5.747916 2.621252 0
M  V30 24 H 1.682402 -6.357822 1.073593 0
M  V30 25 H -2.347233 -4.199918 3.354073 0
M  V30 26 H -2.146043 -2.087386 2.175050 0
M  V30 27 H 0.869760 -0.101299 2.164326 0
M  V30 28 H 2.524278 1.523328 1.208626 0
M  V30 29 H 3.428275 3.702590 1.677452 0
M  V30 30 H -0.184068 5.491049 0.422482 0
M  V30 31 H -1.119501 3.231214 -0.062914 0
M  V30 32 H -0.795066 1.985798 -2.140965 0
M  V30 33 H -2.349398 -1.784693 -3.363887 0
M  V30 34 H -1.557108 -2.851238 -1.279156 0
M  V30 END ATOM
M  V30 BEGIN BOND
M  V30 1 1 1 2
M  V30 2 2 2 3
M  V30 3 1 3 4
M  V30 4 2 4 5
M  V30 5 1 5 6
M  V30 6 1 6 7
M  V30 7 1 7 8
M  V30 8 2 8 9
M  V30 9 1 9 10
M  V30 10 2 10 11
M  V30 11 1 11 12
M  V30 12 2 12 13
M  V30 13 1 13 14
M  V30 14 2 14 15
M  V30 15 1 9 16
M  V30 16 2 16 17
M  V30 17 1 17 18
M  V30 18 2 18 19
M  V30 19 1 19 20
M  V30 20 2 20 21
M  V30 21 2 6 22
M  V30 22 1 22 2
M  V30 23 1 21 7
M  V30 24 1 15 10
M  V30 25 1 21 16
M  V30 26 1 1 23
M  V30 27 1 1 24
M  V30 28 1 4 25
M  V30 29 1 5 26
M  V30 30 1 8 27
M  V30 31 1 11 28
M  V30 32 1 12 29
M  V30 33 1 14 30
M  V30 34 1 15 31
M  V30 35 1 17 32
M  V30 36 1 19 33
M  V30 37 1 20 34
M  V30 END BOND
M  V30 END CTAB
M  END
>  <Dataset>  (416) 
ChEMBL_Kinases

>  <Ligand_Instance>  (416) 
nan

>  <PDB_ID>  (416) 
nan

>  <Standardized_SMILES>  (416) 
Nc1nccc(-n2cc(-c3ccncc3)c3cnccc32)n1

>  <Name>  (416) 
nan

>  <Pocket>  (416) 
nan

>  <ATP_Site>  (416) 
nan

>  <Peripheral>  (416) 
nan

>  <Num_H_Atoms_ProtBoundConf>  (416) 
nan

>  <Num_Resolved_Atoms>  (416) 
nan

>  <Num_Not_Resolved_Atoms>  (416) 
nan

$$$$
CHEMBL2348162
     RDKit          3D

  0  0  0  0  0  0  0  0  0  0999 V3000
M  V30 BEGIN CTAB
M  V30 COUNTS 34 37 0 0 0
M  V30 BEGIN ATOM
M  V30 1 N 1.934932 -5.611132 1.969732 0
M  V30 2 C 0.870048 -4.683090 1.983793 0
M  V30 3 N -0.247637 -4.963916 2.686762 0
M  V30 4 C -1.290260 -4.095718 2.722666 0
M  V30 5 C -1.138494 -2.910487 1.998072 0
M  V30 6 C 0.029139 -2.645952 1.279507 0
M  V30 7 N -0.079428 -1.379314 0.638120 0
M  V30 8 C 0.252232 -0.198284 1.179722 0
M  V30 9 C 0.013731 0.828102 0.263708 0
M  V30 10 C 0.270753 2.236824 0.544971 0
M  V30 11 C 1.455728 2.637507 1.157991 0
M  V30 12 C 1.623969 3.988958 1.390259 0
M  V30 13 C 0.723253 4.977736 1.069382 0
M  V30 14 N -0.407762 4.537732 0.477819 0
M  V30 15 C -0.627782 3.234352 0.226128 0
M  V30 16 C -0.483105 0.196553 -0.867000 0
M  V30 17 C -0.868158 0.784269 -2.045686 0
M  V30 18 N -1.322942 -0.058550 -3.006386 0
M  V30 19 C -1.379833 -1.383750 -2.784156 0
M  V30 20 C -1.006185 -2.024177 -1.620688 0
M  V30 21 C -0.537590 -1.163458 -0.628657 0
M  V30 22 N 1.020939 -3.548119 1.287193 0
M  V30 23 H 1.750783 -6.294792 1.190499 0
M  V30 24 H 2.508706 -5.257350 2.752780 0
M  V30 25 H -2.158110 -4.351718 3.289299 0
M  V30 26 H -2.026291 -2.277444 2.086920 0
M  V30 27 H 0.644176 -0.048339 2.169456 0
M  V30 28 H 2.216499 1.924458 1.442702 0
M  V30 29 H 2.564515 4.283016 1.874120 0
M  V30 30 H 0.913609 6.021376 1.277703 0
M  V30 31 H -1.578247 2.978135 -0.258255 0
M  V30 32 H -0.826986 1.831128 -2.231189 0
M  V30 33 H -1.753919 -2.032313 -3.586876 0
M  V30 34 H -1.061889 -3.075730 -1.472166 0
M  V30 END ATOM
M  V30 BEGIN BOND
M  V30 1 1 1 2
M  V30 2 2 2 3
M  V30 3 1 3 4
M  V30 4 2 4 5
M  V30 5 1 5 6
M  V30 6 1 6 7
M  V30 7 1 7 8
M  V30 8 2 8 9
M  V30 9 1 9 10
M  V30 10 2 10 11
M  V30 11 1 11 12
M  V30 12 2 12 13
M  V30 13 1 13 14
M  V30 14 2 14 15
M  V30 15 1 9 16
M  V30 16 2 16 17
M  V30 17 1 17 18
M  V30 18 2 18 19
M  V30 19 1 19 20
M  V30 20 2 20 21
M  V30 21 2 6 22
M  V30 22 1 22 2
M  V30 23 1 21 7
M  V30 24 1 15 10
M  V30 25 1 21 16
M  V30 26 1 1 23
M  V30 27 1 1 24
M  V30 28 1 4 25
M  V30 29 1 5 26
M  V30 30 1 8 27
M  V30 31 1 11 28
M  V30 32 1 12 29
M  V30 33 1 13 30
M  V30 34 1 15 31
M  V30 35 1 17 32
M  V30 36 1 19 33
M  V30 37 1 20 34
M  V30 END BOND
M  V30 END CTAB
M  END
>  <Dataset>  (417) 
ChEMBL_Kinases

>  <Ligand_Instance>  (417) 
nan

>  <PDB_ID>  (417) 
nan

>  <Standardized_SMILES>  (417) 
Nc1nccc(-n2cc(-c3cccnc3)c3cnccc32)n1

>  <Name>  (417) 
nan

>  <Pocket>  (417) 
nan

>  <ATP_Site>  (417) 
nan

>  <Peripheral>  (417) 
nan

>  <Num_H_Atoms_ProtBoundConf>  (417) 
nan

>  <Num_Resolved_Atoms>  (417) 
nan

>  <Num_Not_Resolved_Atoms>  (417) 
nan

$$$$
CHEMBL2348164
     RDKit          3D

  0  0  0  0  0  0  0  0  0  0999 V3000
M  V30 BEGIN CTAB
M  V30 COUNTS 35 38 0 0 0
M  V30 BEGIN ATOM
M  V30 1 N 2.648659 -5.478824 0.939854 0
M  V30 2 C 1.516084 -4.728685 1.361955 0
M  V30 3 N 0.603298 -5.259339 2.223126 0
M  V30 4 C -0.481198 -4.536438 2.625195 0
M  V30 5 C -0.583526 -3.260227 2.108747 0
M  V30 6 C 0.319863 -2.689610 1.235599 0
M  V30 7 N 0.119066 -1.364525 0.763345 0
M  V30 8 C 0.266124 -0.181643 1.388768 0
M  V30 9 C -0.060103 0.798880 0.469359 0
M  V30 10 C -0.003587 2.213239 0.834343 0
M  V30 11 C -0.527662 2.657956 2.035360 0
M  V30 12 C -0.483182 3.990624 2.396817 0
M  V30 13 C 0.096835 4.938024 1.554388 0
M  V30 14 C 0.603538 4.430205 0.366864 0
M  V30 15 C 0.576848 3.110194 -0.025980 0
M  V30 16 C -0.404760 0.168009 -0.718408 0
M  V30 17 C -0.799317 0.737565 -1.910406 0
M  V30 18 N -1.085697 -0.101896 -2.938250 0
M  V30 19 C -0.988134 -1.450036 -2.800253 0
M  V30 20 C -0.589371 -1.978146 -1.589380 0
M  V30 21 C -0.278849 -1.187624 -0.490427 0
M  V30 22 N 1.353575 -3.482742 0.900126 0
M  V30 23 H 2.887756 -6.306339 0.324022 0
M  V30 24 H 3.503020 -5.073786 1.385680 0
M  V30 25 H -1.233231 -4.904328 3.302898 0
M  V30 26 H -1.441858 -2.659818 2.414003 0
M  V30 27 H 0.588822 -0.199163 2.421901 0
M  V30 28 H -0.994147 1.956345 2.733313 0
M  V30 29 H -0.879870 4.395829 3.329093 0
M  V30 30 H 0.172658 5.993008 1.759101 0
M  V30 31 H 1.059347 5.141397 -0.306441 0
M  V30 32 H 1.006257 2.835840 -0.979599 0
M  V30 33 H -0.884042 1.808261 -2.043221 0
M  V30 34 H -1.207073 -2.137561 -3.591974 0
M  V30 35 H -0.501981 -3.066101 -1.450224 0
M  V30 END ATOM
M  V30 BEGIN BOND
M  V30 1 1 1 2
M  V30 2 2 2 3
M  V30 3 1 3 4
M  V30 4 2 4 5
M  V30 5 1 5 6
M  V30 6 1 6 7
M  V30 7 1 7 8
M  V30 8 2 8 9
M  V30 9 1 9 10
M  V30 10 2 10 11
M  V30 11 1 11 12
M  V30 12 2 12 13
M  V30 13 1 13 14
M  V30 14 2 14 15
M  V30 15 1 9 16
M  V30 16 2 16 17
M  V30 17 1 17 18
M  V30 18 2 18 19
M  V30 19 1 19 20
M  V30 20 2 20 21
M  V30 21 2 6 22
M  V30 22 1 22 2
M  V30 23 1 21 7
M  V30 24 1 15 10
M  V30 25 1 21 16
M  V30 26 1 1 23
M  V30 27 1 1 24
M  V30 28 1 4 25
M  V30 29 1 5 26
M  V30 30 1 8 27
M  V30 31 1 11 28
M  V30 32 1 12 29
M  V30 33 1 13 30
M  V30 34 1 14 31
M  V30 35 1 15 32
M  V30 36 1 17 33
M  V30 37 1 19 34
M  V30 38 1 20 35
M  V30 END BOND
M  V30 END CTAB
M  END
>  <Dataset>  (418) 
ChEMBL_Kinases

>  <Ligand_Instance>  (418) 
nan

>  <PDB_ID>  (418) 
nan

>  <Standardized_SMILES>  (418) 
Nc1nccc(-n2cc(-c3ccccc3)c3cnccc32)n1

>  <Name>  (418) 
nan

>  <Pocket>  (418) 
nan

>  <ATP_Site>  (418) 
nan

>  <Peripheral>  (418) 
nan

>  <Num_H_Atoms_ProtBoundConf>  (418) 
nan

>  <Num_Resolved_Atoms>  (418) 
nan

>  <Num_Not_Resolved_Atoms>  (418) 
nan

$$$$
CHEMBL2348165
     RDKit          3D

  0  0  0  0  0  0  0  0  0  0999 V3000
M  V30 BEGIN CTAB
M  V30 COUNTS 25 27 0 0 0
M  V30 BEGIN ATOM
M  V30 1 N -0.480448 -2.553926 4.567841 0
M  V30 2 C 0.161820 -2.394089 3.306396 0
M  V30 3 N 0.724048 -3.421326 2.611613 0
M  V30 4 C 1.318655 -3.244609 1.433711 0
M  V30 5 C 1.395172 -1.995879 0.852048 0
M  V30 6 C 0.827483 -0.947199 1.549555 0
M  V30 7 N 0.781173 0.437243 1.150814 0
M  V30 8 C 1.184748 1.559342 1.772389 0
M  V30 9 C 0.906085 2.631925 0.943478 0
M  V30 10 C 0.330034 2.113746 -0.178170 0
M  V30 11 N -0.143455 2.683338 -1.315527 0
M  V30 12 C -0.684355 1.982514 -2.322373 0
M  V30 13 C -0.789626 0.606007 -2.250004 0
M  V30 14 C -0.315957 0.013002 -1.107197 0
M  V30 15 C 0.245373 0.744766 -0.063281 0
M  V30 16 N 0.223944 -1.156975 2.755819 0
M  V30 17 H 0.052775 -2.269719 5.419450 0
M  V30 18 H -1.377471 -2.945322 4.221997 0
M  V30 19 H 1.767161 -4.048141 0.873879 0
M  V30 20 H 1.844211 -1.720048 -0.087429 0
M  V30 21 H 1.640498 1.532774 2.754240 0
M  V30 22 H 1.127214 3.654799 1.195750 0
M  V30 23 H -1.061820 2.440400 -3.229912 0
M  V30 24 H -1.211450 -0.038254 -3.014090 0
M  V30 25 H -0.380365 -1.069006 -1.011034 0
M  V30 END ATOM
M  V30 BEGIN BOND
M  V30 1 1 1 2
M  V30 2 2 2 3
M  V30 3 1 3 4
M  V30 4 2 4 5
M  V30 5 1 5 6
M  V30 6 1 6 7
M  V30 7 1 7 8
M  V30 8 2 8 9
M  V30 9 1 9 10
M  V30 10 2 10 11
M  V30 11 1 11 12
M  V30 12 2 12 13
M  V30 13 1 13 14
M  V30 14 2 14 15
M  V30 15 2 6 16
M  V30 16 1 16 2
M  V30 17 1 15 7
M  V30 18 1 15 10
M  V30 19 1 1 17
M  V30 20 1 1 18
M  V30 21 1 4 19
M  V30 22 1 5 20
M  V30 23 1 8 21
M  V30 24 1 9 22
M  V30 25 1 12 23
M  V30 26 1 13 24
M  V30 27 1 14 25
M  V30 END BOND
M  V30 END CTAB
M  END
>  <Dataset>  (419) 
ChEMBL_Kinases

>  <Ligand_Instance>  (419) 
nan

>  <PDB_ID>  (419) 
nan

>  <Standardized_SMILES>  (419) 
Nc1nccc(-n2ccc3ncccc32)n1

>  <Name>  (419) 
nan

>  <Pocket>  (419) 
nan

>  <ATP_Site>  (419) 
nan

>  <Peripheral>  (419) 
nan

>  <Num_H_Atoms_ProtBoundConf>  (419) 
nan

>  <Num_Resolved_Atoms>  (419) 
nan

>  <Num_Not_Resolved_Atoms>  (419) 
nan

$$$$
CHEMBL2348167
     RDKit          3D

  0  0  0  0  0  0  0  0  0  0999 V3000
M  V30 BEGIN CTAB
M  V30 COUNTS 25 27 0 0 0
M  V30 BEGIN ATOM
M  V30 1 N -0.878194 -2.528975 4.595266 0
M  V30 2 C -0.136812 -2.401258 3.396133 0
M  V30 3 N 0.573944 -3.447079 2.945125 0
M  V30 4 C 1.294341 -3.356617 1.800099 0
M  V30 5 C 1.280188 -2.162341 1.107430 0
M  V30 6 C 0.560542 -1.081455 1.550930 0
M  V30 7 N 0.479737 0.184147 0.916515 0
M  V30 8 C 0.558557 1.331064 1.652953 0
M  V30 9 C 0.458880 2.431840 0.847888 0
M  V30 10 C 0.312495 1.964694 -0.437546 0
M  V30 11 C 0.165057 2.537019 -1.680564 0
M  V30 12 C 0.039091 1.729480 -2.806697 0
M  V30 13 N 0.063812 0.383177 -2.660156 0
M  V30 14 C 0.205871 -0.218758 -1.464988 0
M  V30 15 C 0.329698 0.593593 -0.357052 0
M  V30 16 N -0.127650 -1.267775 2.704511 0
M  V30 17 H -0.514397 -3.181630 5.333221 0
M  V30 18 H -1.761303 -2.065509 4.882141 0
M  V30 19 H 1.887099 -4.192585 1.402374 0
M  V30 20 H 1.834904 -2.047403 0.198608 0
M  V30 21 H 0.682866 1.422683 2.729399 0
M  V30 22 H 0.486557 3.470196 1.137756 0
M  V30 23 H 0.148492 3.620310 -1.769594 0
M  V30 24 H -0.076119 2.168384 -3.778502 0
M  V30 25 H 0.217789 -1.289839 -1.415288 0
M  V30 END ATOM
M  V30 BEGIN BOND
M  V30 1 1 1 2
M  V30 2 2 2 3
M  V30 3 1 3 4
M  V30 4 2 4 5
M  V30 5 1 5 6
M  V30 6 1 6 7
M  V30 7 1 7 8
M  V30 8 2 8 9
M  V30 9 1 9 10
M  V30 10 2 10 11
M  V30 11 1 11 12
M  V30 12 2 12 13
M  V30 13 1 13 14
M  V30 14 2 14 15
M  V30 15 2 6 16
M  V30 16 1 16 2
M  V30 17 1 15 7
M  V30 18 1 15 10
M  V30 19 1 1 17
M  V30 20 1 1 18
M  V30 21 1 4 19
M  V30 22 1 5 20
M  V30 23 1 8 21
M  V30 24 1 9 22
M  V30 25 1 11 23
M  V30 26 1 12 24
M  V30 27 1 14 25
M  V30 END BOND
M  V30 END CTAB
M  END
>  <Dataset>  (420) 
ChEMBL_Kinases

>  <Ligand_Instance>  (420) 
nan

>  <PDB_ID>  (420) 
nan

>  <Standardized_SMILES>  (420) 
Nc1nccc(-n2ccc3ccncc32)n1

>  <Name>  (420) 
nan

>  <Pocket>  (420) 
nan

>  <ATP_Site>  (420) 
nan

>  <Peripheral>  (420) 
nan

>  <Num_H_Atoms_ProtBoundConf>  (420) 
nan

>  <Num_Resolved_Atoms>  (420) 
nan

>  <Num_Not_Resolved_Atoms>  (420) 
nan

$$$$
CHEMBL3699251
     RDKit          3D

  0  0  0  0  0  0  0  0  0  0999 V3000
M  V30 BEGIN CTAB
M  V30 COUNTS 74 79 0 0 0
M  V30 BEGIN ATOM
M  V30 1 C 6.507618 -0.906670 0.465983 0
M  V30 2 O 5.329066 -1.343600 -0.144838 0
M  V30 3 C 5.341918 -2.244565 -1.192745 0
M  V30 4 O 6.282776 -2.826157 -1.792252 0
M  V30 5 N 4.063823 -2.582810 -1.690835 0
M  V30 6 C 3.572288 -3.432429 -2.720921 0 CFG=2
M  V30 7 C 2.572355 -2.843420 -3.653625 0
M  V30 8 N 1.290299 -3.144084 -3.085600 0
M  V30 9 C 0.184520 -3.069883 -3.988700 0
M  V30 10 C -0.053496 -1.730036 -4.603609 0
M  V30 11 C -1.034168 -0.882987 -3.841820 0
M  V30 12 N -1.047352 -1.157596 -2.429770 0
M  V30 13 C -1.086411 -0.368278 -1.244903 0
M  V30 14 C 0.001616 -0.423116 -0.381239 0
M  V30 15 C 0.124119 0.286040 0.817385 0
M  V30 16 C 1.297479 0.155161 1.636969 0
M  V30 17 N 2.232537 0.035380 2.292432 0
M  V30 18 C -0.951401 1.097163 1.129284 0
M  V30 19 C -2.066814 1.181543 0.287076 0
M  V30 20 N -3.132529 2.026966 0.706816 0
M  V30 21 C -3.078368 2.769122 1.918468 0
M  V30 22 N -3.223296 1.892800 2.947081 0
M  V30 23 C -3.221875 2.317921 4.222020 0
M  V30 24 N -3.362950 1.426337 5.331907 0
M  V30 25 C -3.497324 0.051473 4.892465 0
M  V30 26 C -3.674026 -0.991048 5.987955 0
M  V30 27 C -4.782494 -0.682542 5.038989 0
M  V30 28 C -3.069508 3.670996 4.457375 0
M  V30 29 N -3.037805 4.359345 5.635249 0
M  V30 30 C -2.871396 5.681872 5.347629 0
M  V30 31 C -2.807126 5.741556 3.951977 0
M  V30 32 C -2.640455 6.977907 3.247240 0
M  V30 33 N -2.486634 7.988149 2.661713 0
M  V30 34 N -2.928212 4.519209 3.435840 0
M  V30 35 N -2.929805 4.097074 2.185256 0
M  V30 36 C -2.113819 0.449146 -0.882460 0
M  V30 37 Cl -3.489554 0.556460 -1.925489 0
M  V30 38 C -1.026349 -2.531728 -1.969038 0
M  V30 39 C -1.077895 -3.418552 -3.191722 0
M  V30 40 C 1.486156 -4.566195 -2.750747 0
M  V30 41 C 2.849176 -4.605220 -2.085791 0 CFG=2
M  V30 42 C 2.641490 -4.395780 -0.610248 0
M  V30 43 H 6.844199 0.074635 0.044841 0
M  V30 44 H 7.307906 -1.674010 0.265989 0
M  V30 45 H 6.391037 -0.857483 1.566436 0
M  V30 46 H 3.162751 -2.176395 -1.293482 0
M  V30 47 H 4.467906 -3.872347 -3.240881 0
M  V30 48 H 2.637264 -3.440377 -4.608923 0
M  V30 49 H 2.733102 -1.794779 -3.943295 0
M  V30 50 H 0.282504 -3.847921 -4.769990 0
M  V30 51 H -0.453715 -1.911550 -5.637951 0
M  V30 52 H 0.926987 -1.230183 -4.742877 0
M  V30 53 H -2.048841 -1.060508 -4.251428 0
M  V30 54 H -0.784752 0.173329 -4.019884 0
M  V30 55 H 0.836519 -1.068919 -0.647031 0
M  V30 56 H -0.825519 1.636480 2.070031 0
M  V30 57 H -3.991917 2.104962 0.100409 0
M  V30 58 H -3.358766 1.803384 6.300458 0
M  V30 59 H -2.751778 -0.274830 4.127721 0
M  V30 60 H -3.202852 -1.990437 5.864116 0
M  V30 61 H -3.781509 -0.664705 7.026131 0
M  V30 62 H -5.632411 -0.080728 5.451649 0
M  V30 63 H -5.015236 -1.421140 4.249177 0
M  V30 64 H -2.809918 6.471372 6.080385 0
M  V30 65 H -1.897386 -2.769335 -1.319735 0
M  V30 66 H -0.137786 -2.777098 -1.391567 0
M  V30 67 H -1.130582 -4.488019 -2.931780 0
M  V30 68 H -1.940332 -3.060096 -3.807220 0
M  V30 69 H 1.540555 -5.088147 -3.730023 0
M  V30 70 H 0.704939 -4.904259 -2.076341 0
M  V30 71 H 3.387751 -5.552400 -2.221731 0
M  V30 72 H 3.607758 -4.338192 -0.103771 0
M  V30 73 H 2.115248 -5.319257 -0.245452 0
M  V30 74 H 1.966916 -3.551182 -0.383272 0
M  V30 END ATOM
M  V30 BEGIN BOND
M  V30 1 1 1 2
M  V30 2 1 2 3
M  V30 3 2 3 4
M  V30 4 1 3 5
M  V30 5 1 5 6
M  V30 6 1 6 7
M  V30 7 1 7 8
M  V30 8 1 8 9
M  V30 9 1 9 10
M  V30 10 1 10 11
M  V30 11 1 11 12
M  V30 12 1 12 13
M  V30 13 2 13 14
M  V30 14 1 14 15
M  V30 15 1 15 16
M  V30 16 3 16 17
M  V30 17 2 15 18
M  V30 18 1 18 19
M  V30 19 1 19 20
M  V30 20 1 20 21
M  V30 21 1 21 22
M  V30 22 2 22 23
M  V30 23 1 23 24
M  V30 24 1 24 25
M  V30 25 1 25 26
M  V30 26 1 26 27
M  V30 27 1 23 28
M  V30 28 2 28 29
M  V30 29 1 29 30
M  V30 30 2 30 31
M  V30 31 1 31 32
M  V30 32 3 32 33
M  V30 33 1 31 34
M  V30 34 1 34 35
M  V30 35 2 19 36
M  V30 36 1 36 37
M  V30 37 1 12 38
M  V30 38 1 38 39
M  V30 39 1 8 40
M  V30 40 1 40 41
M  V30 41 1 41 42
M  V30 42 1 41 6
M  V30 43 1 39 9
M  V30 44 1 36 13
M  V30 45 2 35 21
M  V30 46 1 27 25
M  V30 47 1 34 28
M  V30 48 1 1 43
M  V30 49 1 1 44
M  V30 50 1 1 45
M  V30 51 1 5 46
M  V30 52 1 6 47 CFG=3
M  V30 53 1 7 48
M  V30 54 1 7 49
M  V30 55 1 9 50
M  V30 56 1 10 51
M  V30 57 1 10 52
M  V30 58 1 11 53
M  V30 59 1 11 54
M  V30 60 1 14 55
M  V30 61 1 18 56
M  V30 62 1 20 57
M  V30 63 1 24 58
M  V30 64 1 25 59
M  V30 65 1 26 60
M  V30 66 1 26 61
M  V30 67 1 27 62
M  V30 68 1 27 63
M  V30 69 1 30 64
M  V30 70 1 38 65
M  V30 71 1 38 66
M  V30 72 1 39 67
M  V30 73 1 39 68
M  V30 74 1 40 69
M  V30 75 1 40 70
M  V30 76 1 41 71 CFG=1
M  V30 77 1 42 72
M  V30 78 1 42 73
M  V30 79 1 42 74
M  V30 END BOND
M  V30 END CTAB
M  END
>  <Dataset>  (421) 
ChEMBL_Kinases

>  <Ligand_Instance>  (421) 
nan

>  <PDB_ID>  (421) 
nan

>  <Standardized_SMILES>  (421) 
COC(=O)N[C@@H]1CN(C2CCN(c3cc(C#N)cc(Nc4nc(NC5CC5)c5ncc(C#N)n5n4)c3Cl)CC2)C[C@@H]1C

>  <Name>  (421) 
nan

>  <Pocket>  (421) 
nan

>  <ATP_Site>  (421) 
nan

>  <Peripheral>  (421) 
nan

>  <Num_H_Atoms_ProtBoundConf>  (421) 
nan

>  <Num_Resolved_Atoms>  (421) 
nan

>  <Num_Not_Resolved_Atoms>  (421) 
nan

$$$$
CHEMBL2348168
     RDKit          3D

  0  0  0  0  0  0  0  0  0  0999 V3000
M  V30 BEGIN CTAB
M  V30 COUNTS 25 27 0 0 0
M  V30 BEGIN ATOM
M  V30 1 N 0.744529 -2.577658 4.660535 0
M  V30 2 C 0.659338 -2.518286 3.241027 0
M  V30 3 N 0.914979 -3.616107 2.486653 0
M  V30 4 C 0.813548 -3.481589 1.144815 0
M  V30 5 C 0.462132 -2.262137 0.602801 0
M  V30 6 C 0.202659 -1.146833 1.374086 0
M  V30 7 N -0.162235 0.126772 0.851797 0
M  V30 8 C -1.174509 0.836092 1.414090 0
M  V30 9 C -1.324027 2.020758 0.727998 0
M  V30 10 C -0.390755 2.049635 -0.276757 0
M  V30 11 C 0.017147 2.882209 -1.299898 0
M  V30 12 N 1.021644 2.576098 -2.141170 0
M  V30 13 C 1.708749 1.410121 -2.035309 0
M  V30 14 C 1.335912 0.556945 -1.034468 0
M  V30 15 C 0.308329 0.859050 -0.165998 0
M  V30 16 N 0.316152 -1.325710 2.720916 0
M  V30 17 H 1.282200 -2.280115 5.484896 0
M  V30 18 H -0.065255 -3.158249 5.021919 0
M  V30 19 H 1.011613 -4.343904 0.496564 0
M  V30 20 H 0.382933 -2.162232 -0.472971 0
M  V30 21 H -1.793590 0.572526 2.254666 0
M  V30 22 H -2.020563 2.832286 0.884529 0
M  V30 23 H -0.548279 3.823695 -1.374182 0
M  V30 24 H 2.487120 1.287876 -2.769067 0
M  V30 25 H 1.895674 -0.365879 -0.967509 0
M  V30 END ATOM
M  V30 BEGIN BOND
M  V30 1 1 1 2
M  V30 2 2 2 3
M  V30 3 1 3 4
M  V30 4 2 4 5
M  V30 5 1 5 6
M  V30 6 1 6 7
M  V30 7 1 7 8
M  V30 8 2 8 9
M  V30 9 1 9 10
M  V30 10 2 10 11
M  V30 11 1 11 12
M  V30 12 2 12 13
M  V30 13 1 13 14
M  V30 14 2 14 15
M  V30 15 2 6 16
M  V30 16 1 16 2
M  V30 17 1 15 7
M  V30 18 1 15 10
M  V30 19 1 1 17
M  V30 20 1 1 18
M  V30 21 1 4 19
M  V30 22 1 5 20
M  V30 23 1 8 21
M  V30 24 1 9 22
M  V30 25 1 11 23
M  V30 26 1 13 24
M  V30 27 1 14 25
M  V30 END BOND
M  V30 END CTAB
M  END
>  <Dataset>  (422) 
ChEMBL_Kinases

>  <Ligand_Instance>  (422) 
nan

>  <PDB_ID>  (422) 
nan

>  <Standardized_SMILES>  (422) 
Nc1nccc(-n2ccc3cnccc32)n1

>  <Name>  (422) 
nan

>  <Pocket>  (422) 
nan

>  <ATP_Site>  (422) 
nan

>  <Peripheral>  (422) 
nan

>  <Num_H_Atoms_ProtBoundConf>  (422) 
nan

>  <Num_Resolved_Atoms>  (422) 
nan

>  <Num_Not_Resolved_Atoms>  (422) 
nan

$$$$
CHEMBL2348170
     RDKit          3D

  0  0  0  0  0  0  0  0  0  0999 V3000
M  V30 BEGIN CTAB
M  V30 COUNTS 25 27 0 0 0
M  V30 BEGIN ATOM
M  V30 1 N -0.171110 -2.369010 4.695509 0
M  V30 2 C 0.524105 -2.256432 3.467753 0
M  V30 3 N 1.265139 -3.267624 2.993228 0
M  V30 4 C 1.931907 -3.164893 1.819612 0
M  V30 5 C 1.860568 -2.001171 1.078992 0
M  V30 6 C 1.090146 -0.956998 1.577586 0
M  V30 7 N 0.884320 0.331144 0.966642 0
M  V30 8 C 1.366633 1.557290 1.244336 0
M  V30 9 C 0.858090 2.466671 0.352857 0
M  V30 10 C 0.047556 1.745102 -0.477825 0
M  V30 11 C -0.719203 2.151194 -1.559616 0
M  V30 12 C -1.471754 1.238308 -2.264837 0
M  V30 13 C -1.441161 -0.069184 -1.870628 0
M  V30 14 N -0.697992 -0.465966 -0.821254 0
M  V30 15 C 0.059891 0.399709 -0.096446 0
M  V30 16 N 0.452090 -1.131843 2.757098 0
M  V30 17 H -0.101548 -3.143927 5.358877 0
M  V30 18 H -0.828013 -1.621039 5.001220 0
M  V30 19 H 2.551563 -3.951288 1.379152 0
M  V30 20 H 2.337335 -1.782009 0.132391 0
M  V30 21 H 2.051543 1.717983 2.068350 0
M  V30 22 H 1.072138 3.538801 0.332557 0
M  V30 23 H -0.781301 3.175252 -1.916674 0
M  V30 24 H -2.109319 1.401610 -3.116951 0
M  V30 25 H -1.946175 -0.946315 -2.271968 0
M  V30 END ATOM
M  V30 BEGIN BOND
M  V30 1 1 1 2
M  V30 2 2 2 3
M  V30 3 1 3 4
M  V30 4 2 4 5
M  V30 5 1 5 6
M  V30 6 1 6 7
M  V30 7 1 7 8
M  V30 8 2 8 9
M  V30 9 1 9 10
M  V30 10 2 10 11
M  V30 11 1 11 12
M  V30 12 2 12 13
M  V30 13 1 13 14
M  V30 14 2 14 15
M  V30 15 2 6 16
M  V30 16 1 16 2
M  V30 17 1 15 7
M  V30 18 1 15 10
M  V30 19 1 1 17
M  V30 20 1 1 18
M  V30 21 1 4 19
M  V30 22 1 5 20
M  V30 23 1 8 21
M  V30 24 1 9 22
M  V30 25 1 11 23
M  V30 26 1 12 24
M  V30 27 1 13 25
M  V30 END BOND
M  V30 END CTAB
M  END
>  <Dataset>  (423) 
ChEMBL_Kinases

>  <Ligand_Instance>  (423) 
nan

>  <PDB_ID>  (423) 
nan

>  <Standardized_SMILES>  (423) 
Nc1nccc(-n2ccc3cccnc32)n1

>  <Name>  (423) 
nan

>  <Pocket>  (423) 
nan

>  <ATP_Site>  (423) 
nan

>  <Peripheral>  (423) 
nan

>  <Num_H_Atoms_ProtBoundConf>  (423) 
nan

>  <Num_Resolved_Atoms>  (423) 
nan

>  <Num_Not_Resolved_Atoms>  (423) 
nan

$$$$
CHEMBL3699294
     RDKit          3D

  0  0  0  0  0  0  0  0  0  0999 V3000
M  V30 BEGIN CTAB
M  V30 COUNTS 40 43 0 0 0
M  V30 BEGIN ATOM
M  V30 1 C 3.245790 -6.073076 1.749772 0
M  V30 2 C 2.162142 -5.622620 1.144083 0
M  V30 3 C 1.929441 -4.189413 1.143464 0
M  V30 4 C 2.842543 -3.373457 1.769640 0
M  V30 5 C 2.611285 -2.014856 1.762656 0
M  V30 6 C 3.550585 -1.143613 2.409889 0
M  V30 7 N 4.306483 -0.414627 2.942209 0
M  V30 8 C 1.480065 -1.553455 1.129505 0
M  V30 9 C 0.538542 -2.326263 0.490478 0
M  V30 10 N -0.619667 -1.829020 -0.155375 0
M  V30 11 C -1.056258 -0.485547 -0.286852 0
M  V30 12 N -0.434453 0.599002 0.190794 0
M  V30 13 C -0.875787 1.853575 0.047871 0
M  V30 14 N -0.167736 2.935206 0.576892 0
M  V30 15 C 1.052760 2.824696 1.297473 0
M  V30 16 C 1.180249 2.058104 2.554158 0
M  V30 17 C 1.078777 3.556986 2.638762 0
M  V30 18 C -2.053512 2.052315 -0.638575 0
M  V30 19 N -2.795771 3.117703 -0.980142 0
M  V30 20 C -3.879556 2.706336 -1.669402 0
M  V30 21 C -3.798659 1.328024 -1.754439 0
M  V30 22 C -4.786353 0.527139 -2.423855 0
M  V30 23 N -5.594878 -0.114328 -2.948739 0
M  V30 24 N -2.672794 0.960120 -1.115449 0
M  V30 25 N -2.197520 -0.235602 -0.946489 0
M  V30 26 C 0.820923 -3.673618 0.529183 0
M  V30 27 Cl -0.284626 -4.798506 -0.242231 0
M  V30 28 H 4.116538 -5.761591 2.301690 0
M  V30 29 H 3.564474 -7.099967 1.841264 0
M  V30 30 H 1.569196 -6.398745 0.713618 0
M  V30 31 H 3.718880 -3.762943 2.257025 0
M  V30 32 H 1.370756 -0.481862 1.167796 0
M  V30 33 H -1.230915 -2.579111 -0.594306 0
M  V30 34 H -0.518366 3.910168 0.461249 0
M  V30 35 H 1.963316 2.935564 0.676781 0
M  V30 36 H 2.191327 1.678317 2.813426 0
M  V30 37 H 0.363015 1.489704 3.008313 0
M  V30 38 H 1.993972 4.156542 2.867462 0
M  V30 39 H 0.131326 3.982896 3.016250 0
M  V30 40 H -4.612058 3.411377 -2.040024 0
M  V30 END ATOM
M  V30 BEGIN BOND
M  V30 1 2 1 2
M  V30 2 1 2 3
M  V30 3 2 3 4
M  V30 4 1 4 5
M  V30 5 1 5 6
M  V30 6 3 6 7
M  V30 7 2 5 8
M  V30 8 1 8 9
M  V30 9 1 9 10
M  V30 10 1 10 11
M  V30 11 1 11 12
M  V30 12 2 12 13
M  V30 13 1 13 14
M  V30 14 1 14 15
M  V30 15 1 15 16
M  V30 16 1 16 17
M  V30 17 1 13 18
M  V30 18 2 18 19
M  V30 19 1 19 20
M  V30 20 2 20 21
M  V30 21 1 21 22
M  V30 22 3 22 23
M  V30 23 1 21 24
M  V30 24 1 24 25
M  V30 25 2 9 26
M  V30 26 1 26 27
M  V30 27 1 26 3
M  V30 28 2 25 11
M  V30 29 1 17 15
M  V30 30 1 24 18
M  V30 31 1 1 28
M  V30 32 1 1 29
M  V30 33 1 2 30
M  V30 34 1 4 31
M  V30 35 1 8 32
M  V30 36 1 10 33
M  V30 37 1 14 34
M  V30 38 1 15 35
M  V30 39 1 16 36
M  V30 40 1 16 37
M  V30 41 1 17 38
M  V30 42 1 17 39
M  V30 43 1 20 40
M  V30 END BOND
M  V30 END CTAB
M  END
>  <Dataset>  (424) 
ChEMBL_Kinases

>  <Ligand_Instance>  (424) 
nan

>  <PDB_ID>  (424) 
nan

>  <Standardized_SMILES>  (424) 
C=Cc1cc(C#N)cc(Nc2nc(NC3CC3)c3ncc(C#N)n3n2)c1Cl

>  <Name>  (424) 
nan

>  <Pocket>  (424) 
nan

>  <ATP_Site>  (424) 
nan

>  <Peripheral>  (424) 
nan

>  <Num_H_Atoms_ProtBoundConf>  (424) 
nan

>  <Num_Resolved_Atoms>  (424) 
nan

>  <Num_Not_Resolved_Atoms>  (424) 
nan

$$$$
CHEMBL4566059
     RDKit          3D

  0  0  0  0  0  0  0  0  0  0999 V3000
M  V30 BEGIN CTAB
M  V30 COUNTS 50 53 0 0 0
M  V30 BEGIN ATOM
M  V30 1 C -0.465503 1.575488 -5.282355 0
M  V30 2 S -0.133331 2.993405 -4.170814 0
M  V30 3 C 0.718011 2.407407 -2.687543 0
M  V30 4 N 2.069392 2.323630 -2.566359 0
M  V30 5 C 2.350200 1.844073 -1.321195 0
M  V30 6 C 3.599538 1.547194 -0.630717 0
M  V30 7 C 4.607434 2.434468 -0.317918 0
M  V30 8 C 5.740156 1.969122 0.350842 0
M  V30 9 C 5.834514 0.628235 0.688960 0
M  V30 10 F 6.936835 0.183043 1.337952 0
M  V30 11 C 4.839916 -0.272020 0.385652 0
M  V30 12 C 3.730603 0.212881 -0.275600 0
M  V30 13 C 1.125476 1.636217 -0.681906 0
M  V30 14 C 0.760493 1.145337 0.642176 0
M  V30 15 C 1.116011 1.802058 1.807560 0
M  V30 16 C 0.773436 1.343044 3.063385 0
M  V30 17 N 0.059382 0.204380 3.193352 0
M  V30 18 C -0.315963 -0.478235 2.110980 0
M  V30 19 N -1.074366 -1.687782 2.246441 0
M  V30 20 C -0.417514 -2.935239 2.361677 0
M  V30 21 O 0.843149 -2.982567 2.345307 0
M  V30 22 C -1.283271 -4.116052 2.495552 0
M  V30 23 N -2.693231 -3.815024 2.488733 0
M  V30 24 C -3.643953 -3.501392 3.550310 0
M  V30 25 C -4.893153 -4.202268 3.045048 0
M  V30 26 C -4.904684 -3.744006 1.599674 0
M  V30 27 C -3.456394 -3.779184 1.264658 0
M  V30 28 O -3.096752 -3.773798 0.042002 0
M  V30 29 C 0.034349 -0.006093 0.862651 0
M  V30 30 N 0.151128 1.987775 -1.537740 0
M  V30 31 H -1.381473 1.747230 -5.891426 0
M  V30 32 H 0.394244 1.326354 -5.913195 0
M  V30 33 H -0.678953 0.669869 -4.649322 0
M  V30 34 H 4.420978 3.460761 -0.633996 0
M  V30 35 H 6.501997 2.702185 0.573723 0
M  V30 36 H 4.975462 -1.305280 0.677506 0
M  V30 37 H 2.978845 -0.558292 -0.485012 0
M  V30 38 H 1.695122 2.729010 1.747469 0
M  V30 39 H 1.062707 1.873686 3.960107 0
M  V30 40 H -2.115158 -1.500948 2.245272 0
M  V30 41 H -1.039494 -4.807808 1.662755 0
M  V30 42 H -0.984654 -4.673463 3.431109 0
M  V30 43 H -3.393532 -3.938408 4.520030 0
M  V30 44 H -3.900007 -2.423457 3.572682 0
M  V30 45 H -4.811850 -5.298588 3.159103 0
M  V30 46 H -5.747920 -3.762938 3.622884 0
M  V30 47 H -5.495681 -4.485756 1.025752 0
M  V30 48 H -5.315870 -2.727120 1.569292 0
M  V30 49 H -0.290285 -0.590922 -0.000671 0
M  V30 50 H -0.884865 1.978347 -1.435559 0
M  V30 END ATOM
M  V30 BEGIN BOND
M  V30 1 1 1 2
M  V30 2 1 2 3
M  V30 3 2 3 4
M  V30 4 1 4 5
M  V30 5 1 5 6
M  V30 6 2 6 7
M  V30 7 1 7 8
M  V30 8 2 8 9
M  V30 9 1 9 10
M  V30 10 1 9 11
M  V30 11 2 11 12
M  V30 12 2 5 13
M  V30 13 1 13 14
M  V30 14 2 14 15
M  V30 15 1 15 16
M  V30 16 2 16 17
M  V30 17 1 17 18
M  V30 18 1 18 19
M  V30 19 1 19 20
M  V30 20 2 20 21
M  V30 21 1 20 22
M  V30 22 1 22 23
M  V30 23 1 23 24
M  V30 24 1 24 25
M  V30 25 1 25 26
M  V30 26 1 26 27
M  V30 27 2 27 28
M  V30 28 2 18 29
M  V30 29 1 13 30
M  V30 30 1 30 3
M  V30 31 1 12 6
M  V30 32 1 29 14
M  V30 33 1 27 23
M  V30 34 1 1 31
M  V30 35 1 1 32
M  V30 36 1 1 33
M  V30 37 1 7 34
M  V30 38 1 8 35
M  V30 39 1 11 36
M  V30 40 1 12 37
M  V30 41 1 15 38
M  V30 42 1 16 39
M  V30 43 1 19 40
M  V30 44 1 22 41
M  V30 45 1 22 42
M  V30 46 1 24 43
M  V30 47 1 24 44
M  V30 48 1 25 45
M  V30 49 1 25 46
M  V30 50 1 26 47
M  V30 51 1 26 48
M  V30 52 1 29 49
M  V30 53 1 30 50
M  V30 END BOND
M  V30 END CTAB
M  END
>  <Dataset>  (425) 
ChEMBL_Kinases

>  <Ligand_Instance>  (425) 
nan

>  <PDB_ID>  (425) 
nan

>  <Standardized_SMILES>  (425) 
CSc1nc(-c2ccc(F)cc2)c(-c2ccnc(NC(=O)CN3CCCC3=O)c2)[nH]1

>  <Name>  (425) 
nan

>  <Pocket>  (425) 
nan

>  <ATP_Site>  (425) 
nan

>  <Peripheral>  (425) 
nan

>  <Num_H_Atoms_ProtBoundConf>  (425) 
nan

>  <Num_Resolved_Atoms>  (425) 
nan

>  <Num_Not_Resolved_Atoms>  (425) 
nan

$$$$
CHEMBL2348172
     RDKit          3D

  0  0  0  0  0  0  0  0  0  0999 V3000
M  V30 BEGIN CTAB
M  V30 COUNTS 29 31 0 0 0
M  V30 BEGIN ATOM
M  V30 1 N -1.407952 -1.737274 4.736261 0
M  V30 2 C -0.669089 -2.224725 3.619366 0
M  V30 3 N 0.206301 -3.209553 3.832826 0
M  V30 4 C 0.946848 -3.737250 2.860876 0
M  V30 5 C 0.829329 -3.269298 1.565330 0
M  V30 6 C -0.072255 -2.251788 1.333377 0
M  V30 7 N -0.248713 -1.717413 0.023170 0
M  V30 8 C -0.801324 -2.251711 -1.098521 0
M  V30 9 C -0.721269 -1.297900 -2.119514 0
M  V30 10 C -0.106027 -0.190614 -1.562710 0
M  V30 11 C 0.207826 1.032562 -2.167662 0
M  V30 12 C 0.836747 1.993585 -1.367689 0
M  V30 13 C 1.136562 1.765121 -0.059135 0
M  V30 14 C 1.802821 2.780007 0.792508 0
M  V30 15 F 1.134274 3.987034 0.568450 0
M  V30 16 F 1.611501 2.491718 2.144643 0
M  V30 17 F 3.142905 2.917438 0.537604 0
M  V30 18 C 0.800491 0.538431 0.476437 0
M  V30 19 C 0.184247 -0.465967 -0.222681 0
M  V30 20 N -0.808050 -1.742381 2.355307 0
M  V30 21 H -2.284879 -2.062136 5.205900 0
M  V30 22 H -0.830772 -0.894012 5.023533 0
M  V30 23 H 1.635487 -4.543537 3.147908 0
M  V30 24 H 1.431797 -3.700380 0.781234 0
M  V30 25 H -1.214605 -3.266229 -1.106953 0
M  V30 26 H -1.094948 -1.474698 -3.127089 0
M  V30 27 H -0.042757 1.185300 -3.209669 0
M  V30 28 H 1.078026 2.937750 -1.838018 0
M  V30 29 H 1.040374 0.355522 1.523605 0
M  V30 END ATOM
M  V30 BEGIN BOND
M  V30 1 1 1 2
M  V30 2 2 2 3
M  V30 3 1 3 4
M  V30 4 2 4 5
M  V30 5 1 5 6
M  V30 6 1 6 7
M  V30 7 1 7 8
M  V30 8 2 8 9
M  V30 9 1 9 10
M  V30 10 2 10 11
M  V30 11 1 11 12
M  V30 12 2 12 13
M  V30 13 1 13 14
M  V30 14 1 14 15
M  V30 15 1 14 16
M  V30 16 1 14 17
M  V30 17 1 13 18
M  V30 18 2 18 19
M  V30 19 2 6 20
M  V30 20 1 20 2
M  V30 21 1 19 7
M  V30 22 1 19 10
M  V30 23 1 1 21
M  V30 24 1 1 22
M  V30 25 1 4 23
M  V30 26 1 5 24
M  V30 27 1 8 25
M  V30 28 1 9 26
M  V30 29 1 11 27
M  V30 30 1 12 28
M  V30 31 1 18 29
M  V30 END BOND
M  V30 END CTAB
M  END
>  <Dataset>  (426) 
ChEMBL_Kinases

>  <Ligand_Instance>  (426) 
nan

>  <PDB_ID>  (426) 
nan

>  <Standardized_SMILES>  (426) 
Nc1nccc(-n2ccc3ccc(C(F)(F)F)cc32)n1

>  <Name>  (426) 
nan

>  <Pocket>  (426) 
nan

>  <ATP_Site>  (426) 
nan

>  <Peripheral>  (426) 
nan

>  <Num_H_Atoms_ProtBoundConf>  (426) 
nan

>  <Num_Resolved_Atoms>  (426) 
nan

>  <Num_Not_Resolved_Atoms>  (426) 
nan

$$$$
CHEMBL2348173
     RDKit          3D

  0  0  0  0  0  0  0  0  0  0999 V3000
M  V30 BEGIN CTAB
M  V30 COUNTS 27 29 0 0 0
M  V30 BEGIN ATOM
M  V30 1 N -0.228518 -3.810819 3.723823 0
M  V30 2 C -0.483916 -2.462854 3.362983 0
M  V30 3 N -1.509019 -1.756360 3.892225 0
M  V30 4 C -1.722954 -0.478481 3.527436 0
M  V30 5 C -0.896105 0.146408 2.598274 0
M  V30 6 C 0.152341 -0.595683 2.065182 0
M  V30 7 N 1.109631 -0.125340 1.095854 0
M  V30 8 C 2.390887 0.253102 1.170949 0
M  V30 9 C 2.848957 0.619072 -0.063155 0
M  V30 10 C 1.772682 0.444786 -0.911277 0
M  V30 11 C 1.741339 0.684771 -2.275594 0
M  V30 12 C 0.540727 0.437713 -2.933967 0
M  V30 13 C -0.574930 -0.028003 -2.254896 0
M  V30 14 O -1.797086 -0.292661 -2.853107 0
M  V30 15 C -0.459023 -0.240679 -0.898373 0
M  V30 16 C 0.703733 -0.014385 -0.189834 0
M  V30 17 N 0.344138 -1.878528 2.449902 0
M  V30 18 H 0.252760 -4.444109 3.025115 0
M  V30 19 H -0.501070 -4.195641 4.657046 0
M  V30 20 H -2.529393 0.143742 3.915852 0
M  V30 21 H -0.969862 1.155999 2.233294 0
M  V30 22 H 2.895806 0.232501 2.128396 0
M  V30 23 H 3.855393 0.961566 -0.251367 0
M  V30 24 H 2.559008 1.041791 -2.859102 0
M  V30 25 H 0.363149 0.579409 -4.005706 0
M  V30 26 H -2.679687 0.087374 -2.524140 0
M  V30 27 H -1.333330 -0.609056 -0.347582 0
M  V30 END ATOM
M  V30 BEGIN BOND
M  V30 1 1 1 2
M  V30 2 2 2 3
M  V30 3 1 3 4
M  V30 4 2 4 5
M  V30 5 1 5 6
M  V30 6 1 6 7
M  V30 7 1 7 8
M  V30 8 2 8 9
M  V30 9 1 9 10
M  V30 10 2 10 11
M  V30 11 1 11 12
M  V30 12 2 12 13
M  V30 13 1 13 14
M  V30 14 1 13 15
M  V30 15 2 15 16
M  V30 16 2 6 17
M  V30 17 1 17 2
M  V30 18 1 16 7
M  V30 19 1 16 10
M  V30 20 1 1 18
M  V30 21 1 1 19
M  V30 22 1 4 20
M  V30 23 1 5 21
M  V30 24 1 8 22
M  V30 25 1 9 23
M  V30 26 1 11 24
M  V30 27 1 12 25
M  V30 28 1 14 26
M  V30 29 1 15 27
M  V30 END BOND
M  V30 END CTAB
M  END
>  <Dataset>  (427) 
ChEMBL_Kinases

>  <Ligand_Instance>  (427) 
nan

>  <PDB_ID>  (427) 
nan

>  <Standardized_SMILES>  (427) 
Nc1nccc(-n2ccc3ccc(O)cc32)n1

>  <Name>  (427) 
nan

>  <Pocket>  (427) 
nan

>  <ATP_Site>  (427) 
nan

>  <Peripheral>  (427) 
nan

>  <Num_H_Atoms_ProtBoundConf>  (427) 
nan

>  <Num_Resolved_Atoms>  (427) 
nan

>  <Num_Not_Resolved_Atoms>  (427) 
nan

$$$$
CHEMBL4475312
     RDKit          3D

  0  0  0  0  0  0  0  0  0  0999 V3000
M  V30 BEGIN CTAB
M  V30 COUNTS 44 47 0 0 0
M  V30 BEGIN ATOM
M  V30 1 N 4.043573 0.825822 4.105913 0
M  V30 2 C 3.733864 1.787181 3.096772 0
M  V30 3 O 4.233816 2.938789 3.125513 0
M  V30 4 C 2.832763 1.467716 2.005896 0
M  V30 5 N 2.485417 2.301539 1.018164 0
M  V30 6 C 1.627335 1.674709 0.171426 0
M  V30 7 C 1.056247 2.281166 -1.000715 0
M  V30 8 C -0.269050 2.538342 -1.286867 0
M  V30 9 C -0.652100 3.132885 -2.471211 0
M  V30 10 C 0.340725 3.477630 -3.395075 0
M  V30 11 C 1.673383 3.236084 -3.142815 0
M  V30 12 C 2.032918 2.632732 -1.935367 0
M  V30 13 O 3.411015 2.445977 -1.807959 0
M  V30 14 C 1.482113 0.411669 0.714413 0
M  V30 15 C 0.630335 -0.603955 0.110790 0
M  V30 16 C 0.799793 -1.144319 -1.160813 0
M  V30 17 C -0.090801 -2.107682 -1.606318 0
M  V30 18 N -1.110817 -2.531722 -0.842901 0
M  V30 19 C -1.329812 -2.045641 0.402860 0
M  V30 20 N -2.406841 -2.485100 1.224575 0
M  V30 21 C -2.027623 -3.581878 2.010583 0
M  V30 22 O -0.828609 -4.003072 1.877937 0
M  V30 23 C -2.837224 -4.334782 2.991227 0
M  V30 24 C -2.079442 -4.789638 4.255152 0
M  V30 25 C -2.550122 -5.781050 3.240113 0
M  V30 26 C -0.442359 -1.074564 0.867156 0
M  V30 27 N 2.219585 0.291273 1.832890 0
M  V30 28 H 4.436284 1.180323 5.008462 0
M  V30 29 H 3.866303 -0.166890 3.898322 0
M  V30 30 H -0.961147 2.230488 -0.499969 0
M  V30 31 H -1.700384 3.313054 -2.647305 0
M  V30 32 H 0.045784 3.943345 -4.324945 0
M  V30 33 H 2.375550 3.534134 -3.910818 0
M  V30 34 H 4.005242 3.061846 -1.279202 0
M  V30 35 H 1.638669 -0.757162 -1.715313 0
M  V30 36 H 0.068255 -2.512963 -2.609253 0
M  V30 37 H -3.400573 -2.163455 1.358669 0
M  V30 38 H -3.899064 -4.031302 3.174809 0
M  V30 39 H -2.591570 -4.720473 5.225370 0
M  V30 40 H -0.991501 -4.576016 4.316829 0
M  V30 41 H -3.374175 -6.435287 3.561171 0
M  V30 42 H -1.782501 -6.282032 2.616625 0
M  V30 43 H -0.606938 -0.680403 1.858104 0
M  V30 44 H 2.291569 -0.568138 2.444694 0
M  V30 END ATOM
M  V30 BEGIN BOND
M  V30 1 1 1 2
M  V30 2 2 2 3
M  V30 3 1 2 4
M  V30 4 2 4 5
M  V30 5 1 5 6
M  V30 6 1 6 7
M  V30 7 2 7 8
M  V30 8 1 8 9
M  V30 9 2 9 10
M  V30 10 1 10 11
M  V30 11 2 11 12
M  V30 12 1 12 13
M  V30 13 2 6 14
M  V30 14 1 14 15
M  V30 15 2 15 16
M  V30 16 1 16 17
M  V30 17 2 17 18
M  V30 18 1 18 19
M  V30 19 1 19 20
M  V30 20 1 20 21
M  V30 21 2 21 22
M  V30 22 1 21 23
M  V30 23 1 23 24
M  V30 24 1 24 25
M  V30 25 2 19 26
M  V30 26 1 14 27
M  V30 27 1 27 4
M  V30 28 1 12 7
M  V30 29 1 26 15
M  V30 30 1 25 23
M  V30 31 1 1 28
M  V30 32 1 1 29
M  V30 33 1 8 30
M  V30 34 1 9 31
M  V30 35 1 10 32
M  V30 36 1 11 33
M  V30 37 1 13 34
M  V30 38 1 16 35
M  V30 39 1 17 36
M  V30 40 1 20 37
M  V30 41 1 23 38
M  V30 42 1 24 39
M  V30 43 1 24 40
M  V30 44 1 25 41
M  V30 45 1 25 42
M  V30 46 1 26 43
M  V30 47 1 27 44
M  V30 END BOND
M  V30 END CTAB
M  END
>  <Dataset>  (428) 
ChEMBL_Kinases

>  <Ligand_Instance>  (428) 
nan

>  <PDB_ID>  (428) 
nan

>  <Standardized_SMILES>  (428) 
NC(=O)c1nc(-c2ccccc2O)c(-c2ccnc(NC(=O)C3CC3)c2)[nH]1

>  <Name>  (428) 
nan

>  <Pocket>  (428) 
nan

>  <ATP_Site>  (428) 
nan

>  <Peripheral>  (428) 
nan

>  <Num_H_Atoms_ProtBoundConf>  (428) 
nan

>  <Num_Resolved_Atoms>  (428) 
nan

>  <Num_Not_Resolved_Atoms>  (428) 
nan

$$$$
CHEMBL2348175
     RDKit          3D

  0  0  0  0  0  0  0  0  0  0999 V3000
M  V30 BEGIN CTAB
M  V30 COUNTS 26 28 0 0 0
M  V30 BEGIN ATOM
M  V30 1 N -1.154017 -4.039713 2.949961 0
M  V30 2 C -0.820027 -2.657107 2.963451 0
M  V30 3 N -1.198053 -1.840654 3.954872 0
M  V30 4 C -0.895796 -0.535365 3.989907 0
M  V30 5 C -0.159389 0.033170 2.971264 0
M  V30 6 C 0.246045 -0.801942 1.925098 0
M  V30 7 N 1.010148 -0.461031 0.762913 0
M  V30 8 C 2.291322 -0.765146 0.484606 0
M  V30 9 C 2.561717 -0.209296 -0.756769 0
M  V30 10 C 1.442214 0.436804 -1.239069 0
M  V30 11 C 1.192844 1.135144 -2.403990 0
M  V30 12 C -0.059745 1.685098 -2.613742 0
M  V30 13 C -1.053970 1.531445 -1.654548 0
M  V30 14 F -2.291819 2.058501 -1.830495 0
M  V30 15 C -0.750137 0.825151 -0.510952 0
M  V30 16 C 0.477882 0.254536 -0.245331 0
M  V30 17 N -0.107360 -2.099784 1.980655 0
M  V30 18 H -0.735968 -4.647644 2.213675 0
M  V30 19 H -1.804979 -4.421292 3.668692 0
M  V30 20 H -1.176569 0.164289 4.765697 0
M  V30 21 H 0.172557 1.058358 2.837146 0
M  V30 22 H 2.904847 -1.335115 1.160690 0
M  V30 23 H 3.536590 -0.311523 -1.214931 0
M  V30 24 H 1.986050 1.252016 -3.158334 0
M  V30 25 H -0.303994 2.241482 -3.511341 0
M  V30 26 H -1.534436 0.712690 0.229020 0
M  V30 END ATOM
M  V30 BEGIN BOND
M  V30 1 1 1 2
M  V30 2 2 2 3
M  V30 3 1 3 4
M  V30 4 2 4 5
M  V30 5 1 5 6
M  V30 6 1 6 7
M  V30 7 1 7 8
M  V30 8 2 8 9
M  V30 9 1 9 10
M  V30 10 2 10 11
M  V30 11 1 11 12
M  V30 12 2 12 13
M  V30 13 1 13 14
M  V30 14 1 13 15
M  V30 15 2 15 16
M  V30 16 2 6 17
M  V30 17 1 17 2
M  V30 18 1 16 7
M  V30 19 1 16 10
M  V30 20 1 1 18
M  V30 21 1 1 19
M  V30 22 1 4 20
M  V30 23 1 5 21
M  V30 24 1 8 22
M  V30 25 1 9 23
M  V30 26 1 11 24
M  V30 27 1 12 25
M  V30 28 1 15 26
M  V30 END BOND
M  V30 END CTAB
M  END
>  <Dataset>  (429) 
ChEMBL_Kinases

>  <Ligand_Instance>  (429) 
nan

>  <PDB_ID>  (429) 
nan

>  <Standardized_SMILES>  (429) 
Nc1nccc(-n2ccc3ccc(F)cc32)n1

>  <Name>  (429) 
nan

>  <Pocket>  (429) 
nan

>  <ATP_Site>  (429) 
nan

>  <Peripheral>  (429) 
nan

>  <Num_H_Atoms_ProtBoundConf>  (429) 
nan

>  <Num_Resolved_Atoms>  (429) 
nan

>  <Num_Not_Resolved_Atoms>  (429) 
nan

$$$$
CHEMBL2348176
     RDKit          3D

  0  0  0  0  0  0  0  0  0  0999 V3000
M  V30 BEGIN CTAB
M  V30 COUNTS 26 28 0 0 0
M  V30 BEGIN ATOM
M  V30 1 N -0.010351 -2.371292 4.789905 0
M  V30 2 C 0.584941 -2.246802 3.500714 0
M  V30 3 N 1.343512 -3.260472 3.009731 0
M  V30 4 C 1.919308 -3.176422 1.798486 0
M  V30 5 C 1.697280 -2.010599 1.088246 0
M  V30 6 C 0.933609 -0.958108 1.551082 0
M  V30 7 N 0.763549 0.202386 0.744214 0
M  V30 8 C 1.475999 1.355851 0.754114 0
M  V30 9 C 0.979581 2.230827 -0.193349 0
M  V30 10 C -0.086278 1.566604 -0.802869 0
M  V30 11 C -0.921693 2.014683 -1.823361 0
M  V30 12 C -1.916319 1.153127 -2.256702 0
M  V30 13 C -2.037181 -0.097941 -1.667046 0
M  V30 14 C -1.186991 -0.510633 -0.652772 0
M  V30 15 C -0.189321 0.328213 -0.203906 0
M  V30 16 N 0.386362 -1.124205 2.786983 0
M  V30 17 H 0.263998 -2.290674 5.792841 0
M  V30 18 H -1.007631 -2.614098 4.596184 0
M  V30 19 H 2.537061 -3.933295 1.331228 0
M  V30 20 H 2.142425 -1.897152 0.104211 0
M  V30 21 H 2.306983 1.555171 1.407793 0
M  V30 22 H 1.349847 3.226977 -0.410462 0
M  V30 23 H -0.805555 2.980804 -2.257717 0
M  V30 24 H -2.609127 1.417084 -3.042682 0
M  V30 25 H -2.825268 -0.787142 -2.006729 0
M  V30 26 H -1.312784 -1.489819 -0.219991 0
M  V30 END ATOM
M  V30 BEGIN BOND
M  V30 1 1 1 2
M  V30 2 2 2 3
M  V30 3 1 3 4
M  V30 4 2 4 5
M  V30 5 1 5 6
M  V30 6 1 6 7
M  V30 7 1 7 8
M  V30 8 2 8 9
M  V30 9 1 9 10
M  V30 10 2 10 11
M  V30 11 1 11 12
M  V30 12 2 12 13
M  V30 13 1 13 14
M  V30 14 2 14 15
M  V30 15 2 6 16
M  V30 16 1 16 2
M  V30 17 1 15 7
M  V30 18 1 15 10
M  V30 19 1 1 17
M  V30 20 1 1 18
M  V30 21 1 4 19
M  V30 22 1 5 20
M  V30 23 1 8 21
M  V30 24 1 9 22
M  V30 25 1 11 23
M  V30 26 1 12 24
M  V30 27 1 13 25
M  V30 28 1 14 26
M  V30 END BOND
M  V30 END CTAB
M  END
>  <Dataset>  (430) 
ChEMBL_Kinases

>  <Ligand_Instance>  (430) 
nan

>  <PDB_ID>  (430) 
nan

>  <Standardized_SMILES>  (430) 
Nc1nccc(-n2ccc3ccccc32)n1

>  <Name>  (430) 
nan

>  <Pocket>  (430) 
nan

>  <ATP_Site>  (430) 
nan

>  <Peripheral>  (430) 
nan

>  <Num_H_Atoms_ProtBoundConf>  (430) 
nan

>  <Num_Resolved_Atoms>  (430) 
nan

>  <Num_Not_Resolved_Atoms>  (430) 
nan

$$$$
CHEMBL3699250
     RDKit          3D

  0  0  0  0  0  0  0  0  0  0999 V3000
M  V30 BEGIN CTAB
M  V30 COUNTS 64 69 0 0 0
M  V30 BEGIN ATOM
M  V30 1 N -1.852614 -0.116163 6.427608 0
M  V30 2 C -1.543501 -0.395658 5.353539 0
M  V30 3 C -1.159821 -0.737445 4.010720 0
M  V30 4 C -0.637263 0.185489 3.132952 0
M  V30 5 C -0.246165 -0.058351 1.836130 0
M  V30 6 N 0.280574 0.906901 0.943726 0
M  V30 7 C 0.531189 2.279794 1.195788 0
M  V30 8 N 0.991333 3.057118 0.220550 0
M  V30 9 C 1.272281 4.355020 0.315012 0
M  V30 10 N 1.751418 5.030480 -0.819629 0
M  V30 11 C 2.096035 6.426630 -0.889084 0
M  V30 12 C 3.154161 6.923805 0.001949 0
M  V30 13 C 3.339392 6.891605 -1.530940 0
M  V30 14 C 1.077324 4.972743 1.521478 0
M  V30 15 N 1.255690 6.227959 1.951905 0
M  V30 16 C 0.902026 6.274886 3.248940 0
M  V30 17 C 0.496499 4.997823 3.608262 0
M  V30 18 C 0.047672 4.665788 4.924338 0
M  V30 19 N -0.310767 4.399390 5.987368 0
M  V30 20 N 0.617162 4.212557 2.512436 0
M  V30 21 N 0.364892 2.938450 2.336505 0
M  V30 22 C -0.420633 -1.365419 1.444826 0
M  V30 23 Cl 0.040402 -1.805462 -0.194905 0
M  V30 24 C -0.936153 -2.330461 2.272993 0
M  V30 25 N -1.119329 -3.687396 1.890065 0
M  V30 26 C -0.230669 -4.763999 1.501200 0
M  V30 27 C -0.499041 -5.274876 0.111423 0
M  V30 28 C -1.894478 -5.217593 -0.336047 0
M  V30 29 N -1.962045 -4.826434 -1.721092 0
M  V30 30 C -1.392891 -5.796512 -2.564575 0 CFG=1
M  V30 31 C -1.510441 -5.527981 -4.064127 0
M  V30 32 C -0.227269 -6.367468 -4.179345 0 CFG=1
M  V30 33 O 0.645833 -5.976346 -5.163598 0
M  V30 34 C 0.103224 -5.788104 -2.783192 0
M  V30 35 C -2.832109 -4.320379 0.406189 0
M  V30 36 C -2.508180 -4.130734 1.865235 0
M  V30 37 C -1.314664 -2.036364 3.567580 0
M  V30 38 H -0.547484 1.176902 3.549031 0
M  V30 39 H 0.511783 0.560510 -0.016613 0
M  V30 40 H 1.901616 4.564896 -1.727283 0
M  V30 41 H 1.191252 7.077978 -1.010600 0
M  V30 42 H 3.054290 7.911174 0.467745 0
M  V30 43 H 3.808538 6.234826 0.582365 0
M  V30 44 H 4.126216 6.204592 -1.888685 0
M  V30 45 H 3.367541 7.896507 -2.002090 0
M  V30 46 H 0.948421 7.181814 3.852413 0
M  V30 47 H 0.832772 -4.483932 1.589061 0
M  V30 48 H -0.444509 -5.607606 2.208630 0
M  V30 49 H 0.223779 -4.758247 -0.551853 0
M  V30 50 H -0.140918 -6.344522 0.109166 0
M  V30 51 H -2.340580 -6.262538 -0.308348 0
M  V30 52 H -2.800186 -4.328111 -2.015119 0
M  V30 53 H -1.727478 -6.854872 -2.397888 0
M  V30 54 H -1.333626 -4.498314 -4.381749 0
M  V30 55 H -2.367437 -6.013040 -4.553504 0
M  V30 56 H -0.463400 -7.439986 -4.098651 0
M  V30 57 H 0.160117 -5.422412 -5.821674 0
M  V30 58 H 0.527801 -4.763231 -2.869241 0
M  V30 59 H 0.648987 -6.478576 -2.146096 0
M  V30 60 H -2.938858 -3.299149 -0.049384 0
M  V30 61 H -3.848898 -4.756104 0.357749 0
M  V30 62 H -3.206980 -3.411677 2.285378 0
M  V30 63 H -2.577603 -5.119874 2.389035 0
M  V30 64 H -1.723761 -2.775681 4.239735 0
M  V30 END ATOM
M  V30 BEGIN BOND
M  V30 1 3 1 2
M  V30 2 1 2 3
M  V30 3 2 3 4
M  V30 4 1 4 5
M  V30 5 1 5 6
M  V30 6 1 6 7
M  V30 7 1 7 8
M  V30 8 2 8 9
M  V30 9 1 9 10
M  V30 10 1 10 11
M  V30 11 1 11 12
M  V30 12 1 12 13
M  V30 13 1 9 14
M  V30 14 2 14 15
M  V30 15 1 15 16
M  V30 16 2 16 17
M  V30 17 1 17 18
M  V30 18 3 18 19
M  V30 19 1 17 20
M  V30 20 1 20 21
M  V30 21 2 5 22
M  V30 22 1 22 23
M  V30 23 1 22 24
M  V30 24 1 24 25
M  V30 25 1 25 26
M  V30 26 1 26 27
M  V30 27 1 27 28
M  V30 28 1 28 29
M  V30 29 1 29 30
M  V30 30 1 30 31
M  V30 31 1 31 32
M  V30 32 1 32 33
M  V30 33 1 32 34
M  V30 34 1 28 35
M  V30 35 1 35 36
M  V30 36 2 24 37
M  V30 37 1 37 3
M  V30 38 2 21 7
M  V30 39 1 36 25
M  V30 40 1 13 11
M  V30 41 1 20 14
M  V30 42 1 34 30
M  V30 43 1 4 38
M  V30 44 1 6 39
M  V30 45 1 10 40
M  V30 46 1 11 41
M  V30 47 1 12 42
M  V30 48 1 12 43
M  V30 49 1 13 44
M  V30 50 1 13 45
M  V30 51 1 16 46
M  V30 52 1 26 47
M  V30 53 1 26 48
M  V30 54 1 27 49
M  V30 55 1 27 50
M  V30 56 1 28 51
M  V30 57 1 29 52
M  V30 58 1 30 53 CFG=3
M  V30 59 1 31 54
M  V30 60 1 31 55
M  V30 61 1 32 56 CFG=1
M  V30 62 1 33 57
M  V30 63 1 34 58
M  V30 64 1 34 59
M  V30 65 1 35 60
M  V30 66 1 35 61
M  V30 67 1 36 62
M  V30 68 1 36 63
M  V30 69 1 37 64
M  V30 END BOND
M  V30 END CTAB
M  END
>  <Dataset>  (431) 
ChEMBL_Kinases

>  <Ligand_Instance>  (431) 
nan

>  <PDB_ID>  (431) 
nan

>  <Standardized_SMILES>  (431) 
N#Cc1cc(Nc2nc(NC3CC3)c3ncc(C#N)n3n2)c(Cl)c(N2CCC(N[C@H]3C[C@@H](O)C3)CC2)c1

>  <Name>  (431) 
nan

>  <Pocket>  (431) 
nan

>  <ATP_Site>  (431) 
nan

>  <Peripheral>  (431) 
nan

>  <Num_H_Atoms_ProtBoundConf>  (431) 
nan

>  <Num_Resolved_Atoms>  (431) 
nan

>  <Num_Not_Resolved_Atoms>  (431) 
nan

$$$$
CHEMBL3699249
     RDKit          3D

  0  0  0  0  0  0  0  0  0  0999 V3000
M  V30 BEGIN CTAB
M  V30 COUNTS 63 67 0 0 0
M  V30 BEGIN ATOM
M  V30 1 C 4.497533 -2.146588 2.759659 0
M  V30 2 O 5.100146 -0.933100 2.509175 0
M  V30 3 C 5.063052 -0.554568 1.181433 0
M  V30 4 C 5.746948 0.785780 1.027882 0
M  V30 5 N 5.128984 1.818933 1.794756 0
M  V30 6 C 3.796534 2.165054 1.318060 0
M  V30 7 C 3.802047 2.671206 -0.082925 0
M  V30 8 C 2.414597 3.025288 -0.553517 0
M  V30 9 N 1.473564 2.861215 0.505369 0
M  V30 10 C 0.283048 2.132227 0.445733 0
M  V30 11 C -0.796516 2.890119 0.925147 0
M  V30 12 C -2.079558 2.335367 0.969540 0
M  V30 13 C -3.211556 3.084473 1.455801 0
M  V30 14 N -4.110902 3.682712 1.852576 0
M  V30 15 C -2.199229 1.038364 0.523869 0
M  V30 16 C -1.179573 0.247202 0.043365 0
M  V30 17 N -1.316401 -1.086099 -0.412807 0
M  V30 18 C -2.499479 -1.866252 -0.462710 0
M  V30 19 N -2.444590 -3.121610 -0.938184 0
M  V30 20 C -3.494159 -3.951227 -1.031799 0
M  V30 21 N -3.328944 -5.275512 -1.557252 0
M  V30 22 C -4.449863 -6.174469 -1.661267 0
M  V30 23 C -4.078811 -7.543001 -2.249507 0
M  V30 24 C -4.551055 -7.393805 -0.835632 0
M  V30 25 C -4.727508 -3.517847 -0.620682 0
M  V30 26 N -5.949053 -4.033040 -0.562983 0
M  V30 27 C -6.800430 -3.115017 -0.050495 0
M  V30 28 C -6.061243 -1.989979 0.215499 0
M  V30 29 C -6.597316 -0.783167 0.771066 0
M  V30 30 N -7.028946 0.205114 1.237219 0
M  V30 31 N -4.789573 -2.265346 -0.144791 0
M  V30 32 N -3.724847 -1.499040 -0.077816 0
M  V30 33 C 0.045065 0.848984 0.026802 0
M  V30 34 Cl 1.411089 -0.024749 -0.579513 0
M  V30 35 C 1.803419 3.568555 1.719936 0
M  V30 36 C 3.085151 3.065988 2.275680 0
M  V30 37 H 4.941105 -2.986272 2.223156 0
M  V30 38 H 3.395235 -2.119429 2.646645 0
M  V30 39 H 4.659306 -2.367976 3.849028 0
M  V30 40 H 4.055338 -0.590537 0.727562 0
M  V30 41 H 5.685189 -1.310178 0.621600 0
M  V30 42 H 6.775556 0.635321 1.485081 0
M  V30 43 H 5.946559 1.018886 -0.031269 0
M  V30 44 H 5.737349 2.676968 1.696311 0
M  V30 45 H 3.241435 1.199377 1.336465 0
M  V30 46 H 4.272277 1.883609 -0.705406 0
M  V30 47 H 4.452495 3.553429 -0.164029 0
M  V30 48 H 2.152845 2.517734 -1.491483 0
M  V30 49 H 2.422823 4.107190 -0.793196 0
M  V30 50 H -0.737426 3.929588 1.288739 0
M  V30 51 H -3.201939 0.649373 0.574969 0
M  V30 52 H -0.444255 -1.560895 -0.755961 0
M  V30 53 H -2.351274 -5.560380 -1.863681 0
M  V30 54 H -5.359986 -5.742630 -2.097555 0
M  V30 55 H -3.007707 -7.790996 -2.368598 0
M  V30 56 H -4.764992 -7.989773 -3.006562 0
M  V30 57 H -5.567001 -7.802867 -0.661437 0
M  V30 58 H -3.842693 -7.615184 -0.019095 0
M  V30 59 H -7.858146 -3.299043 0.096430 0
M  V30 60 H 0.960589 3.532724 2.455501 0
M  V30 61 H 1.992876 4.659837 1.444836 0
M  V30 62 H 3.756679 3.882985 2.639168 0
M  V30 63 H 2.800672 2.404407 3.156384 0
M  V30 END ATOM
M  V30 BEGIN BOND
M  V30 1 1 1 2
M  V30 2 1 2 3
M  V30 3 1 3 4
M  V30 4 1 4 5
M  V30 5 1 5 6
M  V30 6 1 6 7
M  V30 7 1 7 8
M  V30 8 1 8 9
M  V30 9 1 9 10
M  V30 10 2 10 11
M  V30 11 1 11 12
M  V30 12 1 12 13
M  V30 13 3 13 14
M  V30 14 2 12 15
M  V30 15 1 15 16
M  V30 16 1 16 17
M  V30 17 1 17 18
M  V30 18 1 18 19
M  V30 19 2 19 20
M  V30 20 1 20 21
M  V30 21 1 21 22
M  V30 22 1 22 23
M  V30 23 1 23 24
M  V30 24 1 20 25
M  V30 25 2 25 26
M  V30 26 1 26 27
M  V30 27 2 27 28
M  V30 28 1 28 29
M  V30 29 3 29 30
M  V30 30 1 28 31
M  V30 31 1 31 32
M  V30 32 2 16 33
M  V30 33 1 33 34
M  V30 34 1 9 35
M  V30 35 1 35 36
M  V30 36 1 36 6
M  V30 37 1 33 10
M  V30 38 2 32 18
M  V30 39 1 24 22
M  V30 40 1 31 25
M  V30 41 1 1 37
M  V30 42 1 1 38
M  V30 43 1 1 39
M  V30 44 1 3 40
M  V30 45 1 3 41
M  V30 46 1 4 42
M  V30 47 1 4 43
M  V30 48 1 5 44
M  V30 49 1 6 45
M  V30 50 1 7 46
M  V30 51 1 7 47
M  V30 52 1 8 48
M  V30 53 1 8 49
M  V30 54 1 11 50
M  V30 55 1 15 51
M  V30 56 1 17 52
M  V30 57 1 21 53
M  V30 58 1 22 54
M  V30 59 1 23 55
M  V30 60 1 23 56
M  V30 61 1 24 57
M  V30 62 1 24 58
M  V30 63 1 27 59
M  V30 64 1 35 60
M  V30 65 1 35 61
M  V30 66 1 36 62
M  V30 67 1 36 63
M  V30 END BOND
M  V30 END CTAB
M  END
>  <Dataset>  (432) 
ChEMBL_Kinases

>  <Ligand_Instance>  (432) 
nan

>  <PDB_ID>  (432) 
nan

>  <Standardized_SMILES>  (432) 
COCCNC1CCN(c2cc(C#N)cc(Nc3nc(NC4CC4)c4ncc(C#N)n4n3)c2Cl)CC1

>  <Name>  (432) 
nan

>  <Pocket>  (432) 
nan

>  <ATP_Site>  (432) 
nan

>  <Peripheral>  (432) 
nan

>  <Num_H_Atoms_ProtBoundConf>  (432) 
nan

>  <Num_Resolved_Atoms>  (432) 
nan

>  <Num_Not_Resolved_Atoms>  (432) 
nan

$$$$
CHEMBL2348180
     RDKit          3D

  0  0  0  0  0  0  0  0  0  0999 V3000
M  V30 BEGIN CTAB
M  V30 COUNTS 28 30 0 0 0
M  V30 BEGIN ATOM
M  V30 1 N 0.037200 -5.469419 2.136275 0
M  V30 2 C 0.210620 -4.353861 2.335532 0
M  V30 3 C 0.409971 -2.951721 2.568416 0
M  V30 4 C 0.561129 -2.513363 3.868186 0
M  V30 5 C 0.759497 -1.183644 4.218549 0
M  V30 6 C 0.803494 -0.261181 3.168790 0
M  V30 7 C 0.982724 1.124507 3.153480 0
M  V30 8 C 0.941044 1.536867 1.836363 0
M  V30 9 N 0.743661 0.438136 1.085107 0
M  V30 10 C 0.632145 0.375924 -0.343821 0
M  V30 11 C 1.595899 0.663300 -1.284666 0
M  V30 12 C 1.287897 0.540674 -2.620677 0
M  V30 13 N 0.075782 0.148866 -3.051918 0
M  V30 14 C -0.909271 -0.146366 -2.170103 0
M  V30 15 N -2.196950 -0.562165 -2.605508 0
M  V30 16 C -0.611554 -0.026873 -0.827839 0
M  V30 17 C 0.653658 -0.676760 1.846263 0
M  V30 18 C 0.457040 -2.015084 1.535641 0
M  V30 19 H 0.536803 -3.183500 4.735334 0
M  V30 20 H 0.875980 -0.859772 5.245332 0
M  V30 21 H 1.119873 1.673010 4.062019 0
M  V30 22 H 1.049995 2.559233 1.503187 0
M  V30 23 H 2.543305 0.970991 -0.866387 0
M  V30 24 H 2.077968 0.777674 -3.319526 0
M  V30 25 H -2.499096 -1.487720 -2.993341 0
M  V30 26 H -2.850809 0.250222 -2.473469 0
M  V30 27 H -1.421705 -0.270630 -0.151337 0
M  V30 28 H 0.339307 -2.350332 0.512727 0
M  V30 END ATOM
M  V30 BEGIN BOND
M  V30 1 3 1 2
M  V30 2 1 2 3
M  V30 3 2 3 4
M  V30 4 1 4 5
M  V30 5 2 5 6
M  V30 6 1 6 7
M  V30 7 2 7 8
M  V30 8 1 8 9
M  V30 9 1 9 10
M  V30 10 2 10 11
M  V30 11 1 11 12
M  V30 12 2 12 13
M  V30 13 1 13 14
M  V30 14 1 14 15
M  V30 15 2 14 16
M  V30 16 1 9 17
M  V30 17 2 17 18
M  V30 18 1 18 3
M  V30 19 1 17 6
M  V30 20 1 16 10
M  V30 21 1 4 19
M  V30 22 1 5 20
M  V30 23 1 7 21
M  V30 24 1 8 22
M  V30 25 1 11 23
M  V30 26 1 12 24
M  V30 27 1 15 25
M  V30 28 1 15 26
M  V30 29 1 16 27
M  V30 30 1 18 28
M  V30 END BOND
M  V30 END CTAB
M  END
>  <Dataset>  (433) 
ChEMBL_Kinases

>  <Ligand_Instance>  (433) 
nan

>  <PDB_ID>  (433) 
nan

>  <Standardized_SMILES>  (433) 
N#Cc1ccc2ccn(-c3ccnc(N)c3)c2c1

>  <Name>  (433) 
nan

>  <Pocket>  (433) 
nan

>  <ATP_Site>  (433) 
nan

>  <Peripheral>  (433) 
nan

>  <Num_H_Atoms_ProtBoundConf>  (433) 
nan

>  <Num_Resolved_Atoms>  (433) 
nan

>  <Num_Not_Resolved_Atoms>  (433) 
nan

$$$$
CHEMBL2348171
     RDKit          3D

  0  0  0  0  0  0  0  0  0  0999 V3000
M  V30 BEGIN CTAB
M  V30 COUNTS 28 30 0 0 0
M  V30 BEGIN ATOM
M  V30 1 C 1.941392 -5.333131 0.487614 0
M  V30 2 C 1.593644 -4.332473 1.103075 0
M  V30 3 C 1.206987 -3.153070 1.822184 0
M  V30 4 C 1.205990 -3.144474 3.207645 0
M  V30 5 C 0.832005 -2.003615 3.926380 0
M  V30 6 C 0.475578 -0.922184 3.147781 0
M  V30 7 C 0.064492 0.330448 3.585634 0
M  V30 8 C -0.196958 1.121611 2.485833 0
M  V30 9 N 0.045854 0.378388 1.393986 0
M  V30 10 C -0.078658 0.751791 0.025463 0
M  V30 11 C 1.075367 0.718587 -0.739938 0
M  V30 12 C 1.059972 1.067044 -2.095300 0
M  V30 13 N -0.135224 1.428985 -2.587898 0
M  V30 14 C -1.274498 1.472223 -1.873325 0
M  V30 15 N -2.511526 1.869694 -2.472902 0
M  V30 16 N -1.235349 1.127988 -0.552949 0
M  V30 17 C 0.453844 -0.861581 1.769883 0
M  V30 18 C 0.832665 -2.016959 1.102329 0
M  V30 19 H 2.227630 -6.206423 -0.036622 0
M  V30 20 H 1.497628 -4.029699 3.762642 0
M  V30 21 H 0.814330 -1.945541 5.003220 0
M  V30 22 H -0.082319 0.781104 4.572564 0
M  V30 23 H -0.539250 2.162969 2.416212 0
M  V30 24 H 2.032337 0.419808 -0.310295 0
M  V30 25 H 1.943698 1.051280 -2.719352 0
M  V30 26 H -2.473076 2.320490 -3.403873 0
M  V30 27 H -3.395185 1.689396 -1.949370 0
M  V30 28 H 0.824235 -1.995642 0.031990 0
M  V30 END ATOM
M  V30 BEGIN BOND
M  V30 1 3 1 2
M  V30 2 1 2 3
M  V30 3 2 3 4
M  V30 4 1 4 5
M  V30 5 2 5 6
M  V30 6 1 6 7
M  V30 7 2 7 8
M  V30 8 1 8 9
M  V30 9 1 9 10
M  V30 10 2 10 11
M  V30 11 1 11 12
M  V30 12 2 12 13
M  V30 13 1 13 14
M  V30 14 1 14 15
M  V30 15 2 14 16
M  V30 16 1 9 17
M  V30 17 2 17 18
M  V30 18 1 18 3
M  V30 19 1 17 6
M  V30 20 1 16 10
M  V30 21 1 1 19
M  V30 22 1 4 20
M  V30 23 1 5 21
M  V30 24 1 7 22
M  V30 25 1 8 23
M  V30 26 1 11 24
M  V30 27 1 12 25
M  V30 28 1 15 26
M  V30 29 1 15 27
M  V30 30 1 18 28
M  V30 END BOND
M  V30 END CTAB
M  END
>  <Dataset>  (434) 
ChEMBL_Kinases

>  <Ligand_Instance>  (434) 
nan

>  <PDB_ID>  (434) 
nan

>  <Standardized_SMILES>  (434) 
C#Cc1ccc2ccn(-c3ccnc(N)n3)c2c1

>  <Name>  (434) 
nan

>  <Pocket>  (434) 
nan

>  <ATP_Site>  (434) 
nan

>  <Peripheral>  (434) 
nan

>  <Num_H_Atoms_ProtBoundConf>  (434) 
nan

>  <Num_Resolved_Atoms>  (434) 
nan

>  <Num_Not_Resolved_Atoms>  (434) 
nan

$$$$
CHEMBL4476505
     RDKit          3D

  0  0  0  0  0  0  0  0  0  0999 V3000
M  V30 BEGIN CTAB
M  V30 COUNTS 56 59 0 0 0
M  V30 BEGIN ATOM
M  V30 1 C 5.397763 -3.568744 5.469869 0
M  V30 2 C 4.999812 -4.554363 4.414583 0
M  V30 3 O 5.081764 -4.048364 3.109478 0
M  V30 4 C 4.369493 -2.952669 2.647584 0
M  V30 5 C 3.468202 -2.148248 3.312652 0
M  V30 6 C 2.864066 -1.094288 2.653781 0
M  V30 7 C 3.127448 -0.803089 1.330148 0
M  V30 8 C 2.436869 0.330572 0.729143 0
M  V30 9 O 1.642436 0.978658 1.445637 0
M  V30 10 N 2.611001 0.741011 -0.613565 0
M  V30 11 C 1.801109 1.878660 -0.906072 0
M  V30 12 C 2.325159 3.137368 -0.702157 0
M  V30 13 C 1.508185 4.209467 -0.997959 0
M  V30 14 C 0.232368 4.029066 -1.473293 0
M  V30 15 C -0.314923 2.782268 -1.685734 0
M  V30 16 N -1.640176 2.702312 -2.178491 0
M  V30 17 C -2.416451 1.556098 -2.475017 0
M  V30 18 O -1.908941 0.431816 -2.294726 0
M  V30 19 C -3.807081 1.673008 -2.990608 0
M  V30 20 O -4.401723 0.435371 -3.215321 0
M  V30 21 C -4.617828 -0.472368 -2.195932 0
M  V30 22 C -5.211486 -1.621291 -2.727001 0
M  V30 23 C -5.547105 -2.709254 -1.935671 0
M  V30 24 C -5.293934 -2.674122 -0.576577 0
M  V30 25 C -5.579452 -3.692257 0.326248 0
M  V30 26 O -6.112946 -4.726204 -0.149041 0
M  V30 27 C -5.266910 -3.510977 1.661336 0
M  V30 28 C -4.674923 -2.323183 2.087570 0
M  V30 29 O -4.413931 -1.372430 1.212276 0
M  V30 30 C -4.705785 -1.529825 -0.063763 0
M  V30 31 C -4.373853 -0.450140 -0.854369 0
M  V30 32 C 0.515674 1.760263 -1.384581 0
M  V30 33 C 4.028061 -1.603738 0.658930 0
M  V30 34 C 4.646531 -2.669267 1.304459 0
M  V30 35 H 4.575032 -3.306641 6.170351 0
M  V30 36 H 5.762273 -2.648306 4.962195 0
M  V30 37 H 6.223642 -3.976650 6.111974 0
M  V30 38 H 5.629968 -5.452941 4.513205 0
M  V30 39 H 3.955386 -4.915293 4.644345 0
M  V30 40 H 3.312918 -2.431112 4.331085 0
M  V30 41 H 2.171669 -0.525771 3.270545 0
M  V30 42 H 3.276123 0.202167 -1.222869 0
M  V30 43 H 3.325930 3.274832 -0.329237 0
M  V30 44 H 1.875633 5.214884 -0.854125 0
M  V30 45 H -0.355396 4.936109 -1.684930 0
M  V30 46 H -2.156850 3.599350 -2.363758 0
M  V30 47 H -3.781303 2.278236 -3.915351 0
M  V30 48 H -4.394574 2.194401 -2.189102 0
M  V30 49 H -5.481164 -1.821731 -3.768655 0
M  V30 50 H -6.002811 -3.619311 -2.273108 0
M  V30 51 H -5.498424 -4.320427 2.353548 0
M  V30 52 H -4.427788 -2.182420 3.149899 0
M  V30 53 H -3.929653 0.459471 -0.520740 0
M  V30 54 H 0.187872 0.743596 -1.513791 0
M  V30 55 H 4.240444 -1.383666 -0.377759 0
M  V30 56 H 5.346084 -3.245760 0.685304 0
M  V30 END ATOM
M  V30 BEGIN BOND
M  V30 1 1 1 2
M  V30 2 1 2 3
M  V30 3 1 3 4
M  V30 4 2 4 5
M  V30 5 1 5 6
M  V30 6 2 6 7
M  V30 7 1 7 8
M  V30 8 2 8 9
M  V30 9 1 8 10
M  V30 10 1 10 11
M  V30 11 2 11 12
M  V30 12 1 12 13
M  V30 13 2 13 14
M  V30 14 1 14 15
M  V30 15 1 15 16
M  V30 16 1 16 17
M  V30 17 2 17 18
M  V30 18 1 17 19
M  V30 19 1 19 20
M  V30 20 1 20 21
M  V30 21 2 21 22
M  V30 22 1 22 23
M  V30 23 2 23 24
M  V30 24 1 24 25
M  V30 25 2 25 26
M  V30 26 1 25 27
M  V30 27 2 27 28
M  V30 28 1 28 29
M  V30 29 1 29 30
M  V30 30 2 30 31
M  V30 31 2 15 32
M  V30 32 1 7 33
M  V30 33 2 33 34
M  V30 34 1 34 4
M  V30 35 1 32 11
M  V30 36 1 31 21
M  V30 37 1 30 24
M  V30 38 1 1 35
M  V30 39 1 1 36
M  V30 40 1 1 37
M  V30 41 1 2 38
M  V30 42 1 2 39
M  V30 43 1 5 40
M  V30 44 1 6 41
M  V30 45 1 10 42
M  V30 46 1 12 43
M  V30 47 1 13 44
M  V30 48 1 14 45
M  V30 49 1 16 46
M  V30 50 1 19 47
M  V30 51 1 19 48
M  V30 52 1 22 49
M  V30 53 1 23 50
M  V30 54 1 27 51
M  V30 55 1 28 52
M  V30 56 1 31 53
M  V30 57 1 32 54
M  V30 58 1 33 55
M  V30 59 1 34 56
M  V30 END BOND
M  V30 END CTAB
M  END
>  <Dataset>  (435) 
ChEMBL_Kinases

>  <Ligand_Instance>  (435) 
nan

>  <PDB_ID>  (435) 
nan

>  <Standardized_SMILES>  (435) 
CCOc1ccc(C(=O)Nc2cccc(NC(=O)COc3ccc4c(=O)ccoc4c3)c2)cc1

>  <Name>  (435) 
nan

>  <Pocket>  (435) 
nan

>  <ATP_Site>  (435) 
nan

>  <Peripheral>  (435) 
nan

>  <Num_H_Atoms_ProtBoundConf>  (435) 
nan

>  <Num_Resolved_Atoms>  (435) 
nan

>  <Num_Not_Resolved_Atoms>  (435) 
nan

$$$$
CHEMBL4476320
     RDKit          3D

  0  0  0  0  0  0  0  0  0  0999 V3000
M  V30 BEGIN CTAB
M  V30 COUNTS 72 75 0 0 0
M  V30 BEGIN ATOM
M  V30 1 C 1.977738 -4.014464 4.700928 0
M  V30 2 C 0.811686 -3.147565 4.520761 0
M  V30 3 C 0.456338 -2.224632 5.499718 0
M  V30 4 C -0.659708 -1.469575 5.205627 0
M  V30 5 C -1.457999 -1.503577 4.092031 0
M  V30 6 C -2.616636 -0.636430 3.964548 0
M  V30 7 O -3.097167 -0.023754 4.951853 0
M  V30 8 N -3.178583 -0.511359 2.672565 0
M  V30 9 C -4.264353 0.171117 2.043277 0 CFG=1
M  V30 10 C -3.812809 1.449163 1.348728 0
M  V30 11 C -2.780366 1.086528 0.310404 0
M  V30 12 C -2.256843 2.278811 -0.428305 0
M  V30 13 C -3.323244 3.022334 -1.173814 0
M  V30 14 C -2.736325 4.343699 -1.634710 0
M  V30 15 C -1.281174 4.238535 -1.953539 0
M  V30 16 C -0.972669 2.848228 -2.497497 0
M  V30 17 C -1.181717 1.842754 -1.409567 0
M  V30 18 C -5.148555 -0.667099 1.211475 0
M  V30 19 N -6.208764 0.109513 0.612906 0
M  V30 20 O -5.057551 -1.903611 1.000663 0
M  V30 21 C -1.090020 -2.409902 3.157487 0
M  V30 22 C 0.018331 -3.197761 3.392287 0
M  V30 23 N 0.374266 -4.219741 2.419592 0
M  V30 24 C 1.197855 -3.282353 1.637051 0
M  V30 25 O 1.211237 -2.082861 2.143840 0
M  V30 26 C 1.988627 -3.526349 0.384921 0
M  V30 27 C 2.115294 -4.729092 -0.276745 0
M  V30 28 N 2.902075 -4.447514 -1.329405 0
M  V30 29 N 3.226442 -3.144618 -1.295154 0
M  V30 30 C 4.048939 -2.408741 -2.224819 0
M  V30 31 C 5.012716 -1.502981 -1.828187 0
M  V30 32 C 5.786890 -0.810712 -2.732598 0
M  V30 33 C 5.560209 -1.059608 -4.065931 0
M  V30 34 C 4.594436 -1.968018 -4.491810 0
M  V30 35 C 3.830544 -2.649680 -3.546928 0
M  V30 36 C 2.853926 -3.582431 -4.154406 0
M  V30 37 C 2.679749 -2.509066 -0.235392 0
M  V30 38 H 1.837289 -4.847702 5.409924 0
M  V30 39 H 2.376686 -4.387161 3.712002 0
M  V30 40 H 2.817092 -3.395498 5.096230 0
M  V30 41 H 0.998633 -2.099781 6.414931 0
M  V30 42 H -0.928666 -0.744398 5.991829 0
M  V30 43 H -2.780810 -1.002485 1.844260 0
M  V30 44 H -4.892773 0.572558 2.908536 0
M  V30 45 H -4.682895 1.895505 0.790785 0
M  V30 46 H -3.505526 2.220536 2.057198 0
M  V30 47 H -3.272239 0.395845 -0.411389 0
M  V30 48 H -1.947988 0.486134 0.741369 0
M  V30 49 H -1.815427 2.970519 0.328422 0
M  V30 50 H -4.221061 3.254877 -0.606007 0
M  V30 51 H -3.610637 2.420327 -2.076938 0
M  V30 52 H -3.300059 4.739724 -2.490824 0
M  V30 53 H -2.858092 5.044121 -0.780762 0
M  V30 54 H -0.933568 4.978582 -2.693312 0
M  V30 55 H -0.617000 4.372635 -1.067852 0
M  V30 56 H -1.557773 2.625252 -3.413902 0
M  V30 57 H 0.101030 2.850954 -2.773271 0
M  V30 58 H -0.192844 1.727453 -0.869971 0
M  V30 59 H -1.416893 0.858821 -1.873771 0
M  V30 60 H -6.068165 0.542314 -0.308606 0
M  V30 61 H -6.966788 0.037544 1.356019 0
M  V30 62 H -1.601177 -2.561678 2.242722 0
M  V30 63 H 0.593871 -4.977580 1.762983 0
M  V30 64 H 1.666757 -5.677843 0.011524 0
M  V30 65 H 5.142020 -1.351968 -0.764705 0
M  V30 66 H 6.517133 -0.121932 -2.337410 0
M  V30 67 H 6.198171 -0.487482 -4.746581 0
M  V30 68 H 4.560503 -2.030817 -5.582064 0
M  V30 69 H 3.468506 -4.461622 -4.499760 0
M  V30 70 H 2.425557 -3.159455 -5.069453 0
M  V30 71 H 2.055749 -3.887831 -3.464137 0
M  V30 72 H 2.770842 -1.473788 0.040759 0
M  V30 END ATOM
M  V30 BEGIN BOND
M  V30 1 1 1 2
M  V30 2 2 2 3
M  V30 3 1 3 4
M  V30 4 2 4 5
M  V30 5 1 5 6
M  V30 6 2 6 7
M  V30 7 1 6 8
M  V30 8 1 8 9
M  V30 9 1 9 10
M  V30 10 1 10 11
M  V30 11 1 11 12
M  V30 12 1 12 13
M  V30 13 1 13 14
M  V30 14 1 14 15
M  V30 15 1 15 16
M  V30 16 1 16 17
M  V30 17 1 9 18
M  V30 18 1 18 19
M  V30 19 2 18 20
M  V30 20 1 5 21
M  V30 21 2 21 22
M  V30 22 1 22 23
M  V30 23 1 23 24
M  V30 24 2 24 25
M  V30 25 1 24 26
M  V30 26 1 26 27
M  V30 27 2 27 28
M  V30 28 1 28 29
M  V30 29 1 29 30
M  V30 30 2 30 31
M  V30 31 1 31 32
M  V30 32 2 32 33
M  V30 33 1 33 34
M  V30 34 2 34 35
M  V30 35 1 35 36
M  V30 36 1 29 37
M  V30 37 1 22 2
M  V30 38 2 37 26
M  V30 39 1 17 12
M  V30 40 1 35 30
M  V30 41 1 1 38
M  V30 42 1 1 39
M  V30 43 1 1 40
M  V30 44 1 3 41
M  V30 45 1 4 42
M  V30 46 1 8 43
M  V30 47 1 9 44 CFG=1
M  V30 48 1 10 45
M  V30 49 1 10 46
M  V30 50 1 11 47
M  V30 51 1 11 48
M  V30 52 1 12 49
M  V30 53 1 13 50
M  V30 54 1 13 51
M  V30 55 1 14 52
M  V30 56 1 14 53
M  V30 57 1 15 54
M  V30 58 1 15 55
M  V30 59 1 16 56
M  V30 60 1 16 57
M  V30 61 1 17 58
M  V30 62 1 17 59
M  V30 63 1 19 60
M  V30 64 1 19 61
M  V30 65 1 21 62
M  V30 66 1 23 63
M  V30 67 1 27 64
M  V30 68 1 31 65
M  V30 69 1 32 66
M  V30 70 1 33 67
M  V30 71 1 34 68
M  V30 72 1 36 69
M  V30 73 1 36 70
M  V30 74 1 36 71
M  V30 75 1 37 72
M  V30 END BOND
M  V30 END CTAB
M  END
>  <Dataset>  (436) 
ChEMBL_Kinases

>  <Ligand_Instance>  (436) 
nan

>  <PDB_ID>  (436) 
nan

>  <Standardized_SMILES>  (436) 
Cc1ccc(C(=O)N[C@@H](CCC2CCCCC2)C(N)=O)cc1NC(=O)c1cnn(-c2ccccc2C)c1

>  <Name>  (436) 
nan

>  <Pocket>  (436) 
nan

>  <ATP_Site>  (436) 
nan

>  <Peripheral>  (436) 
nan

>  <Num_H_Atoms_ProtBoundConf>  (436) 
nan

>  <Num_Resolved_Atoms>  (436) 
nan

>  <Num_Not_Resolved_Atoms>  (436) 
nan

$$$$
CHEMBL4476226
     RDKit          3D

  0  0  0  0  0  0  0  0  0  0999 V3000
M  V30 BEGIN CTAB
M  V30 COUNTS 71 75 0 0 0
M  V30 BEGIN ATOM
M  V30 1 C -0.033497 -7.837468 6.209520 0
M  V30 2 C -0.627456 -6.729310 5.444869 0
M  V30 3 O -1.883616 -6.648040 5.293177 0
M  V30 4 N 0.013038 -5.649815 4.795771 0
M  V30 5 C -0.789744 -4.687365 4.107275 0
M  V30 6 C -0.407233 -3.319340 4.652336 0
M  V30 7 N 0.951991 -2.954286 4.406437 0
M  V30 8 C 1.467917 -1.862137 3.641283 0
M  V30 9 C 2.806564 -1.499396 3.545951 0
M  V30 10 C 3.177186 -0.440289 2.779305 0
M  V30 11 C 2.294018 0.333503 2.060044 0
M  V30 12 N 2.739119 1.434002 1.276943 0
M  V30 13 C 1.856342 2.234285 0.499536 0
M  V30 14 N 1.241601 3.303802 1.023387 0
M  V30 15 C 0.407082 4.096565 0.356542 0
M  V30 16 C 0.137764 3.823513 -0.966383 0
M  V30 17 C -0.746353 4.567301 -1.867385 0
M  V30 18 F -1.782441 3.810033 -2.382383 0
M  V30 19 F -1.371701 5.558276 -1.107712 0
M  V30 20 F -0.126715 5.202713 -2.904487 0
M  V30 21 C 0.747826 2.733694 -1.547853 0
M  V30 22 N 0.666068 2.220520 -2.879645 0
M  V30 23 C 0.923900 2.482454 -4.292485 0
M  V30 24 C -0.421272 2.280453 -4.888082 0
M  V30 25 C -1.126434 2.885615 -5.921490 0
M  V30 26 C -2.393464 2.383878 -6.178093 0
M  V30 27 C -2.925185 1.336552 -5.443610 0
M  V30 28 C -2.188142 0.760548 -4.420326 0
M  V30 29 N -2.766213 -0.312508 -3.691384 0
M  V30 30 C -2.456879 -1.597861 -4.297540 0
M  V30 31 S -3.725815 -0.210315 -2.264035 0
M  V30 32 C -2.847112 0.512071 -0.900845 0
M  V30 33 O -4.136829 -1.592338 -1.876336 0
M  V30 34 O -4.994055 0.546744 -2.558654 0
M  V30 35 C -0.922686 1.235318 -4.137152 0
M  V30 36 C 0.115672 0.883369 -3.151884 0
M  V30 37 N 1.590483 1.964260 -0.807385 0
M  V30 38 C 0.967129 -0.022927 2.151987 0
M  V30 39 C 0.581117 -1.092506 2.924690 0
M  V30 40 C 1.751975 -3.932731 5.091823 0
M  V30 41 C 1.418627 -5.360306 4.720313 0
M  V30 42 H -0.818358 -8.220089 6.909284 0
M  V30 43 H 0.256115 -8.646958 5.485987 0
M  V30 44 H 0.894677 -7.533517 6.722872 0
M  V30 45 H -1.869792 -4.820185 4.336800 0
M  V30 46 H -0.608167 -4.747831 3.012442 0
M  V30 47 H -0.627226 -3.369546 5.760834 0
M  V30 48 H -1.152799 -2.623139 4.178670 0
M  V30 49 H 3.520797 -2.089284 4.101356 0
M  V30 50 H 4.227292 -0.201704 2.739711 0
M  V30 51 H 3.749454 1.662750 1.272435 0
M  V30 52 H -0.095101 4.962165 0.770774 0
M  V30 53 H 1.277407 3.508557 -4.425058 0
M  V30 54 H 1.652716 1.722979 -4.651871 0
M  V30 55 H -0.654303 3.699861 -6.458743 0
M  V30 56 H -2.905494 2.896594 -7.001965 0
M  V30 57 H -3.919626 1.035293 -5.737675 0
M  V30 58 H -1.599808 -2.025971 -3.735231 0
M  V30 59 H -2.335397 -1.570579 -5.381645 0
M  V30 60 H -3.314818 -2.311541 -4.119498 0
M  V30 61 H -2.002480 -0.161214 -0.645893 0
M  V30 62 H -2.412044 1.488666 -1.113860 0
M  V30 63 H -3.511794 0.533626 -0.028048 0
M  V30 64 H -0.283030 0.397532 -2.241851 0
M  V30 65 H 0.940028 0.308073 -3.617025 0
M  V30 66 H 0.289118 0.609449 1.569980 0
M  V30 67 H -0.494315 -1.229654 2.881477 0
M  V30 68 H 1.593040 -3.836060 6.191952 0
M  V30 69 H 2.838030 -3.823321 4.876951 0
M  V30 70 H 1.973308 -6.017503 5.412098 0
M  V30 71 H 1.847266 -5.567411 3.708302 0
M  V30 END ATOM
M  V30 BEGIN BOND
M  V30 1 1 1 2
M  V30 2 2 2 3
M  V30 3 1 2 4
M  V30 4 1 4 5
M  V30 5 1 5 6
M  V30 6 1 6 7
M  V30 7 1 7 8
M  V30 8 2 8 9
M  V30 9 1 9 10
M  V30 10 2 10 11
M  V30 11 1 11 12
M  V30 12 1 12 13
M  V30 13 2 13 14
M  V30 14 1 14 15
M  V30 15 2 15 16
M  V30 16 1 16 17
M  V30 17 1 17 18
M  V30 18 1 17 19
M  V30 19 1 17 20
M  V30 20 1 16 21
M  V30 21 1 21 22
M  V30 22 1 22 23
M  V30 23 1 23 24
M  V30 24 2 24 25
M  V30 25 1 25 26
M  V30 26 2 26 27
M  V30 27 1 27 28
M  V30 28 1 28 29
M  V30 29 1 29 30
M  V30 30 1 29 31
M  V30 31 1 31 32
M  V30 32 2 31 33
M  V30 33 2 31 34
M  V30 34 2 28 35
M  V30 35 1 35 36
M  V30 36 2 21 37
M  V30 37 1 11 38
M  V30 38 2 38 39
M  V30 39 1 7 40
M  V30 40 1 40 41
M  V30 41 1 41 4
M  V30 42 1 39 8
M  V30 43 1 37 13
M  V30 44 1 36 22
M  V30 45 1 35 24
M  V30 46 1 1 42
M  V30 47 1 1 43
M  V30 48 1 1 44
M  V30 49 1 5 45
M  V30 50 1 5 46
M  V30 51 1 6 47
M  V30 52 1 6 48
M  V30 53 1 9 49
M  V30 54 1 10 50
M  V30 55 1 12 51
M  V30 56 1 15 52
M  V30 57 1 23 53
M  V30 58 1 23 54
M  V30 59 1 25 55
M  V30 60 1 26 56
M  V30 61 1 27 57
M  V30 62 1 30 58
M  V30 63 1 30 59
M  V30 64 1 30 60
M  V30 65 1 32 61
M  V30 66 1 32 62
M  V30 67 1 32 63
M  V30 68 1 36 64
M  V30 69 1 36 65
M  V30 70 1 38 66
M  V30 71 1 39 67
M  V30 72 1 40 68
M  V30 73 1 40 69
M  V30 74 1 41 70
M  V30 75 1 41 71
M  V30 END BOND
M  V30 END CTAB
M  END
>  <Dataset>  (437) 
ChEMBL_Kinases

>  <Ligand_Instance>  (437) 
nan

>  <PDB_ID>  (437) 
nan

>  <Standardized_SMILES>  (437) 
CC(=O)N1CCN(c2ccc(Nc3ncc(C(F)(F)F)c(N4Cc5cccc(N(C)S(C)(=O)=O)c5C4)n3)cc2)CC1

>  <Name>  (437) 
nan

>  <Pocket>  (437) 
nan

>  <ATP_Site>  (437) 
nan

>  <Peripheral>  (437) 
nan

>  <Num_H_Atoms_ProtBoundConf>  (437) 
nan

>  <Num_Resolved_Atoms>  (437) 
nan

>  <Num_Not_Resolved_Atoms>  (437) 
nan

$$$$
CHEMBL4476180
     RDKit          3D

  0  0  0  0  0  0  0  0  0  0999 V3000
M  V30 BEGIN CTAB
M  V30 COUNTS 38 40 0 0 0
M  V30 BEGIN ATOM
M  V30 1 C -1.913823 -3.578693 2.351591 0
M  V30 2 C -1.586403 -2.126913 2.372753 0 CFG=1
M  V30 3 N -0.930857 -1.693914 1.161555 0
M  V30 4 C -1.647773 -1.948813 -0.096640 0
M  V30 5 C 0.307833 -1.028845 0.835332 0
M  V30 6 N 0.162678 0.182979 0.219399 0
M  V30 7 C 1.205318 0.947269 -0.150477 0
M  V30 8 C 1.022738 2.237494 -0.806598 0
M  V30 9 C -0.248778 2.705998 -1.064675 0
M  V30 10 C -0.434441 3.931021 -1.687832 0
M  V30 11 N 0.638794 4.677719 -2.048154 0
M  V30 12 C 1.867696 4.220393 -1.796439 0
M  V30 13 C 2.109033 3.010612 -1.180080 0
M  V30 14 N 2.452982 0.513864 0.089304 0
M  V30 15 C 2.668827 -0.666905 0.690505 0
M  V30 16 C 3.901960 -1.224762 0.992322 0
M  V30 17 N 4.046576 -2.400513 1.589177 0
M  V30 18 C 2.975939 -3.150617 1.951337 0
M  V30 19 C 1.726960 -2.642941 1.674664 0
M  V30 20 C 1.587402 -1.432349 1.060348 0
M  V30 21 C -2.771023 -1.271405 2.756221 0
M  V30 22 F -3.150409 -1.688845 4.035069 0
M  V30 23 F -3.834177 -1.370385 1.913552 0
M  V30 24 F -2.364906 0.039925 2.913728 0
M  V30 25 H -1.692106 -4.054245 3.308185 0
M  V30 26 H -2.975458 -3.796814 2.127473 0
M  V30 27 H -1.319917 -4.074042 1.533243 0
M  V30 28 H -0.842319 -1.968863 3.207804 0
M  V30 29 H -1.705788 -1.015064 -0.695250 0
M  V30 30 H -1.148069 -2.718033 -0.715489 0
M  V30 31 H -2.697253 -2.223787 0.112493 0
M  V30 32 H -1.081008 2.075063 -0.759001 0
M  V30 33 H -1.446390 4.219520 -1.850512 0
M  V30 34 H 2.715390 4.833679 -2.092929 0
M  V30 35 H 3.114694 2.651702 -0.981854 0
M  V30 36 H 4.776886 -0.631339 0.706236 0
M  V30 37 H 3.093377 -4.114887 2.440788 0
M  V30 38 H 0.890535 -3.245398 1.965030 0
M  V30 END ATOM
M  V30 BEGIN BOND
M  V30 1 1 1 2
M  V30 2 1 2 3
M  V30 3 1 3 4
M  V30 4 1 3 5
M  V30 5 2 5 6
M  V30 6 1 6 7
M  V30 7 1 7 8
M  V30 8 2 8 9
M  V30 9 1 9 10
M  V30 10 2 10 11
M  V30 11 1 11 12
M  V30 12 2 12 13
M  V30 13 2 7 14
M  V30 14 1 14 15
M  V30 15 2 15 16
M  V30 16 1 16 17
M  V30 17 2 17 18
M  V30 18 1 18 19
M  V30 19 2 19 20
M  V30 20 1 2 21
M  V30 21 1 21 22
M  V30 22 1 21 23
M  V30 23 1 21 24
M  V30 24 1 20 5
M  V30 25 1 13 8
M  V30 26 1 20 15
M  V30 27 1 1 25
M  V30 28 1 1 26
M  V30 29 1 1 27
M  V30 30 1 2 28 CFG=1
M  V30 31 1 4 29
M  V30 32 1 4 30
M  V30 33 1 4 31
M  V30 34 1 9 32
M  V30 35 1 10 33
M  V30 36 1 12 34
M  V30 37 1 13 35
M  V30 38 1 16 36
M  V30 39 1 18 37
M  V30 40 1 19 38
M  V30 END BOND
M  V30 END CTAB
M  END
>  <Dataset>  (438) 
ChEMBL_Kinases

>  <Ligand_Instance>  (438) 
nan

>  <PDB_ID>  (438) 
nan

>  <Standardized_SMILES>  (438) 
C[C@@H](N(C)c1nc(-c2ccncc2)nc2cnccc12)C(F)(F)F

>  <Name>  (438) 
nan

>  <Pocket>  (438) 
nan

>  <ATP_Site>  (438) 
nan

>  <Peripheral>  (438) 
nan

>  <Num_H_Atoms_ProtBoundConf>  (438) 
nan

>  <Num_Resolved_Atoms>  (438) 
nan

>  <Num_Not_Resolved_Atoms>  (438) 
nan

$$$$
CHEMBL4476178
     RDKit          3D

  0  0  0  0  0  0  0  0  0  0999 V3000
M  V30 BEGIN CTAB
M  V30 COUNTS 50 54 0 0 0
M  V30 BEGIN ATOM
M  V30 1 C 4.613114 -3.264639 -3.351576 0
M  V30 2 N 5.438709 -2.902202 -2.202086 0
M  V30 3 C 5.052570 -2.214605 -1.113401 0
M  V30 4 C 6.081931 -2.044046 -0.213956 0
M  V30 5 N 6.103402 -1.386062 1.046522 0
M  V30 6 C 4.993402 -0.739553 1.651997 0
M  V30 7 N 5.174317 -0.150307 2.871216 0
M  V30 8 C 4.220438 0.480781 3.534761 0
M  V30 9 C 2.966702 0.550736 2.965864 0
M  V30 10 C 2.737478 -0.027933 1.739688 0
M  V30 11 C 1.416096 0.044585 1.137917 0
M  V30 12 C 1.095508 -0.504679 -0.083478 0
M  V30 13 C -0.143406 -0.455593 -0.683509 0
M  V30 14 C -1.163493 0.189870 -0.029704 0
M  V30 15 C -0.906555 0.757527 1.190977 0
M  V30 16 C 0.360749 0.677733 1.748631 0
M  V30 17 C -2.179637 1.364494 1.630279 0
M  V30 18 O -2.372368 1.980321 2.690769 0
M  V30 19 N -3.176194 1.137291 0.641709 0
M  V30 20 C -4.566296 1.516042 0.582439 0
M  V30 21 C -5.477497 0.506667 1.172184 0
M  V30 22 C -5.954296 -0.463451 0.299112 0
M  V30 23 C -6.809875 -1.464386 0.710585 0
M  V30 24 C -7.189266 -1.482593 2.031047 0
M  V30 25 C -6.741183 -0.536596 2.943262 0
M  V30 26 Cl -7.193549 -0.516813 4.628504 0
M  V30 27 C -5.879559 0.457309 2.491185 0
M  V30 28 C -2.578017 0.391873 -0.437774 0
M  V30 29 N 3.772939 -0.644026 1.150243 0
M  V30 30 C 7.134708 -2.681807 -0.835174 0
M  V30 31 N 6.717017 -3.173448 -2.001689 0
M  V30 32 H 4.658722 -2.497335 -4.131998 0
M  V30 33 H 4.869532 -4.292287 -3.722083 0
M  V30 34 H 3.533041 -3.337007 -3.031349 0
M  V30 35 H 4.050298 -1.854018 -0.989873 0
M  V30 36 H 7.025041 -1.387191 1.560184 0
M  V30 37 H 4.480224 0.912227 4.498752 0
M  V30 38 H 2.235713 1.078047 3.557282 0
M  V30 39 H 1.849508 -1.027489 -0.653496 0
M  V30 40 H -0.334659 -0.906099 -1.645214 0
M  V30 41 H 0.438127 1.155048 2.697448 0
M  V30 42 H -4.722071 2.480848 1.147176 0
M  V30 43 H -4.884743 1.774746 -0.462875 0
M  V30 44 H -5.684583 -0.497369 -0.764870 0
M  V30 45 H -7.205368 -2.237151 0.071765 0
M  V30 46 H -7.861610 -2.230608 2.457484 0
M  V30 47 H -5.471780 1.238774 3.108895 0
M  V30 48 H -3.134800 -0.565814 -0.570134 0
M  V30 49 H -2.646460 0.938669 -1.397329 0
M  V30 50 H 8.159500 -2.789919 -0.467044 0
M  V30 END ATOM
M  V30 BEGIN BOND
M  V30 1 1 1 2
M  V30 2 1 2 3
M  V30 3 2 3 4
M  V30 4 1 4 5
M  V30 5 1 5 6
M  V30 6 2 6 7
M  V30 7 1 7 8
M  V30 8 2 8 9
M  V30 9 1 9 10
M  V30 10 1 10 11
M  V30 11 2 11 12
M  V30 12 1 12 13
M  V30 13 2 13 14
M  V30 14 1 14 15
M  V30 15 2 15 16
M  V30 16 1 15 17
M  V30 17 2 17 18
M  V30 18 1 17 19
M  V30 19 1 19 20
M  V30 20 1 20 21
M  V30 21 2 21 22
M  V30 22 1 22 23
M  V30 23 2 23 24
M  V30 24 1 24 25
M  V30 25 1 25 26
M  V30 26 2 25 27
M  V30 27 1 19 28
M  V30 28 2 10 29
M  V30 29 1 4 30
M  V30 30 2 30 31
M  V30 31 1 31 2
M  V30 32 1 29 6
M  V30 33 1 16 11
M  V30 34 1 27 21
M  V30 35 1 28 14
M  V30 36 1 1 32
M  V30 37 1 1 33
M  V30 38 1 1 34
M  V30 39 1 3 35
M  V30 40 1 5 36
M  V30 41 1 8 37
M  V30 42 1 9 38
M  V30 43 1 12 39
M  V30 44 1 13 40
M  V30 45 1 16 41
M  V30 46 1 20 42
M  V30 47 1 20 43
M  V30 48 1 22 44
M  V30 49 1 23 45
M  V30 50 1 24 46
M  V30 51 1 27 47
M  V30 52 1 28 48
M  V30 53 1 28 49
M  V30 54 1 30 50
M  V30 END BOND
M  V30 END CTAB
M  END
>  <Dataset>  (439) 
ChEMBL_Kinases

>  <Ligand_Instance>  (439) 
nan

>  <PDB_ID>  (439) 
nan

>  <Standardized_SMILES>  (439) 
Cn1cc(Nc2nccc(-c3ccc4c(c3)C(=O)N(Cc3cccc(Cl)c3)C4)n2)cn1

>  <Name>  (439) 
nan

>  <Pocket>  (439) 
nan

>  <ATP_Site>  (439) 
nan

>  <Peripheral>  (439) 
nan

>  <Num_H_Atoms_ProtBoundConf>  (439) 
nan

>  <Num_Resolved_Atoms>  (439) 
nan

>  <Num_Not_Resolved_Atoms>  (439) 
nan

$$$$
CHEMBL4475912
     RDKit          3D

  0  0  0  0  0  0  0  0  0  0999 V3000
M  V30 BEGIN CTAB
M  V30 COUNTS 51 54 0 0 0
M  V30 BEGIN ATOM
M  V30 1 N 6.011565 -5.076664 5.099921 0
M  V30 2 C 5.526364 -3.990050 4.293676 0
M  V30 3 C 5.742944 -2.678884 4.716936 0
M  V30 4 C 5.282656 -1.623764 3.953165 0
M  V30 5 C 4.610580 -1.884408 2.774324 0
M  V30 6 C 4.059286 -0.880080 1.850858 0
M  V30 7 O 3.444201 -1.159084 0.767868 0
M  V30 8 N 4.157770 0.517330 2.075231 0
M  V30 9 C 3.519829 1.214989 0.988978 0
M  V30 10 C 4.253067 1.577206 -0.137416 0
M  V30 11 C 3.602260 2.245738 -1.157803 0
M  V30 12 C 2.262239 2.573568 -1.119067 0
M  V30 13 C 1.578310 2.193943 0.016639 0
M  V30 14 N 0.176443 2.469224 0.195019 0
M  V30 15 C -0.585688 1.386829 -0.322313 0
M  V30 16 O -0.846440 0.295050 -0.859128 0
M  V30 17 C -2.088634 1.400765 -0.270750 0
M  V30 18 O -2.607890 0.236171 -0.836277 0
M  V30 19 C -3.980756 0.043415 -0.891537 0
M  V30 20 C -4.984886 0.856778 -0.455941 0
M  V30 21 C -6.310674 0.461764 -0.613389 0
M  V30 22 C -6.625833 -0.748001 -1.207359 0
M  V30 23 C -7.949293 -1.094459 -1.340650 0
M  V30 24 O -8.887049 -0.348974 -0.940837 0
M  V30 25 C -8.302755 -2.307667 -1.935170 0
M  V30 26 C -7.204792 -3.049045 -2.337726 0
M  V30 27 O -5.938872 -2.728910 -2.215847 0
M  V30 28 C -5.611631 -1.574514 -1.649827 0
M  V30 29 C -4.282626 -1.173727 -1.489590 0
M  V30 30 C 2.158076 1.526153 1.073165 0
M  V30 31 C 4.413940 -3.201800 2.385527 0
M  V30 32 C 4.858269 -4.283424 3.120557 0
M  V30 33 H 5.170163 -5.486392 5.598852 0
M  V30 34 H 6.988941 -5.446124 5.219439 0
M  V30 35 H 6.265391 -2.445855 5.634533 0
M  V30 36 H 5.399839 -0.569906 4.194226 0
M  V30 37 H 4.642088 0.861444 2.932793 0
M  V30 38 H 5.303135 1.328254 -0.184077 0
M  V30 39 H 4.167779 2.536358 -2.049477 0
M  V30 40 H 1.750510 3.097201 -1.917288 0
M  V30 41 H -0.393492 3.243750 0.597984 0
M  V30 42 H -2.350662 1.440207 0.803678 0
M  V30 43 H -2.428886 2.297812 -0.822587 0
M  V30 44 H -4.647416 1.778103 -0.006685 0
M  V30 45 H -7.063821 1.166734 -0.239408 0
M  V30 46 H -9.297570 -2.656014 -2.079235 0
M  V30 47 H -7.318911 -4.021925 -2.819495 0
M  V30 48 H -3.569803 -1.914952 -1.880644 0
M  V30 49 H 1.607947 1.230124 1.967871 0
M  V30 50 H 3.886640 -3.459237 1.458352 0
M  V30 51 H 4.685852 -5.301758 2.784587 0
M  V30 END ATOM
M  V30 BEGIN BOND
M  V30 1 1 1 2
M  V30 2 2 2 3
M  V30 3 1 3 4
M  V30 4 2 4 5
M  V30 5 1 5 6
M  V30 6 2 6 7
M  V30 7 1 6 8
M  V30 8 1 8 9
M  V30 9 2 9 10
M  V30 10 1 10 11
M  V30 11 2 11 12
M  V30 12 1 12 13
M  V30 13 1 13 14
M  V30 14 1 14 15
M  V30 15 2 15 16
M  V30 16 1 15 17
M  V30 17 1 17 18
M  V30 18 1 18 19
M  V30 19 2 19 20
M  V30 20 1 20 21
M  V30 21 2 21 22
M  V30 22 1 22 23
M  V30 23 2 23 24
M  V30 24 1 23 25
M  V30 25 2 25 26
M  V30 26 1 26 27
M  V30 27 1 27 28
M  V30 28 2 28 29
M  V30 29 2 13 30
M  V30 30 1 5 31
M  V30 31 2 31 32
M  V30 32 1 32 2
M  V30 33 1 30 9
M  V30 34 1 29 19
M  V30 35 1 28 22
M  V30 36 1 1 33
M  V30 37 1 1 34
M  V30 38 1 3 35
M  V30 39 1 4 36
M  V30 40 1 8 37
M  V30 41 1 10 38
M  V30 42 1 11 39
M  V30 43 1 12 40
M  V30 44 1 14 41
M  V30 45 1 17 42
M  V30 46 1 17 43
M  V30 47 1 20 44
M  V30 48 1 21 45
M  V30 49 1 25 46
M  V30 50 1 26 47
M  V30 51 1 29 48
M  V30 52 1 30 49
M  V30 53 1 31 50
M  V30 54 1 32 51
M  V30 END BOND
M  V30 END CTAB
M  END
>  <Dataset>  (440) 
ChEMBL_Kinases

>  <Ligand_Instance>  (440) 
nan

>  <PDB_ID>  (440) 
nan

>  <Standardized_SMILES>  (440) 
Nc1ccc(C(=O)Nc2cccc(NC(=O)COc3ccc4c(=O)ccoc4c3)c2)cc1

>  <Name>  (440) 
nan

>  <Pocket>  (440) 
nan

>  <ATP_Site>  (440) 
nan

>  <Peripheral>  (440) 
nan

>  <Num_H_Atoms_ProtBoundConf>  (440) 
nan

>  <Num_Resolved_Atoms>  (440) 
nan

>  <Num_Not_Resolved_Atoms>  (440) 
nan

$$$$
CHEMBL3699255
     RDKit          3D

  0  0  0  0  0  0  0  0  0  0999 V3000
M  V30 BEGIN CTAB
M  V30 COUNTS 55 60 0 0 0
M  V30 BEGIN ATOM
M  V30 1 N -1.453720 -2.072223 5.041189 0
M  V30 2 C -1.185327 -1.906925 3.924250 0
M  V30 3 C -0.853371 -1.715631 2.544371 0
M  V30 4 C -0.181910 -0.605689 2.080581 0
M  V30 5 C 0.169584 -0.355197 0.772805 0
M  V30 6 N 0.861493 0.800225 0.332862 0
M  V30 7 C 1.322513 1.899170 1.099293 0
M  V30 8 N 1.958087 2.896968 0.489837 0
M  V30 9 C 2.443453 3.987512 1.082741 0
M  V30 10 N 3.114784 5.027650 0.393909 0
M  V30 11 C 3.416890 5.164471 -1.006956 0
M  V30 12 C 4.273954 4.096673 -1.630923 0
M  V30 13 C 2.816448 4.263248 -2.007409 0
M  V30 14 C 2.261451 4.069998 2.443319 0
M  V30 15 N 2.621033 5.019556 3.338488 0
M  V30 16 C 2.216960 4.645857 4.565221 0
M  V30 17 C 1.592962 3.431474 4.407683 0
M  V30 18 C 1.005329 2.661541 5.462934 0
M  V30 19 N 0.523910 2.030825 6.316585 0
M  V30 20 N 1.627512 3.092376 3.107849 0
M  V30 21 N 1.202455 2.080554 2.405664 0
M  V30 22 C -0.219302 -1.359044 -0.121893 0
M  V30 23 Cl 0.172899 -1.156360 -1.827540 0
M  V30 24 C -0.890054 -2.478682 0.306278 0
M  V30 25 N -1.239724 -3.443350 -0.697682 0
M  V30 26 C -2.071846 -3.280884 -1.873126 0
M  V30 27 C -2.173889 -4.764556 -2.000448 0
M  V30 28 N -3.424437 -5.353247 -1.621396 0
M  V30 29 C -3.869795 -5.170513 -0.282046 0
M  V30 30 C -3.962679 -6.685335 -0.135059 0
M  V30 31 O -3.066094 -7.125243 0.813755 0
M  V30 32 C -3.490085 -6.772109 -1.566528 0
M  V30 33 C -1.032710 -4.805174 -1.058560 0
M  V30 34 C -1.217496 -2.679670 1.628975 0
M  V30 35 H 0.066239 0.097781 2.854592 0
M  V30 36 H 1.049476 0.826477 -0.712701 0
M  V30 37 H 3.460003 5.844503 0.983532 0
M  V30 38 H 3.632044 6.203496 -1.382423 0
M  V30 39 H 4.536441 3.237599 -0.973376 0
M  V30 40 H 4.978235 4.336279 -2.440059 0
M  V30 41 H 2.187110 3.392904 -1.778782 0
M  V30 42 H 2.592665 4.676701 -3.030413 0
M  V30 43 H 2.391101 5.244844 5.446889 0
M  V30 44 H -1.535522 -2.816863 -2.734621 0
M  V30 45 H -3.036166 -2.767872 -1.684133 0
M  V30 46 H -1.888534 -5.115796 -3.029366 0
M  V30 47 H -3.215919 -4.689768 0.440901 0
M  V30 48 H -4.917740 -4.751544 -0.303020 0
M  V30 49 H -4.985953 -7.069789 0.047838 0
M  V30 50 H -2.831981 -6.502807 1.519054 0
M  V30 51 H -4.351339 -7.118444 -2.209979 0
M  V30 52 H -2.595069 -7.360998 -1.764389 0
M  V30 53 H -0.049345 -4.932684 -1.586246 0
M  V30 54 H -1.065476 -5.551952 -0.245672 0
M  V30 55 H -1.744471 -3.561269 1.960599 0
M  V30 END ATOM
M  V30 BEGIN BOND
M  V30 1 3 1 2
M  V30 2 1 2 3
M  V30 3 2 3 4
M  V30 4 1 4 5
M  V30 5 1 5 6
M  V30 6 1 6 7
M  V30 7 1 7 8
M  V30 8 2 8 9
M  V30 9 1 9 10
M  V30 10 1 10 11
M  V30 11 1 11 12
M  V30 12 1 12 13
M  V30 13 1 9 14
M  V30 14 2 14 15
M  V30 15 1 15 16
M  V30 16 2 16 17
M  V30 17 1 17 18
M  V30 18 3 18 19
M  V30 19 1 17 20
M  V30 20 1 20 21
M  V30 21 2 5 22
M  V30 22 1 22 23
M  V30 23 1 22 24
M  V30 24 1 24 25
M  V30 25 1 25 26
M  V30 26 1 26 27
M  V30 27 1 27 28
M  V30 28 1 28 29
M  V30 29 1 29 30
M  V30 30 1 30 31
M  V30 31 1 30 32
M  V30 32 1 27 33
M  V30 33 2 24 34
M  V30 34 1 34 3
M  V30 35 2 21 7
M  V30 36 1 33 25
M  V30 37 1 13 11
M  V30 38 1 20 14
M  V30 39 1 32 28
M  V30 40 1 4 35
M  V30 41 1 6 36
M  V30 42 1 10 37
M  V30 43 1 11 38
M  V30 44 1 12 39
M  V30 45 1 12 40
M  V30 46 1 13 41
M  V30 47 1 13 42
M  V30 48 1 16 43
M  V30 49 1 26 44
M  V30 50 1 26 45
M  V30 51 1 27 46
M  V30 52 1 29 47
M  V30 53 1 29 48
M  V30 54 1 30 49
M  V30 55 1 31 50
M  V30 56 1 32 51
M  V30 57 1 32 52
M  V30 58 1 33 53
M  V30 59 1 33 54
M  V30 60 1 34 55
M  V30 END BOND
M  V30 END CTAB
M  END
>  <Dataset>  (441) 
ChEMBL_Kinases

>  <Ligand_Instance>  (441) 
nan

>  <PDB_ID>  (441) 
nan

>  <Standardized_SMILES>  (441) 
N#Cc1cc(Nc2nc(NC3CC3)c3ncc(C#N)n3n2)c(Cl)c(N2CC(N3CC(O)C3)C2)c1

>  <Name>  (441) 
nan

>  <Pocket>  (441) 
nan

>  <ATP_Site>  (441) 
nan

>  <Peripheral>  (441) 
nan

>  <Num_H_Atoms_ProtBoundConf>  (441) 
nan

>  <Num_Resolved_Atoms>  (441) 
nan

>  <Num_Not_Resolved_Atoms>  (441) 
nan

$$$$
CHEMBL447571
     RDKit          3D

  0  0  0  0  0  0  0  0  0  0999 V3000
M  V30 BEGIN CTAB
M  V30 COUNTS 24 25 0 0 0
M  V30 BEGIN ATOM
M  V30 1 C 0.119707 -2.718937 3.935860 0
M  V30 2 C 0.647061 -1.808940 2.878941 0
M  V30 3 C 0.193151 -1.963343 1.564710 0
M  V30 4 C 0.723361 -1.088719 0.608105 0
M  V30 5 C 1.663239 -0.103357 0.942216 0
M  V30 6 C 2.053681 0.715352 -0.205538 0
M  V30 7 C 1.069877 1.208499 -0.928616 0
M  V30 8 S -0.678862 0.906094 -0.534648 0
M  V30 9 C -1.281963 1.878458 -1.939032 0
M  V30 10 O -2.660406 1.951648 -2.076249 0
M  V30 11 N -0.299752 2.349942 -2.592770 0
M  V30 12 C 0.973158 2.048977 -2.134578 0
M  V30 13 O 2.069030 2.420929 -2.639456 0
M  V30 14 C 2.069068 -0.006953 2.258458 0
M  V30 15 C 1.582496 -0.839207 3.244109 0
M  V30 16 H 0.981349 -2.893024 4.621112 0
M  V30 17 H -0.699153 -2.292089 4.527212 0
M  V30 18 H -0.190617 -3.655009 3.431223 0
M  V30 19 H -0.535567 -2.746196 1.372897 0
M  V30 20 H 0.284975 -1.352317 -0.368049 0
M  V30 21 H 3.037662 1.001085 -0.581254 0
M  V30 22 H -2.998418 2.504985 -2.881900 0
M  V30 23 H 2.790588 0.778548 2.411339 0
M  V30 24 H 1.938473 -0.704681 4.239919 0
M  V30 END ATOM
M  V30 BEGIN BOND
M  V30 1 1 1 2
M  V30 2 2 2 3
M  V30 3 1 3 4
M  V30 4 2 4 5
M  V30 5 1 5 6
M  V30 6 2 6 7
M  V30 7 1 7 8
M  V30 8 1 8 9
M  V30 9 1 9 10
M  V30 10 2 9 11
M  V30 11 1 11 12
M  V30 12 2 12 13
M  V30 13 1 5 14
M  V30 14 2 14 15
M  V30 15 1 15 2
M  V30 16 1 12 7
M  V30 17 1 1 16
M  V30 18 1 1 17
M  V30 19 1 1 18
M  V30 20 1 3 19
M  V30 21 1 4 20
M  V30 22 1 6 21
M  V30 23 1 10 22
M  V30 24 1 14 23
M  V30 25 1 15 24
M  V30 END BOND
M  V30 END CTAB
M  END
>  <Dataset>  (442) 
ChEMBL_Kinases

>  <Ligand_Instance>  (442) 
nan

>  <PDB_ID>  (442) 
nan

>  <Standardized_SMILES>  (442) 
Cc1ccc(/C=C2\SC(O)=NC2=O)cc1

>  <Name>  (442) 
nan

>  <Pocket>  (442) 
nan

>  <ATP_Site>  (442) 
nan

>  <Peripheral>  (442) 
nan

>  <Num_H_Atoms_ProtBoundConf>  (442) 
nan

>  <Num_Resolved_Atoms>  (442) 
nan

>  <Num_Not_Resolved_Atoms>  (442) 
nan

$$$$
CHEMBL2348160
     RDKit          3D

  0  0  0  0  0  0  0  0  0  0999 V3000
M  V30 BEGIN CTAB
M  V30 COUNTS 32 35 0 0 0
M  V30 BEGIN ATOM
M  V30 1 N -1.802741 -2.490441 5.068230 0
M  V30 2 C -1.075609 -2.854754 3.890126 0
M  V30 3 N -0.614429 -4.129634 3.753389 0
M  V30 4 C 0.071579 -4.438920 2.621765 0
M  V30 5 C 0.305057 -3.505510 1.629158 0
M  V30 6 C -0.167998 -2.218049 1.781257 0
M  V30 7 N -0.022156 -1.131539 0.866774 0
M  V30 8 C 1.183529 -0.530297 0.674920 0
M  V30 9 C 0.987117 0.475517 -0.264211 0
M  V30 10 C 2.041421 1.361764 -0.748944 0
M  V30 11 C 3.357580 1.144503 -1.170777 0
M  V30 12 C 3.905599 2.375831 -1.529481 0
M  V30 13 O 2.986401 3.292804 -1.340854 0
M  V30 14 C 1.887803 2.745328 -0.887814 0
M  V30 15 C -0.345216 0.468051 -0.629754 0
M  V30 16 C -1.076486 1.234135 -1.507509 0
M  V30 17 N -2.389081 0.956609 -1.630120 0
M  V30 18 C -2.990364 -0.031105 -0.929692 0
M  V30 19 C -2.294664 -0.835836 -0.027892 0
M  V30 20 C -0.955450 -0.540722 0.086693 0
M  V30 21 N -0.849912 -1.948064 2.928032 0
M  V30 22 H -2.806546 -2.407213 4.784211 0
M  V30 23 H -1.281013 -2.366778 5.975644 0
M  V30 24 H 0.473594 -5.427533 2.430799 0
M  V30 25 H 0.838657 -3.688004 0.714978 0
M  V30 26 H 2.132735 -0.759672 1.141686 0
M  V30 27 H 3.697865 0.097851 -1.142663 0
M  V30 28 H 4.927359 2.260830 -1.864397 0
M  V30 29 H 1.030552 3.393407 -0.683223 0
M  V30 30 H -0.586410 2.014919 -2.057068 0
M  V30 31 H -4.065011 -0.241018 -1.045297 0
M  V30 32 H -2.805873 -1.620758 0.519407 0
M  V30 END ATOM
M  V30 BEGIN BOND
M  V30 1 1 1 2
M  V30 2 2 2 3
M  V30 3 1 3 4
M  V30 4 2 4 5
M  V30 5 1 5 6
M  V30 6 1 6 7
M  V30 7 1 7 8
M  V30 8 2 8 9
M  V30 9 1 9 10
M  V30 10 1 10 11
M  V30 11 2 11 12
M  V30 12 1 12 13
M  V30 13 1 13 14
M  V30 14 1 9 15
M  V30 15 2 15 16
M  V30 16 1 16 17
M  V30 17 2 17 18
M  V30 18 1 18 19
M  V30 19 2 19 20
M  V30 20 2 6 21
M  V30 21 1 21 2
M  V30 22 1 20 7
M  V30 23 2 14 10
M  V30 24 1 20 15
M  V30 25 1 1 22
M  V30 26 1 1 23
M  V30 27 1 4 24
M  V30 28 1 5 25
M  V30 29 1 8 26
M  V30 30 1 11 27
M  V30 31 1 12 28
M  V30 32 1 14 29
M  V30 33 1 16 30
M  V30 34 1 18 31
M  V30 35 1 19 32
M  V30 END BOND
M  V30 END CTAB
M  END
>  <Dataset>  (443) 
ChEMBL_Kinases

>  <Ligand_Instance>  (443) 
nan

>  <PDB_ID>  (443) 
nan

>  <Standardized_SMILES>  (443) 
Nc1nccc(-n2cc(-c3ccoc3)c3cnccc32)n1

>  <Name>  (443) 
nan

>  <Pocket>  (443) 
nan

>  <ATP_Site>  (443) 
nan

>  <Peripheral>  (443) 
nan

>  <Num_H_Atoms_ProtBoundConf>  (443) 
nan

>  <Num_Resolved_Atoms>  (443) 
nan

>  <Num_Not_Resolved_Atoms>  (443) 
nan

$$$$
CHEMBL3699254
     RDKit          3D

  0  0  0  0  0  0  0  0  0  0999 V3000
M  V30 BEGIN CTAB
M  V30 COUNTS 68 73 0 0 0
M  V30 BEGIN ATOM
M  V30 1 C 9.442845 0.046549 1.055641 0
M  V30 2 O 8.665663 0.821542 1.982851 0
M  V30 3 C 7.276696 0.693715 1.903714 0
M  V30 4 O 6.667184 -0.040538 1.086996 0
M  V30 5 N 6.389753 1.416903 2.781841 0
M  V30 6 C 4.977396 1.242319 2.652336 0 CFG=2
M  V30 7 C 4.200691 2.543529 2.549126 0
M  V30 8 N 3.020735 2.371856 3.329560 0
M  V30 9 C 1.825553 2.020185 2.682050 0
M  V30 10 C 1.197906 2.979325 1.701645 0
M  V30 11 N 0.601812 1.763480 1.118764 0
M  V30 12 C -0.681916 1.450863 0.557542 0
M  V30 13 C -1.681812 2.419081 0.673774 0
M  V30 14 C -2.897857 2.056230 0.132381 0
M  V30 15 C -3.941662 3.064253 0.247767 0
M  V30 16 N -4.764571 3.877500 0.324606 0
M  V30 17 C -3.110737 0.841784 -0.473732 0
M  V30 18 C -2.063745 -0.080374 -0.555823 0
M  V30 19 N -2.283865 -1.302210 -1.206993 0
M  V30 20 C -3.329092 -2.006192 -1.801932 0
M  V30 21 N -3.811949 -3.062613 -1.154183 0
M  V30 22 C -4.812587 -3.865641 -1.553481 0
M  V30 23 N -5.259565 -5.000122 -0.824738 0
M  V30 24 C -6.173868 -6.079341 -0.729589 0
M  V30 25 C -6.328458 -6.992791 -1.932797 0
M  V30 26 C -7.475541 -6.230949 -1.372959 0
M  V30 27 C -5.367706 -3.513732 -2.774594 0
M  V30 28 N -6.339580 -3.985808 -3.558047 0
M  V30 29 C -6.502387 -3.280601 -4.678027 0
M  V30 30 C -5.571678 -2.268047 -4.632860 0
M  V30 31 C -5.390894 -1.263615 -5.638663 0
M  V30 32 N -5.260986 -0.469083 -6.453539 0
M  V30 33 N -4.923938 -2.459916 -3.473000 0
M  V30 34 N -3.935369 -1.756166 -2.967580 0
M  V30 35 C -0.831533 0.238277 -0.027971 0
M  V30 36 Cl 0.428033 -0.962461 -0.164628 0
M  V30 37 C 1.903570 1.176042 1.433934 0
M  V30 38 C 3.302720 1.444608 4.382930 0
M  V30 39 C 4.488229 0.616100 3.945849 0 CFG=1
M  V30 40 C 4.119570 -0.816696 3.688802 0
M  V30 41 H 8.978279 -0.962637 1.034478 0
M  V30 42 H 10.458051 -0.053369 1.542999 0
M  V30 43 H 9.511858 0.551395 0.092411 0
M  V30 44 H 6.783705 2.059999 3.499367 0
M  V30 45 H 4.676072 0.604000 1.812440 0
M  V30 46 H 4.834370 3.313090 3.037455 0
M  V30 47 H 4.044626 2.835117 1.516361 0
M  V30 48 H 1.072955 1.596219 3.371472 0
M  V30 49 H 0.469736 3.702897 2.106413 0
M  V30 50 H 1.959604 3.468512 1.056779 0
M  V30 51 H -1.474306 3.375239 1.162334 0
M  V30 52 H -4.116390 0.663272 -0.866270 0
M  V30 53 H -1.453300 -1.957238 -1.333579 0
M  V30 54 H -4.608919 -5.060569 0.032493 0
M  V30 55 H -6.003239 -6.725753 0.204524 0
M  V30 56 H -6.235080 -8.088163 -1.823430 0
M  V30 57 H -5.859285 -6.622626 -2.863018 0
M  V30 58 H -7.916921 -5.378093 -1.896382 0
M  V30 59 H -8.250531 -6.814065 -0.779486 0
M  V30 60 H -7.250567 -3.530899 -5.423207 0
M  V30 61 H 1.922780 0.090553 1.596684 0
M  V30 62 H 2.615670 1.472352 0.661017 0
M  V30 63 H 2.439094 0.727158 4.508152 0
M  V30 64 H 3.453145 1.887301 5.377009 0
M  V30 65 H 5.273300 0.633166 4.738492 0
M  V30 66 H 3.933452 -1.014876 2.610244 0
M  V30 67 H 4.940057 -1.465301 4.027916 0
M  V30 68 H 3.217503 -1.134789 4.274128 0
M  V30 END ATOM
M  V30 BEGIN BOND
M  V30 1 1 1 2
M  V30 2 1 2 3
M  V30 3 2 3 4
M  V30 4 1 3 5
M  V30 5 1 5 6
M  V30 6 1 6 7
M  V30 7 1 7 8
M  V30 8 1 8 9
M  V30 9 1 9 10
M  V30 10 1 10 11
M  V30 11 1 11 12
M  V30 12 2 12 13
M  V30 13 1 13 14
M  V30 14 1 14 15
M  V30 15 3 15 16
M  V30 16 2 14 17
M  V30 17 1 17 18
M  V30 18 1 18 19
M  V30 19 1 19 20
M  V30 20 1 20 21
M  V30 21 2 21 22
M  V30 22 1 22 23
M  V30 23 1 23 24
M  V30 24 1 24 25
M  V30 25 1 25 26
M  V30 26 1 22 27
M  V30 27 2 27 28
M  V30 28 1 28 29
M  V30 29 2 29 30
M  V30 30 1 30 31
M  V30 31 3 31 32
M  V30 32 1 30 33
M  V30 33 1 33 34
M  V30 34 2 18 35
M  V30 35 1 35 36
M  V30 36 1 11 37
M  V30 37 1 8 38
M  V30 38 1 38 39
M  V30 39 1 39 40
M  V30 40 1 39 6
M  V30 41 1 37 9
M  V30 42 1 35 12
M  V30 43 2 34 20
M  V30 44 1 26 24
M  V30 45 1 33 27
M  V30 46 1 1 41
M  V30 47 1 1 42
M  V30 48 1 1 43
M  V30 49 1 5 44
M  V30 50 1 6 45 CFG=3
M  V30 51 1 7 46
M  V30 52 1 7 47
M  V30 53 1 9 48
M  V30 54 1 10 49
M  V30 55 1 10 50
M  V30 56 1 13 51
M  V30 57 1 17 52
M  V30 58 1 19 53
M  V30 59 1 23 54
M  V30 60 1 24 55
M  V30 61 1 25 56
M  V30 62 1 25 57
M  V30 63 1 26 58
M  V30 64 1 26 59
M  V30 65 1 29 60
M  V30 66 1 37 61
M  V30 67 1 37 62
M  V30 68 1 38 63
M  V30 69 1 38 64
M  V30 70 1 39 65 CFG=1
M  V30 71 1 40 66
M  V30 72 1 40 67
M  V30 73 1 40 68
M  V30 END BOND
M  V30 END CTAB
M  END
>  <Dataset>  (444) 
ChEMBL_Kinases

>  <Ligand_Instance>  (444) 
nan

>  <PDB_ID>  (444) 
nan

>  <Standardized_SMILES>  (444) 
COC(=O)N[C@@H]1CN(C2CN(c3cc(C#N)cc(Nc4nc(NC5CC5)c5ncc(C#N)n5n4)c3Cl)C2)C[C@H]1C

>  <Name>  (444) 
nan

>  <Pocket>  (444) 
nan

>  <ATP_Site>  (444) 
nan

>  <Peripheral>  (444) 
nan

>  <Num_H_Atoms_ProtBoundConf>  (444) 
nan

>  <Num_Resolved_Atoms>  (444) 
nan

>  <Num_Not_Resolved_Atoms>  (444) 
nan

$$$$
CHEMBL3699253
     RDKit          3D

  0  0  0  0  0  0  0  0  0  0999 V3000
M  V30 BEGIN CTAB
M  V30 COUNTS 61 66 0 0 0
M  V30 BEGIN ATOM
M  V30 1 C 3.610804 -2.576683 7.019148 0
M  V30 2 O 3.428442 -2.494534 5.644842 0
M  V30 3 C 3.904253 -1.245647 5.243014 0
M  V30 4 C 5.026903 -1.333843 4.275314 0
M  V30 5 C 4.923797 0.068963 3.649846 0
M  V30 6 N 3.511952 0.285956 3.531100 0
M  V30 7 C 3.248849 1.662850 3.350470 0
M  V30 8 C 1.856332 2.169875 3.217438 0
M  V30 9 N 1.807234 1.848120 1.803249 0
M  V30 10 C 1.001290 1.529722 0.656799 0
M  V30 11 C 1.113599 2.166288 -0.558505 0
M  V30 12 C 0.295855 1.739412 -1.587819 0
M  V30 13 C 0.400741 2.392862 -2.873533 0
M  V30 14 N 0.465774 2.928757 -3.920588 0
M  V30 15 C -0.623609 0.695846 -1.422248 0
M  V30 16 C -0.707973 0.077888 -0.178997 0
M  V30 17 N -1.660471 -0.990357 -0.015846 0
M  V30 18 C -2.515550 -1.535344 -1.004072 0
M  V30 19 N -3.416246 -0.986729 -1.828162 0
M  V30 20 C -4.132283 -1.684776 -2.714294 0
M  V30 21 N -5.046763 -0.996860 -3.555872 0
M  V30 22 C -5.833986 -1.733033 -4.521648 0
M  V30 23 C -6.663511 -0.948827 -5.498342 0
M  V30 24 C -5.440766 -1.760682 -5.938895 0
M  V30 25 C -3.933101 -3.045356 -2.784376 0
M  V30 26 N -4.452705 -4.018501 -3.525619 0
M  V30 27 C -3.899492 -5.193285 -3.192916 0
M  V30 28 C -2.984224 -4.964978 -2.193069 0
M  V30 29 C -2.128825 -5.898826 -1.495571 0
M  V30 30 N -1.424701 -6.643521 -0.937187 0
M  V30 31 N -3.035040 -3.618857 -1.968136 0
M  V30 32 N -2.350559 -2.887028 -1.108163 0
M  V30 33 C 0.112843 0.500286 0.869924 0
M  V30 34 Cl -0.118431 -0.362748 2.372758 0
M  V30 35 C 3.273204 2.001083 1.841963 0
M  V30 36 C 2.870690 -0.461947 4.499897 0
M  V30 37 H 3.252272 -3.542469 7.433223 0
M  V30 38 H 3.112305 -1.698869 7.476795 0
M  V30 39 H 4.712195 -2.441993 7.239264 0
M  V30 40 H 4.280308 -0.713120 6.145767 0
M  V30 41 H 4.769117 -2.039500 3.442873 0
M  V30 42 H 6.007877 -1.556142 4.677558 0
M  V30 43 H 5.379686 0.727270 4.450146 0
M  V30 44 H 5.505692 0.169353 2.728775 0
M  V30 45 H 3.990979 2.367857 3.841038 0
M  V30 46 H 1.066628 1.752350 3.850382 0
M  V30 47 H 1.840109 3.281580 3.363453 0
M  V30 48 H 1.836634 2.979673 -0.661689 0
M  V30 49 H -1.251319 0.384264 -2.257998 0
M  V30 50 H -1.749452 -1.426038 0.944847 0
M  V30 51 H -5.154392 0.034404 -3.482957 0
M  V30 52 H -6.280704 -2.675505 -4.100649 0
M  V30 53 H -6.568776 0.167023 -5.476427 0
M  V30 54 H -7.617433 -1.355922 -5.871124 0
M  V30 55 H -4.620245 -1.131654 -6.342698 0
M  V30 56 H -5.620150 -2.687422 -6.526602 0
M  V30 57 H -4.105060 -6.173576 -3.611791 0
M  V30 58 H 3.502806 3.085667 1.645262 0
M  V30 59 H 3.783773 1.265874 1.217905 0
M  V30 60 H 2.213707 -1.233311 3.963044 0
M  V30 61 H 2.201303 0.114045 5.195130 0
M  V30 END ATOM
M  V30 BEGIN BOND
M  V30 1 1 1 2
M  V30 2 1 2 3
M  V30 3 1 3 4
M  V30 4 1 4 5
M  V30 5 1 5 6
M  V30 6 1 6 7
M  V30 7 1 7 8
M  V30 8 1 8 9
M  V30 9 1 9 10
M  V30 10 2 10 11
M  V30 11 1 11 12
M  V30 12 1 12 13
M  V30 13 3 13 14
M  V30 14 2 12 15
M  V30 15 1 15 16
M  V30 16 1 16 17
M  V30 17 1 17 18
M  V30 18 1 18 19
M  V30 19 2 19 20
M  V30 20 1 20 21
M  V30 21 1 21 22
M  V30 22 1 22 23
M  V30 23 1 23 24
M  V30 24 1 20 25
M  V30 25 2 25 26
M  V30 26 1 26 27
M  V30 27 2 27 28
M  V30 28 1 28 29
M  V30 29 3 29 30
M  V30 30 1 28 31
M  V30 31 1 31 32
M  V30 32 2 16 33
M  V30 33 1 33 34
M  V30 34 1 9 35
M  V30 35 1 6 36
M  V30 36 1 36 3
M  V30 37 1 35 7
M  V30 38 1 33 10
M  V30 39 2 32 18
M  V30 40 1 24 22
M  V30 41 1 31 25
M  V30 42 1 1 37
M  V30 43 1 1 38
M  V30 44 1 1 39
M  V30 45 1 3 40
M  V30 46 1 4 41
M  V30 47 1 4 42
M  V30 48 1 5 43
M  V30 49 1 5 44
M  V30 50 1 7 45
M  V30 51 1 8 46
M  V30 52 1 8 47
M  V30 53 1 11 48
M  V30 54 1 15 49
M  V30 55 1 17 50
M  V30 56 1 21 51
M  V30 57 1 22 52
M  V30 58 1 23 53
M  V30 59 1 23 54
M  V30 60 1 24 55
M  V30 61 1 24 56
M  V30 62 1 27 57
M  V30 63 1 35 58
M  V30 64 1 35 59
M  V30 65 1 36 60
M  V30 66 1 36 61
M  V30 END BOND
M  V30 END CTAB
M  END
>  <Dataset>  (445) 
ChEMBL_Kinases

>  <Ligand_Instance>  (445) 
nan

>  <PDB_ID>  (445) 
nan

>  <Standardized_SMILES>  (445) 
COC1CCN(C2CN(c3cc(C#N)cc(Nc4nc(NC5CC5)c5ncc(C#N)n5n4)c3Cl)C2)C1

>  <Name>  (445) 
nan

>  <Pocket>  (445) 
nan

>  <ATP_Site>  (445) 
nan

>  <Peripheral>  (445) 
nan

>  <Num_H_Atoms_ProtBoundConf>  (445) 
nan

>  <Num_Resolved_Atoms>  (445) 
nan

>  <Num_Not_Resolved_Atoms>  (445) 
nan

$$$$
CHEMBL3699252
     RDKit          3D

  0  0  0  0  0  0  0  0  0  0999 V3000
M  V30 BEGIN CTAB
M  V30 COUNTS 63 68 0 0 0
M  V30 BEGIN ATOM
M  V30 1 C 7.244804 0.972251 4.699369 0
M  V30 2 S 6.700909 2.237016 3.588518 0
M  V30 3 O 6.654001 3.569281 4.317118 0
M  V30 4 O 7.659769 2.348885 2.452150 0
M  V30 5 C 5.043512 1.919267 3.023340 0
M  V30 6 C 4.101637 1.818787 4.199718 0
M  V30 7 C 3.172122 3.005271 4.066735 0
M  V30 8 N 3.227894 3.395840 2.667277 0
M  V30 9 C 2.119863 2.894548 2.001722 0
M  V30 10 C 1.867767 1.421139 1.927492 0
M  V30 11 N 1.041866 1.748869 0.754191 0
M  V30 12 C -0.181959 1.079507 0.374302 0
M  V30 13 C -1.379936 1.762409 0.319463 0
M  V30 14 C -2.515583 1.050502 -0.050742 0
M  V30 15 C -3.798539 1.721587 -0.123505 0
M  V30 16 N -4.823179 2.255933 -0.191420 0
M  V30 17 C -2.405967 -0.303876 -0.348273 0
M  V30 18 C -1.214527 -0.988573 -0.295179 0
M  V30 19 N -1.222625 -2.374232 -0.626250 0
M  V30 20 C -2.383325 -3.105696 -0.995873 0
M  V30 21 N -2.814310 -3.189482 -2.265662 0
M  V30 22 C -3.888884 -3.861554 -2.663083 0
M  V30 23 N -4.279922 -3.903229 -4.017492 0
M  V30 24 C -5.435450 -4.616265 -4.523922 0
M  V30 25 C -5.723139 -4.582560 -5.972297 0
M  V30 26 C -5.135208 -5.844607 -5.364829 0
M  V30 27 C -4.589750 -4.509677 -1.669231 0
M  V30 28 N -5.690811 -5.269639 -1.657478 0
M  V30 29 C -5.958756 -5.664703 -0.400384 0
M  V30 30 C -4.994430 -5.140447 0.432311 0
M  V30 31 C -4.922074 -5.329162 1.853397 0
M  V30 32 N -4.856036 -5.499363 2.994206 0
M  V30 33 N -4.177654 -4.443186 -0.372811 0
M  V30 34 N -3.081821 -3.747460 -0.028863 0
M  V30 35 C -0.075243 -0.270941 0.077152 0
M  V30 36 Cl 1.411087 -1.183636 0.130141 0
M  V30 37 C 2.069834 2.778500 0.513645 0
M  V30 38 C 4.526331 3.069708 2.190208 0
M  V30 39 H 6.911744 -0.019215 4.278465 0
M  V30 40 H 6.821494 1.109843 5.727811 0
M  V30 41 H 8.361954 1.036846 4.763343 0
M  V30 42 H 5.021539 0.945302 2.497961 0
M  V30 43 H 3.538183 0.841232 4.210746 0
M  V30 44 H 4.624296 1.903728 5.166875 0
M  V30 45 H 3.422641 3.831899 4.762917 0
M  V30 46 H 2.148179 2.652304 4.316220 0
M  V30 47 H 1.172563 3.399111 2.348123 0
M  V30 48 H 2.677332 0.779476 1.565263 0
M  V30 49 H 1.330333 1.084670 2.812752 0
M  V30 50 H -1.435671 2.816415 0.555997 0
M  V30 51 H -3.332934 -0.805543 -0.631819 0
M  V30 52 H -0.297703 -2.898721 -0.594768 0
M  V30 53 H -3.701902 -3.385027 -4.717590 0
M  V30 54 H -6.330520 -4.653989 -3.852837 0
M  V30 55 H -5.017397 -3.975771 -6.576721 0
M  V30 56 H -6.763803 -4.588860 -6.295465 0
M  V30 57 H -4.045544 -6.033848 -5.577092 0
M  V30 58 H -5.795054 -6.714515 -5.205100 0
M  V30 59 H -6.800524 -6.284195 -0.161674 0
M  V30 60 H 2.990435 2.366123 0.067166 0
M  V30 61 H 1.706915 3.670215 -0.034507 0
M  V30 62 H 5.197313 3.945830 2.433482 0
M  V30 63 H 4.648400 2.823110 1.145582 0
M  V30 END ATOM
M  V30 BEGIN BOND
M  V30 1 1 1 2
M  V30 2 2 2 3
M  V30 3 2 2 4
M  V30 4 1 2 5
M  V30 5 1 5 6
M  V30 6 1 6 7
M  V30 7 1 7 8
M  V30 8 1 8 9
M  V30 9 1 9 10
M  V30 10 1 10 11
M  V30 11 1 11 12
M  V30 12 2 12 13
M  V30 13 1 13 14
M  V30 14 1 14 15
M  V30 15 3 15 16
M  V30 16 2 14 17
M  V30 17 1 17 18
M  V30 18 1 18 19
M  V30 19 1 19 20
M  V30 20 1 20 21
M  V30 21 2 21 22
M  V30 22 1 22 23
M  V30 23 1 23 24
M  V30 24 1 24 25
M  V30 25 1 25 26
M  V30 26 1 22 27
M  V30 27 2 27 28
M  V30 28 1 28 29
M  V30 29 2 29 30
M  V30 30 1 30 31
M  V30 31 3 31 32
M  V30 32 1 30 33
M  V30 33 1 33 34
M  V30 34 2 18 35
M  V30 35 1 35 36
M  V30 36 1 11 37
M  V30 37 1 8 38
M  V30 38 1 38 5
M  V30 39 1 37 9
M  V30 40 1 35 12
M  V30 41 2 34 20
M  V30 42 1 26 24
M  V30 43 1 33 27
M  V30 44 1 1 39
M  V30 45 1 1 40
M  V30 46 1 1 41
M  V30 47 1 5 42
M  V30 48 1 6 43
M  V30 49 1 6 44
M  V30 50 1 7 45
M  V30 51 1 7 46
M  V30 52 1 9 47
M  V30 53 1 10 48
M  V30 54 1 10 49
M  V30 55 1 13 50
M  V30 56 1 17 51
M  V30 57 1 19 52
M  V30 58 1 23 53
M  V30 59 1 24 54
M  V30 60 1 25 55
M  V30 61 1 25 56
M  V30 62 1 26 57
M  V30 63 1 26 58
M  V30 64 1 29 59
M  V30 65 1 37 60
M  V30 66 1 37 61
M  V30 67 1 38 62
M  V30 68 1 38 63
M  V30 END BOND
M  V30 END CTAB
M  END
>  <Dataset>  (446) 
ChEMBL_Kinases

>  <Ligand_Instance>  (446) 
nan

>  <PDB_ID>  (446) 
nan

>  <Standardized_SMILES>  (446) 
CS(=O)(=O)C1CCN(C2CN(c3cc(C#N)cc(Nc4nc(NC5CC5)c5ncc(C#N)n5n4)c3Cl)C2)C1

>  <Name>  (446) 
nan

>  <Pocket>  (446) 
nan

>  <ATP_Site>  (446) 
nan

>  <Peripheral>  (446) 
nan

>  <Num_H_Atoms_ProtBoundConf>  (446) 
nan

>  <Num_Resolved_Atoms>  (446) 
nan

>  <Num_Not_Resolved_Atoms>  (446) 
nan

$$$$
CHEMBL4475535
     RDKit          3D

  0  0  0  0  0  0  0  0  0  0999 V3000
M  V30 BEGIN CTAB
M  V30 COUNTS 42 44 0 0 0
M  V30 BEGIN ATOM
M  V30 1 O 2.312535 -0.518821 1.387673 0
M  V30 2 C 1.079048 -0.471138 1.710978 0
M  V30 3 N 0.695983 0.731761 2.360832 0
M  V30 4 C 1.508748 1.874847 2.690882 0
M  V30 5 C 1.814262 2.739266 1.526689 0
M  V30 6 C 0.946165 3.769245 1.166091 0
M  V30 7 C 1.179036 4.622492 0.082081 0
M  V30 8 C 2.322456 4.429245 -0.658861 0
M  V30 9 C 3.190752 3.419742 -0.319793 0
M  V30 10 O 4.339817 3.250764 -1.090586 0
M  V30 11 C 5.550594 3.942714 -0.745304 0
M  V30 12 F 5.903870 3.539727 0.529308 0
M  V30 13 F 5.345843 5.305755 -0.819078 0
M  V30 14 F 6.530417 3.557326 -1.638755 0
M  V30 15 C 2.951353 2.585925 0.749089 0
M  V30 16 C 0.180765 -1.582505 1.416028 0
M  V30 17 C -1.160195 -1.630246 1.734357 0
M  V30 18 C -1.957480 -2.712684 1.427897 0
M  V30 19 C -1.443861 -3.823337 0.775275 0
M  V30 20 C -2.285821 -4.967851 0.450924 0
M  V30 21 C -3.337335 -5.296218 1.283365 0
M  V30 22 C -4.151145 -6.379539 0.992701 0
M  V30 23 N -3.927359 -7.126731 -0.105959 0
M  V30 24 C -2.908888 -6.840676 -0.948835 0
M  V30 25 C -2.101479 -5.764520 -0.658621 0
M  V30 26 C -0.103602 -3.742148 0.472926 0
M  V30 27 C 0.716241 -2.674852 0.766322 0
M  V30 28 H -0.337431 0.745372 2.618537 0
M  V30 29 H 2.432021 1.585159 3.243194 0
M  V30 30 H 0.937108 2.512011 3.403080 0
M  V30 31 H 0.048752 3.884465 1.785549 0
M  V30 32 H 0.428219 5.392737 -0.103867 0
M  V30 33 H 2.488863 5.089450 -1.486740 0
M  V30 34 H 3.664552 1.813083 0.972739 0
M  V30 35 H -1.592940 -0.782417 2.242526 0
M  V30 36 H -3.014479 -2.675571 1.714240 0
M  V30 37 H -3.509892 -4.684518 2.170613 0
M  V30 38 H -4.961088 -6.591368 1.681264 0
M  V30 39 H -2.703675 -7.426378 -1.846534 0
M  V30 40 H -1.291292 -5.530944 -1.320426 0
M  V30 41 H 0.316646 -4.609683 -0.042007 0
M  V30 42 H 1.768807 -2.751487 0.461917 0
M  V30 END ATOM
M  V30 BEGIN BOND
M  V30 1 2 1 2
M  V30 2 1 2 3
M  V30 3 1 3 4
M  V30 4 1 4 5
M  V30 5 2 5 6
M  V30 6 1 6 7
M  V30 7 2 7 8
M  V30 8 1 8 9
M  V30 9 1 9 10
M  V30 10 1 10 11
M  V30 11 1 11 12
M  V30 12 1 11 13
M  V30 13 1 11 14
M  V30 14 2 9 15
M  V30 15 1 2 16
M  V30 16 2 16 17
M  V30 17 1 17 18
M  V30 18 2 18 19
M  V30 19 1 19 20
M  V30 20 2 20 21
M  V30 21 1 21 22
M  V30 22 2 22 23
M  V30 23 1 23 24
M  V30 24 2 24 25
M  V30 25 1 19 26
M  V30 26 2 26 27
M  V30 27 1 15 5
M  V30 28 1 27 16
M  V30 29 1 25 20
M  V30 30 1 3 28
M  V30 31 1 4 29
M  V30 32 1 4 30
M  V30 33 1 6 31
M  V30 34 1 7 32
M  V30 35 1 8 33
M  V30 36 1 15 34
M  V30 37 1 17 35
M  V30 38 1 18 36
M  V30 39 1 21 37
M  V30 40 1 22 38
M  V30 41 1 24 39
M  V30 42 1 25 40
M  V30 43 1 26 41
M  V30 44 1 27 42
M  V30 END BOND
M  V30 END CTAB
M  END
>  <Dataset>  (447) 
ChEMBL_Kinases

>  <Ligand_Instance>  (447) 
nan

>  <PDB_ID>  (447) 
nan

>  <Standardized_SMILES>  (447) 
O=C(NCc1cccc(OC(F)(F)F)c1)c1ccc(-c2ccncc2)cc1

>  <Name>  (447) 
nan

>  <Pocket>  (447) 
nan

>  <ATP_Site>  (447) 
nan

>  <Peripheral>  (447) 
nan

>  <Num_H_Atoms_ProtBoundConf>  (447) 
nan

>  <Num_Resolved_Atoms>  (447) 
nan

>  <Num_Not_Resolved_Atoms>  (447) 
nan

$$$$
CHEMBL2348154
     RDKit          3D

  0  0  0  0  0  0  0  0  0  0999 V3000
M  V30 BEGIN CTAB
M  V30 COUNTS 34 37 0 0 0
M  V30 BEGIN ATOM
M  V30 1 N -0.360714 -4.961191 3.660226 0
M  V30 2 C 0.262499 -4.504381 2.452081 0
M  V30 3 N 1.074016 -5.306882 1.719877 0
M  V30 4 C 1.634103 -4.842619 0.601797 0
M  V30 5 C 1.418019 -3.543535 0.143542 0
M  V30 6 C 0.589930 -2.731607 0.894888 0
M  V30 7 N 0.250689 -1.379482 0.589119 0
M  V30 8 C 1.072566 -0.389830 0.188480 0
M  V30 9 C 0.309784 0.746799 0.010366 0
M  V30 10 C 0.684248 2.067327 -0.404879 0
M  V30 11 C 0.733985 2.568597 -1.683492 0
M  V30 12 C 1.109741 3.862255 -1.981986 0
M  V30 13 C 1.447107 4.661899 -0.891426 0
M  V30 14 N 1.405630 4.192543 0.367588 0
M  V30 15 C 1.033206 2.912824 0.654165 0
M  V30 16 Cl 1.029247 2.445426 2.361096 0
M  V30 17 C -1.001548 0.409874 0.317217 0
M  V30 18 C -2.189070 1.119393 0.323586 0
M  V30 19 N -3.366990 0.549003 0.670866 0
M  V30 20 C -3.402655 -0.757720 1.026435 0
M  V30 21 C -2.226447 -1.483702 1.026341 0
M  V30 22 C -1.015279 -0.922186 0.675942 0
M  V30 23 N 0.035265 -3.243421 2.033468 0
M  V30 24 H -1.408776 -5.029669 3.751111 0
M  V30 25 H 0.124538 -5.264481 4.547317 0
M  V30 26 H 2.285014 -5.441003 -0.012777 0
M  V30 27 H 1.842525 -3.110432 -0.752750 0
M  V30 28 H 2.144197 -0.456640 0.029275 0
M  V30 29 H 0.454280 1.872534 -2.463521 0
M  V30 30 H 1.136760 4.220881 -3.000667 0
M  V30 31 H 1.750558 5.682189 -1.040696 0
M  V30 32 H -2.206617 2.172204 0.044751 0
M  V30 33 H -4.370218 -1.129122 1.285707 0
M  V30 34 H -2.281199 -2.529328 1.315194 0
M  V30 END ATOM
M  V30 BEGIN BOND
M  V30 1 1 1 2
M  V30 2 2 2 3
M  V30 3 1 3 4
M  V30 4 2 4 5
M  V30 5 1 5 6
M  V30 6 1 6 7
M  V30 7 1 7 8
M  V30 8 2 8 9
M  V30 9 1 9 10
M  V30 10 2 10 11
M  V30 11 1 11 12
M  V30 12 2 12 13
M  V30 13 1 13 14
M  V30 14 2 14 15
M  V30 15 1 15 16
M  V30 16 1 9 17
M  V30 17 2 17 18
M  V30 18 1 18 19
M  V30 19 2 19 20
M  V30 20 1 20 21
M  V30 21 2 21 22
M  V30 22 2 6 23
M  V30 23 1 23 2
M  V30 24 1 22 7
M  V30 25 1 15 10
M  V30 26 1 22 17
M  V30 27 1 1 24
M  V30 28 1 1 25
M  V30 29 1 4 26
M  V30 30 1 5 27
M  V30 31 1 8 28
M  V30 32 1 11 29
M  V30 33 1 12 30
M  V30 34 1 13 31
M  V30 35 1 18 32
M  V30 36 1 20 33
M  V30 37 1 21 34
M  V30 END BOND
M  V30 END CTAB
M  END
>  <Dataset>  (448) 
ChEMBL_Kinases

>  <Ligand_Instance>  (448) 
nan

>  <PDB_ID>  (448) 
nan

>  <Standardized_SMILES>  (448) 
Nc1nccc(-n2cc(-c3cccnc3Cl)c3cnccc32)n1

>  <Name>  (448) 
nan

>  <Pocket>  (448) 
nan

>  <ATP_Site>  (448) 
nan

>  <Peripheral>  (448) 
nan

>  <Num_H_Atoms_ProtBoundConf>  (448) 
nan

>  <Num_Resolved_Atoms>  (448) 
nan

>  <Num_Not_Resolved_Atoms>  (448) 
nan

$$$$
CHEMBL2348155
     RDKit          3D

  0  0  0  0  0  0  0  0  0  0999 V3000
M  V30 BEGIN CTAB
M  V30 COUNTS 35 38 0 0 0
M  V30 BEGIN ATOM
M  V30 1 N 0.135528 -5.277770 3.596934 0
M  V30 2 C 0.783613 -4.644090 2.491144 0
M  V30 3 N 1.797920 -5.204200 1.771620 0
M  V30 4 C 2.359175 -4.546741 0.743171 0
M  V30 5 C 1.899699 -3.298932 0.421411 0
M  V30 6 C 0.864138 -2.688711 1.131010 0
M  V30 7 N 0.370667 -1.391004 0.813084 0
M  V30 8 C 0.980742 -0.379666 0.177205 0
M  V30 9 C 0.136352 0.723146 0.072867 0
M  V30 10 C 0.412476 2.016508 -0.543646 0
M  V30 11 C -0.526766 2.590465 -1.370400 0
M  V30 12 C -0.297026 3.826874 -1.977602 0
M  V30 13 C 0.884521 4.501606 -1.758720 0
M  V30 14 Cl 1.156610 6.052602 -2.528808 0
M  V30 15 C 1.821142 3.919686 -0.928649 0
M  V30 16 C 1.599730 2.682293 -0.316531 0
M  V30 17 C -1.013597 0.283565 0.694489 0
M  V30 18 C -2.227256 0.895881 0.927185 0
M  V30 19 N -3.266561 0.321250 1.558759 0
M  V30 20 C -3.152774 -0.942508 2.011485 0
M  V30 21 C -1.953701 -1.588232 1.797622 0
M  V30 22 C -0.876893 -1.009956 1.149981 0
M  V30 23 N 0.378448 -3.418807 2.125994 0
M  V30 24 H 0.245701 -5.124031 4.630881 0
M  V30 25 H -0.515314 -5.972102 3.168578 0
M  V30 26 H 3.164757 -5.034496 0.199666 0
M  V30 27 H 2.352652 -2.768077 -0.408754 0
M  V30 28 H 2.012692 -0.435265 -0.203584 0
M  V30 29 H -1.480941 2.143468 -1.604711 0
M  V30 30 H -1.035697 4.298827 -2.639897 0
M  V30 31 H 2.727147 4.488566 -0.791087 0
M  V30 32 H 2.373943 2.263535 0.333008 0
M  V30 33 H -2.398869 1.899481 0.599357 0
M  V30 34 H -3.957182 -1.452257 2.525880 0
M  V30 35 H -1.860914 -2.602360 2.160347 0
M  V30 END ATOM
M  V30 BEGIN BOND
M  V30 1 1 1 2
M  V30 2 2 2 3
M  V30 3 1 3 4
M  V30 4 2 4 5
M  V30 5 1 5 6
M  V30 6 1 6 7
M  V30 7 1 7 8
M  V30 8 2 8 9
M  V30 9 1 9 10
M  V30 10 2 10 11
M  V30 11 1 11 12
M  V30 12 2 12 13
M  V30 13 1 13 14
M  V30 14 1 13 15
M  V30 15 2 15 16
M  V30 16 1 9 17
M  V30 17 2 17 18
M  V30 18 1 18 19
M  V30 19 2 19 20
M  V30 20 1 20 21
M  V30 21 2 21 22
M  V30 22 2 6 23
M  V30 23 1 23 2
M  V30 24 1 22 7
M  V30 25 1 16 10
M  V30 26 1 22 17
M  V30 27 1 1 24
M  V30 28 1 1 25
M  V30 29 1 4 26
M  V30 30 1 5 27
M  V30 31 1 8 28
M  V30 32 1 11 29
M  V30 33 1 12 30
M  V30 34 1 15 31
M  V30 35 1 16 32
M  V30 36 1 18 33
M  V30 37 1 20 34
M  V30 38 1 21 35
M  V30 END BOND
M  V30 END CTAB
M  END
>  <Dataset>  (449) 
ChEMBL_Kinases

>  <Ligand_Instance>  (449) 
nan

>  <PDB_ID>  (449) 
nan

>  <Standardized_SMILES>  (449) 
Nc1nccc(-n2cc(-c3ccc(Cl)cc3)c3cnccc32)n1

>  <Name>  (449) 
nan

>  <Pocket>  (449) 
nan

>  <ATP_Site>  (449) 
nan

>  <Peripheral>  (449) 
nan

>  <Num_H_Atoms_ProtBoundConf>  (449) 
nan

>  <Num_Resolved_Atoms>  (449) 
nan

>  <Num_Not_Resolved_Atoms>  (449) 
nan

$$$$
CHEMBL2348156
     RDKit          3D

  0  0  0  0  0  0  0  0  0  0999 V3000
M  V30 BEGIN CTAB
M  V30 COUNTS 35 38 0 0 0
M  V30 BEGIN ATOM
M  V30 1 N 0.154113 -5.334315 3.532646 0
M  V30 2 C 0.849585 -4.640655 2.502371 0
M  V30 3 N 1.923506 -5.112100 1.839745 0
M  V30 4 C 2.539940 -4.407238 0.872381 0
M  V30 5 C 2.053153 -3.139433 0.538399 0
M  V30 6 C 0.952976 -2.657578 1.217893 0
M  V30 7 N 0.437421 -1.368767 0.896601 0
M  V30 8 C 0.953085 -0.494510 0.037568 0
M  V30 9 C 0.190842 0.662682 -0.029151 0
M  V30 10 C 0.295553 1.895459 -0.779348 0
M  V30 11 C -0.350342 1.895069 -2.017924 0
M  V30 12 C -0.337620 3.003853 -2.848909 0
M  V30 13 C 0.333684 4.142943 -2.440058 0
M  V30 14 C 0.974703 4.152338 -1.217774 0
M  V30 15 C 0.955638 3.042852 -0.398418 0
M  V30 16 Cl 1.747403 2.990698 1.160500 0
M  V30 17 C -0.846852 0.447266 0.857119 0
M  V30 18 C -1.943967 1.201519 1.258320 0
M  V30 19 N -2.846883 0.771167 2.162015 0
M  V30 20 C -2.690791 -0.448319 2.711772 0
M  V30 21 C -1.600002 -1.231624 2.331111 0
M  V30 22 C -0.672683 -0.806865 1.412388 0
M  V30 23 N 0.395463 -3.419014 2.167384 0
M  V30 24 H 0.422961 -5.646347 4.480281 0
M  V30 25 H -0.844401 -5.609051 3.338861 0
M  V30 26 H 3.395139 -4.869846 0.397168 0
M  V30 27 H 2.560963 -2.592099 -0.238444 0
M  V30 28 H 1.844635 -0.595729 -0.567681 0
M  V30 29 H -0.899141 1.051091 -2.419477 0
M  V30 30 H -0.836756 3.009455 -3.810627 0
M  V30 31 H 0.331840 4.994624 -3.100643 0
M  V30 32 H 1.499067 5.033821 -0.892032 0
M  V30 33 H -2.098337 2.186331 0.835340 0
M  V30 34 H -3.412402 -0.794778 3.435383 0
M  V30 35 H -1.537329 -2.184355 2.804531 0
M  V30 END ATOM
M  V30 BEGIN BOND
M  V30 1 1 1 2
M  V30 2 2 2 3
M  V30 3 1 3 4
M  V30 4 2 4 5
M  V30 5 1 5 6
M  V30 6 1 6 7
M  V30 7 1 7 8
M  V30 8 2 8 9
M  V30 9 1 9 10
M  V30 10 2 10 11
M  V30 11 1 11 12
M  V30 12 2 12 13
M  V30 13 1 13 14
M  V30 14 2 14 15
M  V30 15 1 15 16
M  V30 16 1 9 17
M  V30 17 2 17 18
M  V30 18 1 18 19
M  V30 19 2 19 20
M  V30 20 1 20 21
M  V30 21 2 21 22
M  V30 22 2 6 23
M  V30 23 1 23 2
M  V30 24 1 22 7
M  V30 25 1 15 10
M  V30 26 1 22 17
M  V30 27 1 1 24
M  V30 28 1 1 25
M  V30 29 1 4 26
M  V30 30 1 5 27
M  V30 31 1 8 28
M  V30 32 1 11 29
M  V30 33 1 12 30
M  V30 34 1 13 31
M  V30 35 1 14 32
M  V30 36 1 18 33
M  V30 37 1 20 34
M  V30 38 1 21 35
M  V30 END BOND
M  V30 END CTAB
M  END
>  <Dataset>  (450) 
ChEMBL_Kinases

>  <Ligand_Instance>  (450) 
nan

>  <PDB_ID>  (450) 
nan

>  <Standardized_SMILES>  (450) 
Nc1nccc(-n2cc(-c3ccccc3Cl)c3cnccc32)n1

>  <Name>  (450) 
nan

>  <Pocket>  (450) 
nan

>  <ATP_Site>  (450) 
nan

>  <Peripheral>  (450) 
nan

>  <Num_H_Atoms_ProtBoundConf>  (450) 
nan

>  <Num_Resolved_Atoms>  (450) 
nan

>  <Num_Not_Resolved_Atoms>  (450) 
nan

$$$$
CHEMBL2348158
     RDKit          3D

  0  0  0  0  0  0  0  0  0  0999 V3000
M  V30 BEGIN CTAB
M  V30 COUNTS 37 40 0 0 0
M  V30 BEGIN ATOM
M  V30 1 N 2.597052 -4.923763 3.597648 0
M  V30 2 C 1.375314 -4.365187 3.130614 0
M  V30 3 N 0.207226 -4.918352 3.559392 0
M  V30 4 C -0.976886 -4.400918 3.126042 0
M  V30 5 C -0.967649 -3.326780 2.261424 0
M  V30 6 C 0.221319 -2.773065 1.832500 0
M  V30 7 N 0.312073 -1.650143 0.929954 0
M  V30 8 C -0.407452 -0.530457 1.004436 0
M  V30 9 C -0.000257 0.260135 -0.043772 0
M  V30 10 C -0.565027 1.575935 -0.291787 0
M  V30 11 C -1.514496 1.995899 0.564312 0
M  V30 12 C -2.173379 3.344169 0.407947 0
M  V30 13 O -1.150162 4.285343 0.424556 0
M  V30 14 C -0.177523 4.010274 -0.501012 0
M  V30 15 C -0.443430 2.696400 -1.237191 0
M  V30 16 C 0.966291 -0.464403 -0.694446 0
M  V30 17 C 1.706418 -0.158317 -1.799974 0
M  V30 18 N 2.604887 -1.027027 -2.266230 0
M  V30 19 C 2.815748 -2.215319 -1.680555 0
M  V30 20 C 2.102457 -2.595623 -0.554835 0
M  V30 21 C 1.181329 -1.677717 -0.096037 0
M  V30 22 N 1.379050 -3.317250 2.287015 0
M  V30 23 H 2.642363 -5.928410 3.298721 0
M  V30 24 H 3.433228 -4.582375 4.149827 0
M  V30 25 H -1.947828 -4.785841 3.422195 0
M  V30 26 H -1.900315 -2.881129 1.889427 0
M  V30 27 H -1.140886 -0.409299 1.800924 0
M  V30 28 H -1.885066 1.410836 1.428470 0
M  V30 29 H -2.793674 3.552694 1.320263 0
M  V30 30 H -2.842334 3.399188 -0.449560 0
M  V30 31 H 0.783994 3.874362 0.063302 0
M  V30 32 H -0.089784 4.850183 -1.212916 0
M  V30 33 H -1.423994 2.857870 -1.769091 0
M  V30 34 H 0.295376 2.567558 -2.043476 0
M  V30 35 H 1.605720 0.758942 -2.326411 0
M  V30 36 H 3.549454 -2.919495 -2.065030 0
M  V30 37 H 2.218492 -3.545343 -0.023675 0
M  V30 END ATOM
M  V30 BEGIN BOND
M  V30 1 1 1 2
M  V30 2 2 2 3
M  V30 3 1 3 4
M  V30 4 2 4 5
M  V30 5 1 5 6
M  V30 6 1 6 7
M  V30 7 1 7 8
M  V30 8 2 8 9
M  V30 9 1 9 10
M  V30 10 2 10 11
M  V30 11 1 11 12
M  V30 12 1 12 13
M  V30 13 1 13 14
M  V30 14 1 14 15
M  V30 15 1 9 16
M  V30 16 2 16 17
M  V30 17 1 17 18
M  V30 18 2 18 19
M  V30 19 1 19 20
M  V30 20 2 20 21
M  V30 21 2 6 22
M  V30 22 1 22 2
M  V30 23 1 21 7
M  V30 24 1 15 10
M  V30 25 1 21 16
M  V30 26 1 1 23
M  V30 27 1 1 24
M  V30 28 1 4 25
M  V30 29 1 5 26
M  V30 30 1 8 27
M  V30 31 1 11 28
M  V30 32 1 12 29
M  V30 33 1 12 30
M  V30 34 1 14 31
M  V30 35 1 14 32
M  V30 36 1 15 33
M  V30 37 1 15 34
M  V30 38 1 17 35
M  V30 39 1 19 36
M  V30 40 1 20 37
M  V30 END BOND
M  V30 END CTAB
M  END
>  <Dataset>  (451) 
ChEMBL_Kinases

>  <Ligand_Instance>  (451) 
nan

>  <PDB_ID>  (451) 
nan

>  <Standardized_SMILES>  (451) 
Nc1nccc(-n2cc(C3=CCOCC3)c3cnccc32)n1

>  <Name>  (451) 
nan

>  <Pocket>  (451) 
nan

>  <ATP_Site>  (451) 
nan

>  <Peripheral>  (451) 
nan

>  <Num_H_Atoms_ProtBoundConf>  (451) 
nan

>  <Num_Resolved_Atoms>  (451) 
nan

>  <Num_Not_Resolved_Atoms>  (451) 
nan

$$$$
CHEMBL2348159
     RDKit          3D

  0  0  0  0  0  0  0  0  0  0999 V3000
M  V30 BEGIN CTAB
M  V30 COUNTS 32 35 0 0 0
M  V30 BEGIN ATOM
M  V30 1 N -2.203213 -2.586507 5.126030 0
M  V30 2 C -1.189574 -2.726583 4.124644 0
M  V30 3 N -0.317397 -3.762878 4.274656 0
M  V30 4 C 0.625033 -3.862193 3.309445 0
M  V30 5 C 0.720901 -2.994281 2.241309 0
M  V30 6 C -0.195942 -1.948385 2.131638 0
M  V30 7 N -0.083777 -1.061050 1.023440 0
M  V30 8 C 1.068489 -0.383686 0.753136 0
M  V30 9 C 0.857276 0.386343 -0.375086 0
M  V30 10 C 1.775424 1.287213 -1.066095 0
M  V30 11 C 3.092288 1.540282 -0.688618 0
M  V30 12 C 3.676841 2.439049 -1.556877 0
M  V30 13 N 2.709646 2.717414 -2.445578 0
M  V30 14 N 1.604783 2.055849 -2.170590 0
M  V30 15 C -0.438166 0.175842 -0.796982 0
M  V30 16 C -1.222643 0.654208 -1.850437 0
M  V30 17 N -2.480966 0.232249 -1.973778 0
M  V30 18 C -3.051846 -0.643942 -1.127820 0
M  V30 19 C -2.302589 -1.129242 -0.084237 0
M  V30 20 C -0.992970 -0.728872 0.095222 0
M  V30 21 N -1.138546 -1.858050 3.106964 0
M  V30 22 H -2.241379 -1.688361 5.647064 0
M  V30 23 H -2.938267 -3.218315 5.455198 0
M  V30 24 H 1.354308 -4.676931 3.377704 0
M  V30 25 H 1.484613 -3.090805 1.476856 0
M  V30 26 H 1.995300 -0.407764 1.285048 0
M  V30 27 H 3.650176 1.129298 0.153815 0
M  V30 28 H 4.681590 2.838405 -1.540544 0
M  V30 29 H 2.775292 3.368280 -3.267423 0
M  V30 30 H -0.718693 1.354270 -2.500524 0
M  V30 31 H -4.096060 -0.920706 -1.326851 0
M  V30 32 H -2.762045 -1.834449 0.596649 0
M  V30 END ATOM
M  V30 BEGIN BOND
M  V30 1 1 1 2
M  V30 2 2 2 3
M  V30 3 1 3 4
M  V30 4 2 4 5
M  V30 5 1 5 6
M  V30 6 1 6 7
M  V30 7 1 7 8
M  V30 8 2 8 9
M  V30 9 1 9 10
M  V30 10 1 10 11
M  V30 11 2 11 12
M  V30 12 1 12 13
M  V30 13 1 13 14
M  V30 14 1 9 15
M  V30 15 2 15 16
M  V30 16 1 16 17
M  V30 17 2 17 18
M  V30 18 1 18 19
M  V30 19 2 19 20
M  V30 20 2 6 21
M  V30 21 1 21 2
M  V30 22 1 20 7
M  V30 23 2 14 10
M  V30 24 1 20 15
M  V30 25 1 1 22
M  V30 26 1 1 23
M  V30 27 1 4 24
M  V30 28 1 5 25
M  V30 29 1 8 26
M  V30 30 1 11 27
M  V30 31 1 12 28
M  V30 32 1 13 29
M  V30 33 1 16 30
M  V30 34 1 18 31
M  V30 35 1 19 32
M  V30 END BOND
M  V30 END CTAB
M  END
>  <Dataset>  (452) 
ChEMBL_Kinases

>  <Ligand_Instance>  (452) 
nan

>  <PDB_ID>  (452) 
nan

>  <Standardized_SMILES>  (452) 
Nc1nccc(-n2cc(-c3cc[nH]n3)c3cnccc32)n1

>  <Name>  (452) 
nan

>  <Pocket>  (452) 
nan

>  <ATP_Site>  (452) 
nan

>  <Peripheral>  (452) 
nan

>  <Num_H_Atoms_ProtBoundConf>  (452) 
nan

>  <Num_Resolved_Atoms>  (452) 
nan

>  <Num_Not_Resolved_Atoms>  (452) 
nan

$$$$
CHEMBL447567
     RDKit          3D

  0  0  0  0  0  0  0  0  0  0999 V3000
M  V30 BEGIN CTAB
M  V30 COUNTS 24 25 0 0 0
M  V30 BEGIN ATOM
M  V30 1 O -0.927434 -3.652774 4.296309 0
M  V30 2 C -0.317824 -3.469783 3.198354 0
M  V30 3 N -0.057176 -4.412323 2.130014 0
M  V30 4 C 0.377227 -3.888732 0.904672 0
M  V30 5 O 0.633167 -4.613506 -0.096812 0
M  V30 6 C 0.500311 -2.408838 0.909524 0
M  V30 7 C 0.647330 -1.657901 -0.142424 0
M  V30 8 C 0.766140 -0.218673 -0.047671 0
M  V30 9 C -0.173804 0.409146 0.762762 0
M  V30 10 C -0.151459 1.761075 0.956731 0
M  V30 11 C 0.812833 2.558191 0.350274 0
M  V30 12 C 0.835431 4.043281 0.579730 0
M  V30 13 F -0.449102 4.505508 0.331887 0
M  V30 14 F 1.120014 4.321705 1.897507 0
M  V30 15 F 1.770892 4.607296 -0.273204 0
M  V30 16 C 1.727482 1.949105 -0.439417 0
M  V30 17 C 1.723382 0.587400 -0.648819 0
M  V30 18 S 0.426037 -1.908946 2.651513 0
M  V30 19 H -0.207403 -5.445437 2.332860 0
M  V30 20 H 0.695194 -2.100046 -1.143690 0
M  V30 21 H -0.954247 -0.138293 1.266205 0
M  V30 22 H -0.880231 2.241181 1.583800 0
M  V30 23 H 2.502059 2.492463 -0.936882 0
M  V30 24 H 2.433321 0.030645 -1.269210 0
M  V30 END ATOM
M  V30 BEGIN BOND
M  V30 1 2 1 2
M  V30 2 1 2 3
M  V30 3 1 3 4
M  V30 4 2 4 5
M  V30 5 1 4 6
M  V30 6 2 6 7
M  V30 7 1 7 8
M  V30 8 2 8 9
M  V30 9 1 9 10
M  V30 10 2 10 11
M  V30 11 1 11 12
M  V30 12 1 12 13
M  V30 13 1 12 14
M  V30 14 1 12 15
M  V30 15 1 11 16
M  V30 16 2 16 17
M  V30 17 1 6 18
M  V30 18 1 18 2
M  V30 19 1 17 8
M  V30 20 1 3 19
M  V30 21 1 7 20
M  V30 22 1 9 21
M  V30 23 1 10 22
M  V30 24 1 16 23
M  V30 25 1 17 24
M  V30 END BOND
M  V30 END CTAB
M  END
>  <Dataset>  (453) 
ChEMBL_Kinases

>  <Ligand_Instance>  (453) 
nan

>  <PDB_ID>  (453) 
nan

>  <Standardized_SMILES>  (453) 
O=C1NC(=O)/C(=C/c2ccc(C(F)(F)F)cc2)S1

>  <Name>  (453) 
nan

>  <Pocket>  (453) 
nan

>  <ATP_Site>  (453) 
nan

>  <Peripheral>  (453) 
nan

>  <Num_H_Atoms_ProtBoundConf>  (453) 
nan

>  <Num_Resolved_Atoms>  (453) 
nan

>  <Num_Not_Resolved_Atoms>  (453) 
nan

$$$$
CHEMBL3699243
     RDKit          3D

  0  0  0  0  0  0  0  0  0  0999 V3000
M  V30 BEGIN CTAB
M  V30 COUNTS 62 66 0 0 0
M  V30 BEGIN ATOM
M  V30 1 C 2.234423 2.266572 6.530315 0
M  V30 2 C 1.899638 1.066303 5.671953 0
M  V30 3 C 2.402442 -0.230578 6.297697 0
M  V30 4 N 0.498604 0.915305 5.446646 0
M  V30 5 C -0.151919 2.001895 4.789545 0
M  V30 6 C -1.603346 1.708559 4.634506 0
M  V30 7 C -1.988819 0.965335 3.399214 0
M  V30 8 N -1.236987 1.400260 2.247267 0
M  V30 9 C -1.220946 0.722647 1.000118 0
M  V30 10 C -1.703635 1.456460 -0.062136 0
M  V30 11 C -1.724469 0.865719 -1.307815 0
M  V30 12 C -2.223045 1.611396 -2.427757 0
M  V30 13 N -2.614316 2.215016 -3.351097 0
M  V30 14 C -1.260398 -0.426048 -1.417042 0
M  V30 15 C -0.770803 -1.193151 -0.383612 0
M  V30 16 N -0.298493 -2.522300 -0.518364 0
M  V30 17 C -0.225757 -3.324506 -1.682891 0
M  V30 18 N -0.597777 -2.966733 -2.915730 0
M  V30 19 C -0.527912 -3.729563 -4.013309 0
M  V30 20 N -0.953361 -3.243363 -5.273606 0
M  V30 21 C -1.483694 -1.940475 -5.518394 0
M  V30 22 C -0.751668 -0.683172 -5.264573 0
M  V30 23 C -0.810274 -1.236389 -6.692004 0
M  V30 24 C -0.032930 -4.995451 -3.882314 0
M  V30 25 N 0.185412 -6.023475 -4.721099 0
M  V30 26 C 0.700023 -7.030881 -3.994182 0
M  V30 27 C 0.808395 -6.629302 -2.669014 0
M  V30 28 C 1.316532 -7.442660 -1.602205 0
M  V30 29 N 1.719540 -8.089507 -0.725530 0
M  V30 30 N 0.341166 -5.357989 -2.647994 0
M  V30 31 N 0.255064 -4.573915 -1.593317 0
M  V30 32 C -0.771643 -0.561682 0.829321 0
M  V30 33 Cl -0.172515 -1.415062 2.234681 0
M  V30 34 C -0.449466 2.604541 2.375632 0
M  V30 35 C 0.533007 2.363530 3.498300 0
M  V30 36 H 2.518060 3.156714 5.930350 0
M  V30 37 H 1.308659 2.540794 7.086672 0
M  V30 38 H 3.094383 2.073910 7.206028 0
M  V30 39 H 2.427925 1.192002 4.727189 0
M  V30 40 H 3.375208 -0.542343 5.842185 0
M  V30 41 H 2.575790 -0.024173 7.390378 0
M  V30 42 H 1.696401 -1.062709 6.128416 0
M  V30 43 H -0.033346 0.481457 6.204176 0
M  V30 44 H -0.067135 2.892737 5.466574 0
M  V30 45 H -2.226008 2.627221 4.802495 0
M  V30 46 H -1.889955 1.040535 5.498041 0
M  V30 47 H -3.081834 1.201648 3.225528 0
M  V30 48 H -1.951696 -0.128124 3.504209 0
M  V30 49 H -2.064714 2.473134 0.044455 0
M  V30 50 H -1.308153 -0.817633 -2.417385 0
M  V30 51 H 0.045197 -2.969655 0.378806 0
M  V30 52 H -0.888585 -3.858378 -6.112439 0
M  V30 53 H -2.597442 -1.881234 -5.497342 0
M  V30 54 H 0.253677 -0.660509 -4.824507 0
M  V30 55 H -1.343400 0.224361 -5.076986 0
M  V30 56 H -1.487698 -0.720739 -7.420471 0
M  V30 57 H 0.107745 -1.667366 -7.126367 0
M  V30 58 H 0.998377 -8.026252 -4.358807 0
M  V30 59 H 0.125142 2.816452 1.463615 0
M  V30 60 H -1.072667 3.496181 2.591602 0
M  V30 61 H 1.189649 3.251458 3.579550 0
M  V30 62 H 1.175166 1.520942 3.156533 0
M  V30 END ATOM
M  V30 BEGIN BOND
M  V30 1 1 1 2
M  V30 2 1 2 3
M  V30 3 1 2 4
M  V30 4 1 4 5
M  V30 5 1 5 6
M  V30 6 1 6 7
M  V30 7 1 7 8
M  V30 8 1 8 9
M  V30 9 2 9 10
M  V30 10 1 10 11
M  V30 11 1 11 12
M  V30 12 3 12 13
M  V30 13 2 11 14
M  V30 14 1 14 15
M  V30 15 1 15 16
M  V30 16 1 16 17
M  V30 17 1 17 18
M  V30 18 2 18 19
M  V30 19 1 19 20
M  V30 20 1 20 21
M  V30 21 1 21 22
M  V30 22 1 22 23
M  V30 23 1 19 24
M  V30 24 2 24 25
M  V30 25 1 25 26
M  V30 26 2 26 27
M  V30 27 1 27 28
M  V30 28 3 28 29
M  V30 29 1 27 30
M  V30 30 1 30 31
M  V30 31 2 15 32
M  V30 32 1 32 33
M  V30 33 1 8 34
M  V30 34 1 34 35
M  V30 35 1 35 5
M  V30 36 1 32 9
M  V30 37 2 31 17
M  V30 38 1 23 21
M  V30 39 1 30 24
M  V30 40 1 1 36
M  V30 41 1 1 37
M  V30 42 1 1 38
M  V30 43 1 2 39
M  V30 44 1 3 40
M  V30 45 1 3 41
M  V30 46 1 3 42
M  V30 47 1 4 43
M  V30 48 1 5 44
M  V30 49 1 6 45
M  V30 50 1 6 46
M  V30 51 1 7 47
M  V30 52 1 7 48
M  V30 53 1 10 49
M  V30 54 1 14 50
M  V30 55 1 16 51
M  V30 56 1 20 52
M  V30 57 1 21 53
M  V30 58 1 22 54
M  V30 59 1 22 55
M  V30 60 1 23 56
M  V30 61 1 23 57
M  V30 62 1 26 58
M  V30 63 1 34 59
M  V30 64 1 34 60
M  V30 65 1 35 61
M  V30 66 1 35 62
M  V30 END BOND
M  V30 END CTAB
M  END
>  <Dataset>  (454) 
ChEMBL_Kinases

>  <Ligand_Instance>  (454) 
nan

>  <PDB_ID>  (454) 
nan

>  <Standardized_SMILES>  (454) 
CC(C)NC1CCN(c2cc(C#N)cc(Nc3nc(NC4CC4)c4ncc(C#N)n4n3)c2Cl)CC1

>  <Name>  (454) 
nan

>  <Pocket>  (454) 
nan

>  <ATP_Site>  (454) 
nan

>  <Peripheral>  (454) 
nan

>  <Num_H_Atoms_ProtBoundConf>  (454) 
nan

>  <Num_Resolved_Atoms>  (454) 
nan

>  <Num_Not_Resolved_Atoms>  (454) 
nan

$$$$
CHEMBL3699242
     RDKit          3D

  0  0  0  0  0  0  0  0  0  0999 V3000
M  V30 BEGIN CTAB
M  V30 COUNTS 63 68 0 0 0
M  V30 BEGIN ATOM
M  V30 1 C 0.478710 2.656291 7.714233 0 CHG=-1 VAL=3
M  V30 2 N 1.329479 2.465185 6.944640 0 CHG=1 VAL=4
M  V30 3 C 2.349006 2.250490 6.008720 0
M  V30 4 C 3.659735 2.067196 6.407806 0
M  V30 5 N 4.361983 1.889619 5.250114 0
M  V30 6 C 3.512953 1.963511 4.213012 0
M  V30 7 C 3.644319 1.863318 2.846106 0
M  V30 8 N 4.905433 1.628833 2.239447 0
M  V30 9 C 6.184657 1.455489 2.839996 0
M  V30 10 C 6.402720 0.327716 3.794372 0
M  V30 11 C 6.909954 0.168195 2.414825 0
M  V30 12 N 2.560333 1.986272 2.030558 0
M  V30 13 C 1.333410 2.207654 2.516222 0
M  V30 14 N 0.297680 2.305991 1.545782 0
M  V30 15 C -0.443990 1.129481 1.252237 0
M  V30 16 C -0.199188 -0.076009 1.909966 0
M  V30 17 C -0.878786 -1.256856 1.691052 0
M  V30 18 C -0.543321 -2.443311 2.429569 0
M  V30 19 N -0.259664 -3.413545 3.019165 0
M  V30 20 C -1.893144 -1.245114 0.734739 0
M  V30 21 C -2.181785 -0.075760 0.048526 0
M  V30 22 N -3.228954 -0.120234 -0.919848 0
M  V30 23 C -2.857501 0.211774 -2.283826 0
M  V30 24 C -3.030663 -0.976084 -3.209148 0
M  V30 25 C -3.732071 -2.079775 -2.452013 0
M  V30 26 N -4.055771 -3.200602 -3.271180 0
M  V30 27 C -2.922551 -3.831770 -3.866962 0
M  V30 28 C -3.247649 -5.054295 -4.717182 0
M  V30 29 C -2.396611 -5.918634 -3.816060 0
M  V30 30 F -1.276060 -6.462775 -4.409360 0
M  V30 31 F -3.111986 -6.899326 -3.130786 0
M  V30 32 C -2.092757 -4.705885 -2.986367 0
M  V30 33 C -4.991199 -1.547311 -1.768577 0
M  V30 34 C -4.649474 -0.445036 -0.813624 0
M  V30 35 C -1.460559 1.068083 0.319471 0
M  V30 36 Cl -1.862363 2.529306 -0.578542 0
M  V30 37 N 1.199747 2.307690 3.870630 0
M  V30 38 N 2.244669 2.189686 4.669953 0
M  V30 39 H 4.086972 2.057071 7.403032 0
M  V30 40 H 4.998632 1.561055 1.204232 0
M  V30 41 H 6.859566 2.332598 3.002713 0
M  V30 42 H 7.119023 0.425965 4.654706 0
M  V30 43 H 5.561877 -0.344366 4.067714 0
M  V30 44 H 8.010679 0.194588 2.288533 0
M  V30 45 H 6.387271 -0.501482 1.693921 0
M  V30 46 H 0.012662 3.165146 1.010965 0
M  V30 47 H 0.604032 -0.044961 2.652983 0
M  V30 48 H -2.385853 -2.193175 0.610932 0
M  V30 49 H -1.851684 0.658857 -2.365613 0
M  V30 50 H -3.571890 0.990425 -2.623634 0
M  V30 51 H -2.075320 -1.371690 -3.569935 0
M  V30 52 H -3.598464 -0.684881 -4.132603 0
M  V30 53 H -2.998532 -2.432817 -1.691371 0
M  V30 54 H -4.752083 -3.008670 -4.026469 0
M  V30 55 H -2.305165 -3.148739 -4.507492 0
M  V30 56 H -4.305197 -5.384400 -4.679618 0
M  V30 57 H -2.806395 -5.064622 -5.732507 0
M  V30 58 H -1.004595 -4.451780 -2.997339 0
M  V30 59 H -2.423385 -4.848571 -1.943898 0
M  V30 60 H -5.645224 -1.199214 -2.594791 0
M  V30 61 H -5.490913 -2.416929 -1.301195 0
M  V30 62 H -4.956307 -0.624093 0.234718 0
M  V30 63 H -5.183908 0.482661 -1.125357 0
M  V30 END ATOM
M  V30 BEGIN BOND
M  V30 1 3 1 2
M  V30 2 1 2 3
M  V30 3 2 3 4
M  V30 4 1 4 5
M  V30 5 2 5 6
M  V30 6 1 6 7
M  V30 7 1 7 8
M  V30 8 1 8 9
M  V30 9 1 9 10
M  V30 10 1 10 11
M  V30 11 2 7 12
M  V30 12 1 12 13
M  V30 13 1 13 14
M  V30 14 1 14 15
M  V30 15 2 15 16
M  V30 16 1 16 17
M  V30 17 1 17 18
M  V30 18 3 18 19
M  V30 19 2 17 20
M  V30 20 1 20 21
M  V30 21 1 21 22
M  V30 22 1 22 23
M  V30 23 1 23 24
M  V30 24 1 24 25
M  V30 25 1 25 26
M  V30 26 1 26 27
M  V30 27 1 27 28
M  V30 28 1 28 29
M  V30 29 1 29 30
M  V30 30 1 29 31
M  V30 31 1 29 32
M  V30 32 1 25 33
M  V30 33 1 33 34
M  V30 34 2 21 35
M  V30 35 1 35 36
M  V30 36 2 13 37
M  V30 37 1 37 38
M  V30 38 1 38 3
M  V30 39 1 38 6
M  V30 40 1 11 9
M  V30 41 1 35 15
M  V30 42 1 34 22
M  V30 43 1 32 27
M  V30 44 1 4 39
M  V30 45 1 8 40
M  V30 46 1 9 41
M  V30 47 1 10 42
M  V30 48 1 10 43
M  V30 49 1 11 44
M  V30 50 1 11 45
M  V30 51 1 14 46
M  V30 52 1 16 47
M  V30 53 1 20 48
M  V30 54 1 23 49
M  V30 55 1 23 50
M  V30 56 1 24 51
M  V30 57 1 24 52
M  V30 58 1 25 53
M  V30 59 1 26 54
M  V30 60 1 27 55
M  V30 61 1 28 56
M  V30 62 1 28 57
M  V30 63 1 32 58
M  V30 64 1 32 59
M  V30 65 1 33 60
M  V30 66 1 33 61
M  V30 67 1 34 62
M  V30 68 1 34 63
M  V30 END BOND
M  V30 END CTAB
M  END
>  <Dataset>  (455) 
ChEMBL_Kinases

>  <Ligand_Instance>  (455) 
nan

>  <PDB_ID>  (455) 
nan

>  <Standardized_SMILES>  (455) 
[C-]#[N+]c1cnc2c(NC3CC3)nc(Nc3cc(C#N)cc(N4CCC(NC5CC(F)(F)C5)CC4)c3Cl)nn12

>  <Name>  (455) 
nan

>  <Pocket>  (455) 
nan

>  <ATP_Site>  (455) 
nan

>  <Peripheral>  (455) 
nan

>  <Num_H_Atoms_ProtBoundConf>  (455) 
nan

>  <Num_Resolved_Atoms>  (455) 
nan

>  <Num_Not_Resolved_Atoms>  (455) 
nan

$$$$
CHEMBL4473730
     RDKit          3D

  0  0  0  0  0  0  0  0  0  0999 V3000
M  V30 BEGIN CTAB
M  V30 COUNTS 55 59 0 0 0
M  V30 BEGIN ATOM
M  V30 1 O -1.007632 0.608381 4.748075 0
M  V30 2 C -1.985367 -0.084550 4.368055 0
M  V30 3 N -2.058341 -1.280134 3.598460 0
M  V30 4 C -0.844964 -1.892903 3.114586 0
M  V30 5 C -0.381299 -1.520008 1.879326 0
M  V30 6 C 0.765539 -2.004863 1.270828 0
M  V30 7 C 1.217840 -1.586260 -0.050298 0
M  V30 8 N 2.250094 -0.833711 -0.485140 0
M  V30 9 C 2.204987 -0.750597 -1.825712 0
M  V30 10 C 3.166738 -0.011011 -2.662820 0
M  V30 11 C 2.753559 1.424442 -2.895794 0
M  V30 12 C 2.619612 2.209978 -1.644948 0
M  V30 13 C 3.607372 2.946096 -1.020353 0
M  V30 14 C 3.335270 3.639395 0.157933 0
M  V30 15 C 2.033676 3.552573 0.664273 0
M  V30 16 C 1.032671 2.823263 0.056232 0
M  V30 17 C 1.326869 2.141745 -1.114042 0
M  V30 18 N 1.121694 -1.465759 -2.247847 0
M  V30 19 C 0.482657 -2.000892 -1.164431 0
M  V30 20 C -0.701560 -2.803617 -1.443056 0
M  V30 21 C -2.017690 -2.602853 -1.086178 0
M  V30 22 C -2.994457 -3.500070 -1.455447 0
M  V30 23 C -2.689525 -4.619044 -2.187901 0
M  V30 24 F -3.691802 -5.487114 -2.534118 0
M  V30 25 C -1.391491 -4.872186 -2.573064 0
M  V30 26 C -0.430905 -3.957280 -2.190591 0
M  V30 27 C 1.442379 -2.939755 2.038713 0
M  V30 28 C 0.997534 -3.340781 3.297337 0
M  V30 29 N -0.133362 -2.815673 3.815946 0
M  V30 30 C -3.259062 0.538338 4.862676 0
M  V30 31 C -4.516118 -0.220959 4.928033 0
M  V30 32 C -4.304854 0.616053 3.734125 0
M  V30 33 H -3.011518 -1.671846 3.412393 0
M  V30 34 H -0.950714 -0.777132 1.318582 0
M  V30 35 H 2.894204 -0.447085 0.213745 0
M  V30 36 H 4.216280 -0.116041 -2.363040 0
M  V30 37 H 3.100600 -0.491180 -3.684076 0
M  V30 38 H 3.625160 1.902736 -3.434001 0
M  V30 39 H 1.891530 1.504654 -3.563028 0
M  V30 40 H 4.573934 2.941668 -1.510505 0
M  V30 41 H 4.117060 4.209269 0.631078 0
M  V30 42 H 1.795544 4.083683 1.577495 0
M  V30 43 H 0.032102 2.798784 0.509056 0
M  V30 44 H 0.496553 1.586249 -1.542828 0
M  V30 45 H -2.169072 -1.710323 -0.516281 0
M  V30 46 H -3.996038 -3.240501 -1.120022 0
M  V30 47 H -1.173699 -5.748520 -3.140376 0
M  V30 48 H 0.571867 -4.219130 -2.529696 0
M  V30 49 H 2.353398 -3.382594 1.654446 0
M  V30 50 H 1.540459 -4.066180 3.869236 0
M  V30 51 H -3.131016 1.461548 5.473336 0
M  V30 52 H -4.563781 -1.310894 4.808968 0
M  V30 53 H -5.258940 0.157348 5.684334 0
M  V30 54 H -4.834234 1.591533 3.612808 0
M  V30 55 H -4.124658 0.092771 2.792767 0
M  V30 END ATOM
M  V30 BEGIN BOND
M  V30 1 2 1 2
M  V30 2 1 2 3
M  V30 3 1 3 4
M  V30 4 2 4 5
M  V30 5 1 5 6
M  V30 6 1 6 7
M  V30 7 1 7 8
M  V30 8 1 8 9
M  V30 9 1 9 10
M  V30 10 1 10 11
M  V30 11 1 11 12
M  V30 12 2 12 13
M  V30 13 1 13 14
M  V30 14 2 14 15
M  V30 15 1 15 16
M  V30 16 2 16 17
M  V30 17 2 9 18
M  V30 18 1 18 19
M  V30 19 1 19 20
M  V30 20 2 20 21
M  V30 21 1 21 22
M  V30 22 2 22 23
M  V30 23 1 23 24
M  V30 24 1 23 25
M  V30 25 2 25 26
M  V30 26 2 6 27
M  V30 27 1 27 28
M  V30 28 2 28 29
M  V30 29 1 2 30
M  V30 30 1 30 31
M  V30 31 1 31 32
M  V30 32 1 29 4
M  V30 33 1 32 30
M  V30 34 2 19 7
M  V30 35 1 26 20
M  V30 36 1 17 12
M  V30 37 1 3 33
M  V30 38 1 5 34
M  V30 39 1 8 35
M  V30 40 1 10 36
M  V30 41 1 10 37
M  V30 42 1 11 38
M  V30 43 1 11 39
M  V30 44 1 13 40
M  V30 45 1 14 41
M  V30 46 1 15 42
M  V30 47 1 16 43
M  V30 48 1 17 44
M  V30 49 1 21 45
M  V30 50 1 22 46
M  V30 51 1 25 47
M  V30 52 1 26 48
M  V30 53 1 27 49
M  V30 54 1 28 50
M  V30 55 1 30 51
M  V30 56 1 31 52
M  V30 57 1 31 53
M  V30 58 1 32 54
M  V30 59 1 32 55
M  V30 END BOND
M  V30 END CTAB
M  END
>  <Dataset>  (456) 
ChEMBL_Kinases

>  <Ligand_Instance>  (456) 
nan

>  <PDB_ID>  (456) 
nan

>  <Standardized_SMILES>  (456) 
O=C(Nc1cc(-c2[nH]c(CCc3ccccc3)nc2-c2ccc(F)cc2)ccn1)C1CC1

>  <Name>  (456) 
nan

>  <Pocket>  (456) 
nan

>  <ATP_Site>  (456) 
nan

>  <Peripheral>  (456) 
nan

>  <Num_H_Atoms_ProtBoundConf>  (456) 
nan

>  <Num_Resolved_Atoms>  (456) 
nan

>  <Num_Not_Resolved_Atoms>  (456) 
nan

$$$$
CHEMBL4473671
     RDKit          3D

  0  0  0  0  0  0  0  0  0  0999 V3000
M  V30 BEGIN CTAB
M  V30 COUNTS 69 72 0 0 0
M  V30 BEGIN ATOM
M  V30 1 C 3.075250 0.069360 4.236813 0
M  V30 2 C 2.394856 0.074806 2.915045 0
M  V30 3 C 3.022810 0.812918 1.899655 0
M  V30 4 C 2.313182 0.769042 0.688384 0
M  V30 5 C 1.143459 0.091366 0.486554 0
M  V30 6 C 0.562689 0.200601 -0.858589 0
M  V30 7 O 1.009420 1.135677 -1.569257 0
M  V30 8 N -0.442409 -0.660085 -1.406965 0
M  V30 9 C -0.874329 -0.364983 -2.748311 0 CFG=1
M  V30 10 C -0.065609 -1.152665 -3.785829 0
M  V30 11 C -0.566053 -0.774343 -5.152668 0
M  V30 12 C 0.137739 -1.418194 -6.293146 0
M  V30 13 C -0.508394 -0.909366 -7.568218 0
M  V30 14 C 0.290198 0.125498 -8.280306 0
M  V30 15 C 0.963837 1.070111 -7.341610 0
M  V30 16 C 1.890424 0.355508 -6.432649 0
M  V30 17 C 1.623250 -1.125434 -6.302957 0
M  V30 18 C -2.318778 -0.612901 -2.863323 0
M  V30 19 N -3.512085 -0.625395 -3.619633 0
M  V30 20 O -2.370741 -0.968999 -1.658490 0
M  V30 21 C 0.594062 -0.608062 1.533767 0
M  V30 22 C 1.220917 -0.618552 2.759317 0
M  V30 23 N 0.658676 -1.308928 3.859419 0
M  V30 24 C 0.588355 -2.552860 4.508262 0
M  V30 25 O 1.183264 -3.586735 4.113585 0
M  V30 26 C -0.249285 -2.608543 5.729435 0
M  V30 27 C -0.568477 -3.782544 6.370186 0
M  V30 28 N -1.331410 -3.409654 7.436510 0
M  V30 29 N -1.474184 -2.084997 7.453207 0
M  V30 30 C -2.167272 -1.212414 8.340465 0
M  V30 31 C -1.867426 -1.315837 9.678317 0
M  V30 32 C -2.443875 -0.547136 10.686359 0
M  V30 33 C -3.388546 0.372362 10.206679 0
M  V30 34 C -3.703385 0.496429 8.880327 0
M  V30 35 C -3.096591 -0.295585 7.919533 0
M  V30 36 C -0.808627 -1.538045 6.395177 0
M  V30 37 H 3.460162 -0.957661 4.399948 0
M  V30 38 H 2.381724 0.306775 5.059508 0
M  V30 39 H 3.897374 0.795963 4.291124 0
M  V30 40 H 3.936725 1.328514 2.087096 0
M  V30 41 H 2.832739 1.358481 -0.079491 0
M  V30 42 H -0.753101 -1.411428 -0.757621 0
M  V30 43 H -0.582319 0.699929 -2.973985 0
M  V30 44 H -0.236877 -2.210331 -3.560489 0
M  V30 45 H 0.994699 -0.866438 -3.673098 0
M  V30 46 H -0.625384 0.331203 -5.219179 0
M  V30 47 H -1.636939 -1.106743 -5.222694 0
M  V30 48 H 0.006998 -2.503280 -6.250678 0
M  V30 49 H -0.672040 -1.757492 -8.296268 0
M  V30 50 H -1.521991 -0.519805 -7.361887 0
M  V30 51 H -0.419375 0.675735 -8.963149 0
M  V30 52 H 1.081734 -0.380420 -8.867101 0
M  V30 53 H 1.601503 1.740587 -8.003153 0
M  V30 54 H 0.282535 1.802032 -6.849869 0
M  V30 55 H 1.846770 0.807028 -5.400006 0
M  V30 56 H 2.936748 0.458739 -6.764953 0
M  V30 57 H 2.073454 -1.685245 -7.148806 0
M  V30 58 H 2.053639 -1.508201 -5.373560 0
M  V30 59 H -3.843318 -1.311915 -4.327544 0
M  V30 60 H -4.233385 0.131488 -3.513346 0
M  V30 61 H -0.334559 -1.139975 1.351729 0
M  V30 62 H 0.131464 -0.476982 4.241492 0
M  V30 63 H -0.252841 -4.749337 6.047835 0
M  V30 64 H -1.133571 -2.037149 10.025846 0
M  V30 65 H -2.257530 -0.579650 11.733445 0
M  V30 66 H -3.873230 1.003166 10.962101 0
M  V30 67 H -4.441862 1.215451 8.517924 0
M  V30 68 H -3.302801 -0.243776 6.882030 0
M  V30 69 H -0.703222 -0.506459 6.096081 0
M  V30 END ATOM
M  V30 BEGIN BOND
M  V30 1 1 1 2
M  V30 2 2 2 3
M  V30 3 1 3 4
M  V30 4 2 4 5
M  V30 5 1 5 6
M  V30 6 2 6 7
M  V30 7 1 6 8
M  V30 8 1 8 9
M  V30 9 1 9 10
M  V30 10 1 10 11
M  V30 11 1 11 12
M  V30 12 1 12 13
M  V30 13 1 13 14
M  V30 14 1 14 15
M  V30 15 1 15 16
M  V30 16 1 16 17
M  V30 17 1 9 18
M  V30 18 1 18 19
M  V30 19 2 18 20
M  V30 20 1 5 21
M  V30 21 2 21 22
M  V30 22 1 22 23
M  V30 23 1 23 24
M  V30 24 2 24 25
M  V30 25 1 24 26
M  V30 26 1 26 27
M  V30 27 2 27 28
M  V30 28 1 28 29
M  V30 29 1 29 30
M  V30 30 2 30 31
M  V30 31 1 31 32
M  V30 32 2 32 33
M  V30 33 1 33 34
M  V30 34 2 34 35
M  V30 35 1 29 36
M  V30 36 1 22 2
M  V30 37 2 36 26
M  V30 38 1 17 12
M  V30 39 1 35 30
M  V30 40 1 1 37
M  V30 41 1 1 38
M  V30 42 1 1 39
M  V30 43 1 3 40
M  V30 44 1 4 41
M  V30 45 1 8 42
M  V30 46 1 9 43 CFG=3
M  V30 47 1 10 44
M  V30 48 1 10 45
M  V30 49 1 11 46
M  V30 50 1 11 47
M  V30 51 1 12 48
M  V30 52 1 13 49
M  V30 53 1 13 50
M  V30 54 1 14 51
M  V30 55 1 14 52
M  V30 56 1 15 53
M  V30 57 1 15 54
M  V30 58 1 16 55
M  V30 59 1 16 56
M  V30 60 1 17 57
M  V30 61 1 17 58
M  V30 62 1 19 59
M  V30 63 1 19 60
M  V30 64 1 21 61
M  V30 65 1 23 62
M  V30 66 1 27 63
M  V30 67 1 31 64
M  V30 68 1 32 65
M  V30 69 1 33 66
M  V30 70 1 34 67
M  V30 71 1 35 68
M  V30 72 1 36 69
M  V30 END BOND
M  V30 END CTAB
M  END
>  <Dataset>  (457) 
ChEMBL_Kinases

>  <Ligand_Instance>  (457) 
nan

>  <PDB_ID>  (457) 
nan

>  <Standardized_SMILES>  (457) 
Cc1ccc(C(=O)N[C@@H](CCC2CCCCC2)C(N)=O)cc1NC(=O)c1cnn(-c2ccccc2)c1

>  <Name>  (457) 
nan

>  <Pocket>  (457) 
nan

>  <ATP_Site>  (457) 
nan

>  <Peripheral>  (457) 
nan

>  <Num_H_Atoms_ProtBoundConf>  (457) 
nan

>  <Num_Resolved_Atoms>  (457) 
nan

>  <Num_Not_Resolved_Atoms>  (457) 
nan

$$$$
CHEMBL4566633
     RDKit          3D

  0  0  0  0  0  0  0  0  0  0999 V3000
M  V30 BEGIN CTAB
M  V30 COUNTS 31 33 0 0 0
M  V30 BEGIN ATOM
M  V30 1 O 1.754427 -3.775576 -0.235882 0
M  V30 2 C 2.397673 -4.044856 0.806375 0
M  V30 3 N 2.929078 -5.361332 0.992032 0
M  V30 4 C 3.600379 -5.343549 2.269749 0
M  V30 5 S 4.360015 -6.642075 2.893500 0
M  V30 6 N 3.478878 -4.046510 2.844830 0
M  V30 7 C 2.742120 -3.221857 1.966691 0
M  V30 8 C 2.366359 -1.964768 2.008332 0
M  V30 9 C 1.626724 -1.176795 1.050435 0
M  V30 10 C 1.890457 -1.012547 -0.289355 0
M  V30 11 C 0.911157 -0.178862 -0.782820 0
M  V30 12 C 0.080569 0.140784 0.270758 0
M  V30 13 C -1.098813 1.010032 0.186381 0
M  V30 14 C -1.788831 1.140360 1.370761 0
M  V30 15 C -2.913987 1.935577 1.387575 0
M  V30 16 C -3.232372 2.528427 0.185153 0
M  V30 17 N -4.380844 3.353552 0.157826 0 CHG=1 VAL=4
M  V30 18 O -4.822446 3.978674 -0.826715 0
M  V30 19 O -5.484741 4.084698 0.331076 0 CHG=-1 VAL=1
M  V30 20 C -2.559949 2.413593 -1.007976 0
M  V30 21 C -1.435682 1.614443 -1.009818 0
M  V30 22 O 0.555875 -0.477977 1.322831 0
M  V30 23 H 2.857949 -6.188176 0.342074 0
M  V30 24 H 3.854096 -3.724539 3.754307 0
M  V30 25 H 2.658415 -1.414759 2.912359 0
M  V30 26 H 2.665846 -1.386882 -0.927768 0
M  V30 27 H 0.804612 0.166560 -1.812483 0
M  V30 28 H -1.490739 0.648709 2.284662 0
M  V30 29 H -3.528073 2.110984 2.246114 0
M  V30 30 H -2.843290 2.895634 -1.929523 0
M  V30 31 H -0.800224 1.414720 -1.846015 0
M  V30 END ATOM
M  V30 BEGIN BOND
M  V30 1 2 1 2
M  V30 2 1 2 3
M  V30 3 1 3 4
M  V30 4 2 4 5
M  V30 5 1 4 6
M  V30 6 1 6 7
M  V30 7 2 7 8
M  V30 8 1 8 9
M  V30 9 2 9 10
M  V30 10 1 10 11
M  V30 11 2 11 12
M  V30 12 1 12 13
M  V30 13 2 13 14
M  V30 14 1 14 15
M  V30 15 2 15 16
M  V30 16 1 16 17
M  V30 17 2 17 18
M  V30 18 1 17 19
M  V30 19 1 16 20
M  V30 20 2 20 21
M  V30 21 1 12 22
M  V30 22 1 7 2
M  V30 23 1 22 9
M  V30 24 1 21 13
M  V30 25 1 3 23
M  V30 26 1 6 24
M  V30 27 1 8 25
M  V30 28 1 10 26
M  V30 29 1 11 27
M  V30 30 1 14 28
M  V30 31 1 15 29
M  V30 32 1 20 30
M  V30 33 1 21 31
M  V30 END BOND
M  V30 END CTAB
M  END
>  <Dataset>  (458) 
ChEMBL_Kinases

>  <Ligand_Instance>  (458) 
nan

>  <PDB_ID>  (458) 
nan

>  <Standardized_SMILES>  (458) 
O=C1NC(=S)N/C1=C/c1ccc(-c2ccc([N+](=O)[O-])cc2)o1

>  <Name>  (458) 
nan

>  <Pocket>  (458) 
nan

>  <ATP_Site>  (458) 
nan

>  <Peripheral>  (458) 
nan

>  <Num_H_Atoms_ProtBoundConf>  (458) 
nan

>  <Num_Resolved_Atoms>  (458) 
nan

>  <Num_Not_Resolved_Atoms>  (458) 
nan

$$$$
CHEMBL4473517
     RDKit          3D

  0  0  0  0  0  0  0  0  0  0999 V3000
M  V30 BEGIN CTAB
M  V30 COUNTS 36 38 0 0 0
M  V30 BEGIN ATOM
M  V30 1 N -1.804395 -1.959878 3.447786 0
M  V30 2 C -0.406202 -2.170167 3.381561 0
M  V30 3 O 0.102232 -2.851972 4.300671 0
M  V30 4 C 0.420019 -1.633230 2.311970 0
M  V30 5 C 1.774166 -1.917517 2.371997 0
M  V30 6 C 2.579422 -1.419338 1.369147 0
M  V30 7 C 2.078440 -0.660856 0.330306 0
M  V30 8 C 2.983058 -0.161860 -0.703257 0
M  V30 9 C 4.069912 -1.006482 -0.964103 0
M  V30 10 C 5.031706 -0.682999 -1.921339 0
M  V30 11 C 4.822947 0.517792 -2.575611 0
M  V30 12 N 3.788678 1.344647 -2.342955 0
M  V30 13 C 2.871382 1.014672 -1.415558 0
M  V30 14 C 0.724699 -0.398100 0.303767 0
M  V30 15 C -0.117332 -0.878413 1.288923 0
M  V30 16 O -1.477263 -0.675069 1.355990 0
M  V30 17 C -2.286148 0.031100 0.481490 0
M  V30 18 C -3.226724 1.049746 1.054692 0
M  V30 19 C -4.256011 0.611880 0.016017 0
M  V30 20 C -3.498510 -0.698796 -0.049937 0
M  V30 21 H -1.834779 -0.916866 3.651573 0
M  V30 22 H -2.740689 -2.407275 3.377082 0
M  V30 23 H 2.172145 -2.504184 3.172445 0
M  V30 24 H 3.643995 -1.670483 1.460012 0
M  V30 25 H 4.258602 -1.961366 -0.461844 0
M  V30 26 H 5.875177 -1.329691 -2.130020 0
M  V30 27 H 5.571971 0.783436 -3.330112 0
M  V30 28 H 1.999437 1.609950 -1.150229 0
M  V30 29 H 0.295329 0.182693 -0.479130 0
M  V30 30 H -1.715062 0.478746 -0.368085 0
M  V30 31 H -3.640982 0.803966 2.058403 0
M  V30 32 H -2.943663 2.117755 0.917198 0
M  V30 33 H -5.300001 0.510460 0.417133 0
M  V30 34 H -4.257539 1.178524 -0.918025 0
M  V30 35 H -3.392990 -1.039732 -1.112470 0
M  V30 36 H -3.951364 -1.417964 0.649496 0
M  V30 END ATOM
M  V30 BEGIN BOND
M  V30 1 1 1 2
M  V30 2 2 2 3
M  V30 3 1 2 4
M  V30 4 2 4 5
M  V30 5 1 5 6
M  V30 6 2 6 7
M  V30 7 1 7 8
M  V30 8 2 8 9
M  V30 9 1 9 10
M  V30 10 2 10 11
M  V30 11 1 11 12
M  V30 12 2 12 13
M  V30 13 1 7 14
M  V30 14 2 14 15
M  V30 15 1 15 16
M  V30 16 1 16 17
M  V30 17 1 17 18
M  V30 18 1 18 19
M  V30 19 1 19 20
M  V30 20 1 15 4
M  V30 21 1 20 17
M  V30 22 1 13 8
M  V30 23 1 1 21
M  V30 24 1 1 22
M  V30 25 1 5 23
M  V30 26 1 6 24
M  V30 27 1 9 25
M  V30 28 1 10 26
M  V30 29 1 11 27
M  V30 30 1 13 28
M  V30 31 1 14 29
M  V30 32 1 17 30
M  V30 33 1 18 31
M  V30 34 1 18 32
M  V30 35 1 19 33
M  V30 36 1 19 34
M  V30 37 1 20 35
M  V30 38 1 20 36
M  V30 END BOND
M  V30 END CTAB
M  END
>  <Dataset>  (459) 
ChEMBL_Kinases

>  <Ligand_Instance>  (459) 
nan

>  <PDB_ID>  (459) 
nan

>  <Standardized_SMILES>  (459) 
NC(=O)c1ccc(-c2cccnc2)cc1OC1CCC1

>  <Name>  (459) 
nan

>  <Pocket>  (459) 
nan

>  <ATP_Site>  (459) 
nan

>  <Peripheral>  (459) 
nan

>  <Num_H_Atoms_ProtBoundConf>  (459) 
nan

>  <Num_Resolved_Atoms>  (459) 
nan

>  <Num_Not_Resolved_Atoms>  (459) 
nan

$$$$
CHEMBL447328
     RDKit          3D

  0  0  0  0  0  0  0  0  0  0999 V3000
M  V30 BEGIN CTAB
M  V30 COUNTS 72 79 0 0 0
M  V30 BEGIN ATOM
M  V30 1 C -1.765499 0.529419 1.894856 0
M  V30 2 C -1.503120 1.441677 0.892618 0
M  V30 3 C -0.203568 1.697161 0.512315 0
M  V30 4 C 0.874054 1.065086 1.104419 0
M  V30 5 C 2.274222 1.300841 0.736696 0
M  V30 6 C 2.677943 2.619666 0.935647 0
M  V30 7 C 3.965384 2.983754 0.633319 0
M  V30 8 C 4.822829 2.019862 0.137819 0
M  V30 9 C 6.143912 2.349368 -0.183444 0
M  V30 10 C 6.498440 3.679196 0.032827 0
M  V30 11 N 5.650351 4.603918 0.515936 0
M  V30 12 C 5.833621 5.909286 0.778320 0
M  V30 13 N 4.666902 6.412573 1.255612 0
M  V30 14 N 3.770007 5.428897 1.288579 0
M  V30 15 C 4.373838 4.305700 0.831290 0
M  V30 16 N 4.427908 0.747047 -0.052561 0
M  V30 17 C 3.172468 0.353257 0.232767 0
M  V30 18 C 2.579783 -0.947272 0.094936 0
M  V30 19 C 2.957451 -2.112697 0.731256 0
M  V30 20 C 2.307038 -3.309729 0.515842 0
M  V30 21 C 1.246024 -3.317926 -0.369892 0
M  V30 22 C 0.463117 -4.548559 -0.686075 0
M  V30 23 N -0.627665 -4.670629 0.198897 0
M  V30 24 C -1.489675 -5.780040 0.065825 0
M  V30 25 C -2.879896 -5.534776 0.571511 0
M  V30 26 C -3.056556 -4.259791 1.337318 0
M  V30 27 C -3.476094 -3.146828 0.439202 0
M  V30 28 N -2.534723 -2.852927 -0.474988 0
M  V30 29 N -2.960989 -1.853330 -1.249755 0
M  V30 30 C -4.184174 -1.520666 -0.811837 0
M  V30 31 C -5.018567 -0.468540 -1.378896 0
M  V30 32 C -6.266952 -0.185763 -0.872383 0
M  V30 33 C -7.051174 0.826324 -1.429458 0
M  V30 34 C -6.514955 1.524627 -2.506821 0
M  V30 35 C -5.265535 1.227038 -2.998478 0
M  V30 36 N -4.570813 0.248100 -2.418618 0
M  V30 37 N -4.532643 -2.309417 0.240166 0
M  V30 38 C -1.868386 -3.829342 2.143002 0
M  V30 39 C -0.552345 -4.043661 1.460858 0
M  V30 40 C 0.820939 -2.170010 -1.041068 0
M  V30 41 C 1.509271 -0.983171 -0.791105 0
M  V30 42 C 0.591445 0.149840 2.111531 0
M  V30 43 C -0.721308 -0.121431 2.509875 0
M  V30 44 H -2.783415 0.329868 2.192004 0
M  V30 45 H -2.294579 1.990831 0.366498 0
M  V30 46 H 0.046513 2.404246 -0.268408 0
M  V30 47 H 2.030183 3.393831 1.321268 0
M  V30 48 H 6.825564 1.615855 -0.569423 0
M  V30 49 H 7.516687 3.937266 -0.213831 0
M  V30 50 H 6.708229 6.539132 0.665979 0
M  V30 51 H 3.795035 -2.030859 1.409771 0
M  V30 52 H 2.599635 -4.216362 1.009918 0
M  V30 53 H 0.198457 -4.594009 -1.762069 0
M  V30 54 H 1.159563 -5.409826 -0.515496 0
M  V30 55 H -1.504193 -6.078240 -1.006616 0
M  V30 56 H -1.037579 -6.663900 0.588209 0
M  V30 57 H -3.214121 -6.438769 1.113753 0
M  V30 58 H -3.555895 -5.463433 -0.313106 0
M  V30 59 H -3.895096 -4.413664 2.048551 0
M  V30 60 H -2.479734 -1.382161 -2.053956 0
M  V30 61 H -6.676615 -0.739738 -0.027839 0
M  V30 62 H -8.048529 1.084114 -1.058225 0
M  V30 63 H -7.143019 2.304146 -2.920370 0
M  V30 64 H -4.863656 1.770361 -3.826867 0
M  V30 65 H -1.996249 -2.741028 2.321582 0
M  V30 66 H -1.868424 -4.301128 3.147981 0
M  V30 67 H 0.105861 -4.671685 2.101626 0
M  V30 68 H 0.000520 -3.081418 1.341478 0
M  V30 69 H -0.009990 -2.187041 -1.731744 0
M  V30 70 H 1.139047 -0.105751 -1.341906 0
M  V30 71 H 1.400344 -0.378091 2.613446 0
M  V30 72 H -0.854586 -0.846809 3.300560 0
M  V30 END ATOM
M  V30 BEGIN BOND
M  V30 1 2 1 2
M  V30 2 1 2 3
M  V30 3 2 3 4
M  V30 4 1 4 5
M  V30 5 2 5 6
M  V30 6 1 6 7
M  V30 7 2 7 8
M  V30 8 1 8 9
M  V30 9 2 9 10
M  V30 10 1 10 11
M  V30 11 1 11 12
M  V30 12 2 12 13
M  V30 13 1 13 14
M  V30 14 2 14 15
M  V30 15 1 8 16
M  V30 16 2 16 17
M  V30 17 1 17 18
M  V30 18 2 18 19
M  V30 19 1 19 20
M  V30 20 2 20 21
M  V30 21 1 21 22
M  V30 22 1 22 23
M  V30 23 1 23 24
M  V30 24 1 24 25
M  V30 25 1 25 26
M  V30 26 1 26 27
M  V30 27 2 27 28
M  V30 28 1 28 29
M  V30 29 1 29 30
M  V30 30 1 30 31
M  V30 31 2 31 32
M  V30 32 1 32 33
M  V30 33 2 33 34
M  V30 34 1 34 35
M  V30 35 2 35 36
M  V30 36 2 30 37
M  V30 37 1 26 38
M  V30 38 1 38 39
M  V30 39 1 21 40
M  V30 40 2 40 41
M  V30 41 1 4 42
M  V30 42 2 42 43
M  V30 43 1 43 1
M  V30 44 1 17 5
M  V30 45 1 41 18
M  V30 46 1 15 7
M  V30 47 1 39 23
M  V30 48 1 15 11
M  V30 49 1 37 27
M  V30 50 1 36 31
M  V30 51 1 1 44
M  V30 52 1 2 45
M  V30 53 1 3 46
M  V30 54 1 6 47
M  V30 55 1 9 48
M  V30 56 1 10 49
M  V30 57 1 12 50
M  V30 58 1 19 51
M  V30 59 1 20 52
M  V30 60 1 22 53
M  V30 61 1 22 54
M  V30 62 1 24 55
M  V30 63 1 24 56
M  V30 64 1 25 57
M  V30 65 1 25 58
M  V30 66 1 26 59
M  V30 67 1 29 60
M  V30 68 1 32 61
M  V30 69 1 33 62
M  V30 70 1 34 63
M  V30 71 1 35 64
M  V30 72 1 38 65
M  V30 73 1 38 66
M  V30 74 1 39 67
M  V30 75 1 39 68
M  V30 76 1 40 69
M  V30 77 1 41 70
M  V30 78 1 42 71
M  V30 79 1 43 72
M  V30 END BOND
M  V30 END CTAB
M  END
>  <Dataset>  (460) 
ChEMBL_Kinases

>  <Ligand_Instance>  (460) 
nan

>  <PDB_ID>  (460) 
nan

>  <Standardized_SMILES>  (460) 
c1ccc(-c2cc3c(ccn4cnnc34)nc2-c2ccc(CN3CCC(c4n[nH]c(-c5ccccn5)n4)CC3)cc2)cc1

>  <Name>  (460) 
nan

>  <Pocket>  (460) 
nan

>  <ATP_Site>  (460) 
nan

>  <Peripheral>  (460) 
nan

>  <Num_H_Atoms_ProtBoundConf>  (460) 
nan

>  <Num_Resolved_Atoms>  (460) 
nan

>  <Num_Not_Resolved_Atoms>  (460) 
nan

$$$$
CHEMBL3699241
     RDKit          3D

  0  0  0  0  0  0  0  0  0  0999 V3000
M  V30 BEGIN CTAB
M  V30 COUNTS 62 66 0 0 0
M  V30 BEGIN ATOM
M  V30 1 C 4.132224 1.554652 7.848743 0
M  V30 2 S 4.316246 0.024355 6.939784 0
M  V30 3 O 3.514330 -1.067217 7.542150 0
M  V30 4 O 5.788632 -0.296448 6.912832 0
M  V30 5 C 3.826257 0.301530 5.254821 0
M  V30 6 C 2.407394 0.747727 5.123753 0
M  V30 7 N 1.532645 -0.250409 5.652170 0
M  V30 8 C 0.143914 0.141072 5.638081 0
M  V30 9 C -0.496592 0.108129 4.308578 0
M  V30 10 N 0.200659 -0.606398 3.264666 0
M  V30 11 C -0.399973 -0.424104 1.994672 0
M  V30 12 C -1.570121 0.272982 1.772247 0
M  V30 13 C -2.216297 0.485755 0.576671 0
M  V30 14 C -3.434995 1.235825 0.496705 0
M  V30 15 N -4.411848 1.851187 0.443981 0
M  V30 16 C -1.630083 -0.060822 -0.542175 0
M  V30 17 C -0.450293 -0.782136 -0.434138 0
M  V30 18 N 0.107508 -1.317118 -1.617513 0
M  V30 19 C -0.508799 -1.142877 -2.875264 0
M  V30 20 N -1.346537 -2.150320 -3.177753 0
M  V30 21 C -2.025342 -2.130996 -4.360829 0
M  V30 22 N -2.915241 -3.181700 -4.709864 0
M  V30 23 C -3.692338 -3.281488 -5.924633 0
M  V30 24 C -4.591936 -4.477492 -6.144558 0
M  V30 25 C -3.342505 -4.308643 -6.971142 0
M  V30 26 C -1.825099 -1.059594 -5.220511 0
M  V30 27 N -2.342283 -0.764415 -6.435059 0
M  V30 28 C -1.838399 0.404500 -6.883559 0
M  V30 29 C -0.977422 0.835978 -5.895773 0
M  V30 30 C -0.213512 2.044505 -5.943378 0
M  V30 31 N 0.396912 3.016039 -5.962220 0
M  V30 32 N -0.972986 -0.054823 -4.890343 0
M  V30 33 N -0.326687 -0.115178 -3.717108 0
M  V30 34 C 0.108727 -0.931280 0.817973 0
M  V30 35 Cl 1.593623 -1.857119 0.809688 0
M  V30 36 C 1.352562 -1.407071 3.483978 0
M  V30 37 C 1.606616 -1.528046 4.994203 0
M  V30 38 H 5.090155 2.116465 7.825529 0
M  V30 39 H 3.811652 1.342897 8.897743 0
M  V30 40 H 3.351549 2.184024 7.392298 0
M  V30 41 H 3.999068 -0.586011 4.651902 0
M  V30 42 H 4.484982 1.119913 4.850743 0
M  V30 43 H 2.242804 0.958744 4.034512 0
M  V30 44 H 2.194501 1.699903 5.647981 0
M  V30 45 H -0.002222 1.110607 6.180426 0
M  V30 46 H -0.416238 -0.594433 6.291152 0
M  V30 47 H -0.638086 1.190071 3.995560 0
M  V30 48 H -1.534002 -0.297883 4.315263 0
M  V30 49 H -2.076985 0.728351 2.638638 0
M  V30 50 H -2.107202 0.085547 -1.492948 0
M  V30 51 H 0.996301 -1.862743 -1.612669 0
M  V30 52 H -3.034193 -3.970179 -4.035217 0
M  V30 53 H -4.143666 -2.338998 -6.308642 0
M  V30 54 H -4.585694 -5.278106 -5.352026 0
M  V30 55 H -5.555629 -4.375939 -6.646505 0
M  V30 56 H -3.444895 -4.002325 -8.032502 0
M  V30 57 H -2.562368 -5.056717 -6.783307 0
M  V30 58 H -2.089822 0.871304 -7.835979 0
M  V30 59 H 2.281070 -1.015511 3.073302 0
M  V30 60 H 1.128615 -2.476729 3.190703 0
M  V30 61 H 0.772550 -2.139158 5.434379 0
M  V30 62 H 2.537612 -2.063878 5.193494 0
M  V30 END ATOM
M  V30 BEGIN BOND
M  V30 1 1 1 2
M  V30 2 2 2 3
M  V30 3 2 2 4
M  V30 4 1 2 5
M  V30 5 1 5 6
M  V30 6 1 6 7
M  V30 7 1 7 8
M  V30 8 1 8 9
M  V30 9 1 9 10
M  V30 10 1 10 11
M  V30 11 2 11 12
M  V30 12 1 12 13
M  V30 13 1 13 14
M  V30 14 3 14 15
M  V30 15 2 13 16
M  V30 16 1 16 17
M  V30 17 1 17 18
M  V30 18 1 18 19
M  V30 19 1 19 20
M  V30 20 2 20 21
M  V30 21 1 21 22
M  V30 22 1 22 23
M  V30 23 1 23 24
M  V30 24 1 24 25
M  V30 25 1 21 26
M  V30 26 2 26 27
M  V30 27 1 27 28
M  V30 28 2 28 29
M  V30 29 1 29 30
M  V30 30 3 30 31
M  V30 31 1 29 32
M  V30 32 1 32 33
M  V30 33 2 17 34
M  V30 34 1 34 35
M  V30 35 1 10 36
M  V30 36 1 36 37
M  V30 37 1 37 7
M  V30 38 1 34 11
M  V30 39 2 33 19
M  V30 40 1 25 23
M  V30 41 1 32 26
M  V30 42 1 1 38
M  V30 43 1 1 39
M  V30 44 1 1 40
M  V30 45 1 5 41
M  V30 46 1 5 42
M  V30 47 1 6 43
M  V30 48 1 6 44
M  V30 49 1 8 45
M  V30 50 1 8 46
M  V30 51 1 9 47
M  V30 52 1 9 48
M  V30 53 1 12 49
M  V30 54 1 16 50
M  V30 55 1 18 51
M  V30 56 1 22 52
M  V30 57 1 23 53
M  V30 58 1 24 54
M  V30 59 1 24 55
M  V30 60 1 25 56
M  V30 61 1 25 57
M  V30 62 1 28 58
M  V30 63 1 36 59
M  V30 64 1 36 60
M  V30 65 1 37 61
M  V30 66 1 37 62
M  V30 END BOND
M  V30 END CTAB
M  END
>  <Dataset>  (461) 
ChEMBL_Kinases

>  <Ligand_Instance>  (461) 
nan

>  <PDB_ID>  (461) 
nan

>  <Standardized_SMILES>  (461) 
CS(=O)(=O)CCN1CCN(c2cc(C#N)cc(Nc3nc(NC4CC4)c4ncc(C#N)n4n3)c2Cl)CC1

>  <Name>  (461) 
nan

>  <Pocket>  (461) 
nan

>  <ATP_Site>  (461) 
nan

>  <Peripheral>  (461) 
nan

>  <Num_H_Atoms_ProtBoundConf>  (461) 
nan

>  <Num_Resolved_Atoms>  (461) 
nan

>  <Num_Not_Resolved_Atoms>  (461) 
nan

$$$$
CHEMBL2348181
     RDKit          3D

  0  0  0  0  0  0  0  0  0  0999 V3000
M  V30 BEGIN CTAB
M  V30 COUNTS 28 30 0 0 0
M  V30 BEGIN ATOM
M  V30 1 N 0.138125 -5.416824 2.453902 0
M  V30 2 C 0.472814 -4.315302 2.575278 0
M  V30 3 C 0.867763 -2.942808 2.738395 0
M  V30 4 C 1.459515 -2.483387 3.900561 0
M  V30 5 C 1.823694 -1.153434 4.013978 0
M  V30 6 C 1.612849 -0.239909 2.980831 0
M  V30 7 C 1.859611 1.107911 2.800989 0
M  V30 8 C 1.419637 1.453242 1.542150 0
M  V30 9 N 0.912113 0.334121 0.962100 0
M  V30 10 C 0.331156 0.180085 -0.349544 0
M  V30 11 C 0.991007 -0.130606 -1.541240 0
M  V30 12 C 0.205507 -0.222561 -2.672524 0
M  V30 13 C -1.154451 -0.019762 -2.632321 0
M  V30 14 C -1.784923 0.287289 -1.437399 0
M  V30 15 N -3.189724 0.502870 -1.362196 0
M  V30 16 N -1.012658 0.374961 -0.340274 0
M  V30 17 C 1.016875 -0.707159 1.812989 0
M  V30 18 C 0.659805 -2.037511 1.716938 0
M  V30 19 H 1.632087 -3.189937 4.722521 0
M  V30 20 H 2.292765 -0.776493 4.927883 0
M  V30 21 H 2.327226 1.766170 3.549695 0
M  V30 22 H 1.457055 2.429758 1.071147 0
M  V30 23 H 2.042513 -0.259662 -1.419073 0
M  V30 24 H 0.769088 -0.466542 -3.572284 0
M  V30 25 H -1.725461 -0.105008 -3.556327 0
M  V30 26 H -3.854498 0.175012 -2.074299 0
M  V30 27 H -3.552178 1.033775 -0.516124 0
M  V30 28 H 0.188295 -2.431276 0.806856 0
M  V30 END ATOM
M  V30 BEGIN BOND
M  V30 1 3 1 2
M  V30 2 1 2 3
M  V30 3 2 3 4
M  V30 4 1 4 5
M  V30 5 2 5 6
M  V30 6 1 6 7
M  V30 7 2 7 8
M  V30 8 1 8 9
M  V30 9 1 9 10
M  V30 10 2 10 11
M  V30 11 1 11 12
M  V30 12 2 12 13
M  V30 13 1 13 14
M  V30 14 1 14 15
M  V30 15 2 14 16
M  V30 16 1 9 17
M  V30 17 2 17 18
M  V30 18 1 18 3
M  V30 19 1 17 6
M  V30 20 1 16 10
M  V30 21 1 4 19
M  V30 22 1 5 20
M  V30 23 1 7 21
M  V30 24 1 8 22
M  V30 25 1 11 23
M  V30 26 1 12 24
M  V30 27 1 13 25
M  V30 28 1 15 26
M  V30 29 1 15 27
M  V30 30 1 18 28
M  V30 END BOND
M  V30 END CTAB
M  END
>  <Dataset>  (462) 
ChEMBL_Kinases

>  <Ligand_Instance>  (462) 
nan

>  <PDB_ID>  (462) 
nan

>  <Standardized_SMILES>  (462) 
N#Cc1ccc2ccn(-c3cccc(N)n3)c2c1

>  <Name>  (462) 
nan

>  <Pocket>  (462) 
nan

>  <ATP_Site>  (462) 
nan

>  <Peripheral>  (462) 
nan

>  <Num_H_Atoms_ProtBoundConf>  (462) 
nan

>  <Num_Resolved_Atoms>  (462) 
nan

>  <Num_Not_Resolved_Atoms>  (462) 
nan

$$$$
CHEMBL3699240
     RDKit          3D

  0  0  0  0  0  0  0  0  0  0999 V3000
M  V30 BEGIN CTAB
M  V30 COUNTS 71 76 0 0 0
M  V30 BEGIN ATOM
M  V30 1 C 6.483644 -4.850212 2.730633 0
M  V30 2 O 5.433681 -5.057299 1.799538 0
M  V30 3 C 5.538971 -4.773036 0.457664 0
M  V30 4 O 6.712831 -4.355618 0.484626 0
M  V30 5 N 4.433638 -5.006156 -0.438507 0
M  V30 6 C 3.152894 -5.539706 -0.044925 0
M  V30 7 C 2.084174 -4.582942 -0.459739 0
M  V30 8 C 2.588497 -3.451508 -1.345827 0
M  V30 9 N 3.417042 -2.526744 -0.636852 0
M  V30 10 C 3.880477 -1.463797 -1.467206 0
M  V30 11 C 2.806605 -0.414996 -1.706472 0
M  V30 12 N 2.223065 0.020637 -0.479372 0
M  V30 13 C 1.110128 0.790083 -0.170423 0
M  V30 14 C 1.399276 1.963805 0.535237 0
M  V30 15 C 0.359698 2.825851 0.905686 0
M  V30 16 C 0.582762 4.034639 1.623123 0
M  V30 17 N 0.762578 5.024226 2.195512 0
M  V30 18 C -0.956999 2.512227 0.570894 0
M  V30 19 C -1.164052 1.344374 -0.121695 0
M  V30 20 N -2.491142 0.978478 -0.484211 0
M  V30 21 C -3.769444 1.565617 -0.293004 0
M  V30 22 N -4.305460 1.154713 0.851247 0
M  V30 23 C -5.527475 1.537183 1.319878 0
M  V30 24 N -6.102836 1.080733 2.533949 0
M  V30 25 C -7.188615 1.144353 3.446037 0
M  V30 26 C -8.587694 0.946938 2.907458 0
M  V30 27 C -8.157915 2.222116 3.618557 0
M  V30 28 C -6.217680 2.428107 0.488662 0
M  V30 29 N -7.395824 3.049042 0.515140 0
M  V30 30 C -7.590012 3.814355 -0.561964 0
M  V30 31 C -6.470366 3.692630 -1.351458 0
M  V30 32 C -6.234031 4.336521 -2.610423 0
M  V30 33 N -6.039163 4.867396 -3.633879 0
M  V30 34 N -5.689193 2.848439 -0.664154 0
M  V30 35 N -4.499771 2.414935 -1.020257 0
M  V30 36 C -0.167107 0.470230 -0.504274 0
M  V30 37 Cl -0.498279 -0.989997 -1.379064 0
M  V30 38 C 3.008699 -0.485488 0.665361 0
M  V30 39 C 2.834831 -2.007091 0.555282 0
M  V30 40 C 3.391941 -4.149191 -2.427747 0
M  V30 41 C 4.664211 -4.667349 -1.827654 0
M  V30 42 H 7.272301 -5.625195 2.661103 0
M  V30 43 H 6.024852 -4.871801 3.747981 0
M  V30 44 H 6.868856 -3.834235 2.570336 0
M  V30 45 H 3.074975 -5.700191 1.047258 0
M  V30 46 H 3.041001 -6.540892 -0.552919 0
M  V30 47 H 1.518234 -4.201505 0.408869 0
M  V30 48 H 1.334550 -5.157018 -1.057727 0
M  V30 49 H 1.676806 -3.011475 -1.801136 0
M  V30 50 H 4.185947 -1.822399 -2.490002 0
M  V30 51 H 4.822097 -1.004446 -1.087206 0
M  V30 52 H 2.141779 -0.867463 -2.442823 0
M  V30 53 H 3.314901 0.435517 -2.239180 0
M  V30 54 H 2.422411 2.253072 0.821646 0
M  V30 55 H -1.791530 3.146158 0.835044 0
M  V30 56 H -2.744347 0.130490 -1.001356 0
M  V30 57 H -5.391095 0.372073 2.921339 0
M  V30 58 H -7.031536 0.517819 4.372721 0
M  V30 59 H -9.266980 0.235794 3.403437 0
M  V30 60 H -8.736604 0.978731 1.804855 0
M  V30 61 H -8.063117 3.171071 3.087351 0
M  V30 62 H -8.659552 2.302395 4.639778 0
M  V30 63 H -8.483749 4.421917 -0.764576 0
M  V30 64 H 4.060024 -0.180200 0.626538 0
M  V30 65 H 2.599514 -0.201212 1.631289 0
M  V30 66 H 3.121261 -2.514985 1.479160 0
M  V30 67 H 1.717316 -2.126875 0.441474 0
M  V30 68 H 3.513660 -3.552668 -3.345032 0
M  V30 69 H 2.787389 -5.036395 -2.738796 0
M  V30 70 H 5.519116 -3.976222 -1.952169 0
M  V30 71 H 4.972210 -5.615787 -2.333034 0
M  V30 END ATOM
M  V30 BEGIN BOND
M  V30 1 1 1 2
M  V30 2 1 2 3
M  V30 3 2 3 4
M  V30 4 1 3 5
M  V30 5 1 5 6
M  V30 6 1 6 7
M  V30 7 1 7 8
M  V30 8 1 8 9
M  V30 9 1 9 10
M  V30 10 1 10 11
M  V30 11 1 11 12
M  V30 12 1 12 13
M  V30 13 2 13 14
M  V30 14 1 14 15
M  V30 15 1 15 16
M  V30 16 3 16 17
M  V30 17 2 15 18
M  V30 18 1 18 19
M  V30 19 1 19 20
M  V30 20 1 20 21
M  V30 21 1 21 22
M  V30 22 2 22 23
M  V30 23 1 23 24
M  V30 24 1 24 25
M  V30 25 1 25 26
M  V30 26 1 26 27
M  V30 27 1 23 28
M  V30 28 2 28 29
M  V30 29 1 29 30
M  V30 30 2 30 31
M  V30 31 1 31 32
M  V30 32 3 32 33
M  V30 33 1 31 34
M  V30 34 1 34 35
M  V30 35 2 19 36
M  V30 36 1 36 37
M  V30 37 1 12 38
M  V30 38 1 38 39
M  V30 39 1 8 40
M  V30 40 1 40 41
M  V30 41 1 41 5
M  V30 42 1 39 9
M  V30 43 1 36 13
M  V30 44 2 35 21
M  V30 45 1 27 25
M  V30 46 1 34 28
M  V30 47 1 1 42
M  V30 48 1 1 43
M  V30 49 1 1 44
M  V30 50 1 6 45
M  V30 51 1 6 46
M  V30 52 1 7 47
M  V30 53 1 7 48
M  V30 54 1 8 49
M  V30 55 1 10 50
M  V30 56 1 10 51
M  V30 57 1 11 52
M  V30 58 1 11 53
M  V30 59 1 14 54
M  V30 60 1 18 55
M  V30 61 1 20 56
M  V30 62 1 24 57
M  V30 63 1 25 58
M  V30 64 1 26 59
M  V30 65 1 26 60
M  V30 66 1 27 61
M  V30 67 1 27 62
M  V30 68 1 30 63
M  V30 69 1 38 64
M  V30 70 1 38 65
M  V30 71 1 39 66
M  V30 72 1 39 67
M  V30 73 1 40 68
M  V30 74 1 40 69
M  V30 75 1 41 70
M  V30 76 1 41 71
M  V30 END BOND
M  V30 END CTAB
M  END
>  <Dataset>  (463) 
ChEMBL_Kinases

>  <Ligand_Instance>  (463) 
nan

>  <PDB_ID>  (463) 
nan

>  <Standardized_SMILES>  (463) 
COC(=O)N1CCC(N2CCN(c3cc(C#N)cc(Nc4nc(NC5CC5)c5ncc(C#N)n5n4)c3Cl)CC2)CC1

>  <Name>  (463) 
nan

>  <Pocket>  (463) 
nan

>  <ATP_Site>  (463) 
nan

>  <Peripheral>  (463) 
nan

>  <Num_H_Atoms_ProtBoundConf>  (463) 
nan

>  <Num_Resolved_Atoms>  (463) 
nan

>  <Num_Not_Resolved_Atoms>  (463) 
nan

$$$$
CHEMBL4472964
     RDKit          3D

  0  0  0  0  0  0  0  0  0  0999 V3000
M  V30 BEGIN CTAB
M  V30 COUNTS 54 57 0 0 0
M  V30 BEGIN ATOM
M  V30 1 N 5.902173 -3.945883 3.649053 0
M  V30 2 C 4.958398 -4.303781 2.587545 0
M  V30 3 C 4.301963 -3.074774 2.094859 0
M  V30 4 C 3.145085 -2.696274 2.719017 0
M  V30 5 C 2.456575 -1.546585 2.317244 0
M  V30 6 C 2.978232 -0.805283 1.273097 0
M  V30 7 C 2.216651 0.381477 0.898578 0
M  V30 8 O 1.155991 0.657713 1.529591 0
M  V30 9 N 2.549238 1.290100 -0.132876 0
M  V30 10 C 1.537451 2.322346 -0.175473 0
M  V30 11 C 1.554171 3.513876 0.524975 0
M  V30 12 C 0.497429 4.386355 0.362287 0
M  V30 13 C -0.572957 4.097010 -0.481754 0
M  V30 14 C -0.594335 2.910563 -1.182206 0
M  V30 15 N -1.667106 2.538747 -2.074591 0
M  V30 16 C -2.701525 1.811451 -1.379283 0
M  V30 17 O -2.322704 1.728791 -0.160551 0
M  V30 18 C -3.859702 1.386796 -2.245310 0
M  V30 19 O -4.830383 0.684617 -1.511691 0
M  V30 20 C -4.570297 -0.492034 -0.848491 0
M  V30 21 C -5.674252 -1.028060 -0.177317 0
M  V30 22 C -5.532432 -2.216841 0.529101 0
M  V30 23 C -4.336020 -2.895677 0.595618 0
M  V30 24 C -4.130654 -4.073654 1.275872 0
M  V30 25 O -5.109370 -4.576716 1.888359 0
M  V30 26 C -2.902359 -4.710755 1.306533 0
M  V30 27 C -1.890279 -4.086515 0.607604 0
M  V30 28 O -2.088594 -2.963394 -0.040333 0
M  V30 29 C -3.255622 -2.362024 -0.066950 0
M  V30 30 C -3.394400 -1.191158 -0.763011 0
M  V30 31 C 0.465541 2.024838 -1.025164 0
M  V30 32 C 4.128211 -1.153598 0.629472 0
M  V30 33 C 4.774555 -2.304429 1.066417 0
M  V30 34 H 5.350462 -3.663334 4.497164 0
M  V30 35 H 6.398832 -3.114826 3.311050 0
M  V30 36 H 5.463926 -4.799470 1.752901 0
M  V30 37 H 4.225080 -4.996760 3.055562 0
M  V30 38 H 2.722685 -3.273498 3.545313 0
M  V30 39 H 1.548847 -1.294765 2.844839 0
M  V30 40 H 3.422962 1.092439 -0.677025 0
M  V30 41 H 2.402260 3.667864 1.150184 0
M  V30 42 H 0.507555 5.312547 0.905149 0
M  V30 43 H -1.406945 4.782038 -0.612138 0
M  V30 44 H -1.624634 2.801090 -3.084429 0
M  V30 45 H -3.430920 0.705096 -3.009408 0
M  V30 46 H -4.241338 2.263518 -2.762563 0
M  V30 47 H -6.655454 -0.572669 -0.168179 0
M  V30 48 H -6.346138 -2.681418 1.067607 0
M  V30 49 H -2.767683 -5.628405 1.844241 0
M  V30 50 H -0.924744 -4.609456 0.645975 0
M  V30 51 H -2.570618 -0.761306 -1.283927 0
M  V30 52 H 0.422863 1.097743 -1.588988 0
M  V30 53 H 4.524930 -0.560475 -0.189211 0
M  V30 54 H 5.680356 -2.596650 0.574360 0
M  V30 END ATOM
M  V30 BEGIN BOND
M  V30 1 1 1 2
M  V30 2 1 2 3
M  V30 3 2 3 4
M  V30 4 1 4 5
M  V30 5 2 5 6
M  V30 6 1 6 7
M  V30 7 2 7 8
M  V30 8 1 7 9
M  V30 9 1 9 10
M  V30 10 2 10 11
M  V30 11 1 11 12
M  V30 12 2 12 13
M  V30 13 1 13 14
M  V30 14 1 14 15
M  V30 15 1 15 16
M  V30 16 2 16 17
M  V30 17 1 16 18
M  V30 18 1 18 19
M  V30 19 1 19 20
M  V30 20 2 20 21
M  V30 21 1 21 22
M  V30 22 2 22 23
M  V30 23 1 23 24
M  V30 24 2 24 25
M  V30 25 1 24 26
M  V30 26 2 26 27
M  V30 27 1 27 28
M  V30 28 1 28 29
M  V30 29 2 29 30
M  V30 30 2 14 31
M  V30 31 1 6 32
M  V30 32 2 32 33
M  V30 33 1 33 3
M  V30 34 1 31 10
M  V30 35 1 30 20
M  V30 36 1 29 23
M  V30 37 1 1 34
M  V30 38 1 1 35
M  V30 39 1 2 36
M  V30 40 1 2 37
M  V30 41 1 4 38
M  V30 42 1 5 39
M  V30 43 1 9 40
M  V30 44 1 11 41
M  V30 45 1 12 42
M  V30 46 1 13 43
M  V30 47 1 15 44
M  V30 48 1 18 45
M  V30 49 1 18 46
M  V30 50 1 21 47
M  V30 51 1 22 48
M  V30 52 1 26 49
M  V30 53 1 27 50
M  V30 54 1 30 51
M  V30 55 1 31 52
M  V30 56 1 32 53
M  V30 57 1 33 54
M  V30 END BOND
M  V30 END CTAB
M  END
>  <Dataset>  (464) 
ChEMBL_Kinases

>  <Ligand_Instance>  (464) 
nan

>  <PDB_ID>  (464) 
nan

>  <Standardized_SMILES>  (464) 
NCc1ccc(C(=O)Nc2cccc(NC(=O)COc3ccc4c(=O)ccoc4c3)c2)cc1

>  <Name>  (464) 
nan

>  <Pocket>  (464) 
nan

>  <ATP_Site>  (464) 
nan

>  <Peripheral>  (464) 
nan

>  <Num_H_Atoms_ProtBoundConf>  (464) 
nan

>  <Num_Resolved_Atoms>  (464) 
nan

>  <Num_Not_Resolved_Atoms>  (464) 
nan

$$$$
CHEMBL4472858
     RDKit          3D

  0  0  0  0  0  0  0  0  0  0999 V3000
M  V30 BEGIN CTAB
M  V30 COUNTS 45 47 0 0 0
M  V30 BEGIN ATOM
M  V30 1 C 6.588813 -4.468495 1.723473 0
M  V30 2 O 5.872480 -3.661035 0.815269 0
M  V30 3 C 4.982243 -2.708780 1.230033 0
M  V30 4 C 4.625415 -2.364945 2.537106 0
M  V30 5 C 3.694384 -1.362092 2.760765 0
M  V30 6 C 3.107632 -0.690411 1.706209 0
M  V30 7 C 3.443862 -1.012153 0.406994 0
M  V30 8 C 2.788806 -0.264506 -0.701116 0 CFG=1
M  V30 9 C 3.003839 -0.933794 -2.034315 0
M  V30 10 N 1.364166 -0.199536 -0.361356 0
M  V30 11 C 0.616122 0.979433 -0.176219 0
M  V30 12 O 1.299575 2.022531 -0.332904 0
M  V30 13 C -0.802636 0.897254 0.161288 0
M  V30 14 C -1.550039 -0.250082 0.332917 0
M  V30 15 C -2.888365 -0.123920 0.652383 0
M  V30 16 C -3.504514 1.103174 0.805967 0
M  V30 17 C -4.923270 1.034720 1.143511 0
M  V30 18 C -5.307832 0.127366 2.128295 0
M  V30 19 C -6.644354 0.022101 2.487318 0
M  V30 20 N -7.608208 0.764786 1.923512 0
M  V30 21 C -7.238865 1.638840 0.975075 0
M  V30 22 C -5.928289 1.791786 0.573048 0
M  V30 23 F -5.530606 2.668231 -0.383200 0
M  V30 24 C -2.755510 2.251406 0.633962 0
M  V30 25 C -1.401135 2.134520 0.310727 0
M  V30 26 C 4.373790 -2.013882 0.185477 0
M  V30 27 H 7.538320 -3.969584 2.001825 0
M  V30 28 H 6.863527 -5.428373 1.216273 0
M  V30 29 H 5.946637 -4.674226 2.581617 0
M  V30 30 H 5.134510 -2.942444 3.293013 0
M  V30 31 H 3.490889 -1.176294 3.815784 0
M  V30 32 H 2.383759 0.085845 1.984025 0
M  V30 33 H 3.198948 0.754558 -0.792845 0
M  V30 34 H 4.077410 -0.781297 -2.292671 0
M  V30 35 H 2.457000 -0.321685 -2.776069 0
M  V30 36 H 2.753637 -2.005634 -2.039129 0
M  V30 37 H 0.973294 -1.164750 -0.273924 0
M  V30 38 H -1.011550 -1.172211 0.199527 0
M  V30 39 H -3.408866 -1.064563 0.771113 0
M  V30 40 H -4.653378 -0.524424 2.659344 0
M  V30 41 H -6.985183 -0.671562 3.249046 0
M  V30 42 H -8.008325 2.245543 0.511106 0
M  V30 43 H -3.293874 3.167549 0.767290 0
M  V30 44 H -0.882574 3.088155 0.192525 0
M  V30 45 H 4.577147 -2.200125 -0.851924 0
M  V30 END ATOM
M  V30 BEGIN BOND
M  V30 1 1 1 2
M  V30 2 1 2 3
M  V30 3 2 3 4
M  V30 4 1 4 5
M  V30 5 2 5 6
M  V30 6 1 6 7
M  V30 7 1 7 8
M  V30 8 1 8 9
M  V30 9 1 8 10
M  V30 10 1 10 11
M  V30 11 2 11 12
M  V30 12 1 11 13
M  V30 13 2 13 14
M  V30 14 1 14 15
M  V30 15 2 15 16
M  V30 16 1 16 17
M  V30 17 2 17 18
M  V30 18 1 18 19
M  V30 19 2 19 20
M  V30 20 1 20 21
M  V30 21 2 21 22
M  V30 22 1 22 23
M  V30 23 1 16 24
M  V30 24 2 24 25
M  V30 25 2 7 26
M  V30 26 1 26 3
M  V30 27 1 25 13
M  V30 28 1 22 17
M  V30 29 1 1 27
M  V30 30 1 1 28
M  V30 31 1 1 29
M  V30 32 1 4 30
M  V30 33 1 5 31
M  V30 34 1 6 32
M  V30 35 1 8 33 CFG=3
M  V30 36 1 9 34
M  V30 37 1 9 35
M  V30 38 1 9 36
M  V30 39 1 10 37
M  V30 40 1 14 38
M  V30 41 1 15 39
M  V30 42 1 18 40
M  V30 43 1 19 41
M  V30 44 1 21 42
M  V30 45 1 24 43
M  V30 46 1 25 44
M  V30 47 1 26 45
M  V30 END BOND
M  V30 END CTAB
M  END
>  <Dataset>  (465) 
ChEMBL_Kinases

>  <Ligand_Instance>  (465) 
nan

>  <PDB_ID>  (465) 
nan

>  <Standardized_SMILES>  (465) 
COc1cccc([C@@H](C)NC(=O)c2ccc(-c3ccncc3F)cc2)c1

>  <Name>  (465) 
nan

>  <Pocket>  (465) 
nan

>  <ATP_Site>  (465) 
nan

>  <Peripheral>  (465) 
nan

>  <Num_H_Atoms_ProtBoundConf>  (465) 
nan

>  <Num_Resolved_Atoms>  (465) 
nan

>  <Num_Not_Resolved_Atoms>  (465) 
nan

$$$$
CHEMBL4472817
     RDKit          3D

  0  0  0  0  0  0  0  0  0  0999 V3000
M  V30 BEGIN CTAB
M  V30 COUNTS 35 37 0 0 0
M  V30 BEGIN ATOM
M  V30 1 C 0.376896 -2.655930 4.304591 0
M  V30 2 C -0.259388 -3.607836 3.329202 0
M  V30 3 C 0.310717 -3.464373 1.911809 0
M  V30 4 N 0.133063 -2.221973 1.306611 0
M  V30 5 C -0.048062 -0.954566 0.689063 0
M  V30 6 N 0.530882 -0.500636 -0.427225 0
M  V30 7 C 0.409777 0.688388 -0.993100 0
M  V30 8 C 1.113800 1.036286 -2.222720 0
M  V30 9 C 1.927542 0.085798 -2.802776 0
M  V30 10 C 2.541260 0.540139 -3.968617 0
M  V30 11 N 2.368150 1.766948 -4.482436 0
M  V30 12 C 1.559150 2.648105 -3.866105 0
M  V30 13 C 0.899956 2.295711 -2.698218 0
M  V30 14 N -0.405078 1.509148 -0.331229 0
M  V30 15 C -1.057754 1.225208 0.783515 0
M  V30 16 C -1.861217 2.224664 1.296776 0
M  V30 17 N -2.542788 1.924990 2.437829 0
M  V30 18 C -2.422762 0.716172 3.012055 0
M  V30 19 C -1.600669 -0.227288 2.438687 0
M  V30 20 C -0.873098 -0.037426 1.303023 0
M  V30 21 H 1.008243 -3.192996 5.038319 0
M  V30 22 H -0.400971 -2.111018 4.912473 0
M  V30 23 H 0.997499 -1.881433 3.769754 0
M  V30 24 H -0.031062 -4.639384 3.692232 0
M  V30 25 H -1.355511 -3.486657 3.349447 0
M  V30 26 H -0.030620 -4.375594 1.317741 0
M  V30 27 H 1.417365 -3.677454 2.091003 0
M  V30 28 H 0.742324 -2.619689 0.518570 0
M  V30 29 H 2.067565 -0.887808 -2.398768 0
M  V30 30 H 3.206662 -0.136004 -4.505875 0
M  V30 31 H 1.395415 3.659225 -4.259218 0
M  V30 32 H 0.238057 2.989834 -2.177240 0
M  V30 33 H -1.937117 3.184891 0.812783 0
M  V30 34 H -2.977619 0.483315 3.933280 0
M  V30 35 H -1.546445 -1.172212 2.914056 0
M  V30 END ATOM
M  V30 BEGIN BOND
M  V30 1 1 1 2
M  V30 2 1 2 3
M  V30 3 1 3 4
M  V30 4 1 4 5
M  V30 5 2 5 6
M  V30 6 1 6 7
M  V30 7 1 7 8
M  V30 8 2 8 9
M  V30 9 1 9 10
M  V30 10 2 10 11
M  V30 11 1 11 12
M  V30 12 2 12 13
M  V30 13 2 7 14
M  V30 14 1 14 15
M  V30 15 2 15 16
M  V30 16 1 16 17
M  V30 17 2 17 18
M  V30 18 1 18 19
M  V30 19 2 19 20
M  V30 20 1 20 5
M  V30 21 1 13 8
M  V30 22 1 20 15
M  V30 23 1 1 21
M  V30 24 1 1 22
M  V30 25 1 1 23
M  V30 26 1 2 24
M  V30 27 1 2 25
M  V30 28 1 3 26
M  V30 29 1 3 27
M  V30 30 1 4 28
M  V30 31 1 9 29
M  V30 32 1 10 30
M  V30 33 1 12 31
M  V30 34 1 13 32
M  V30 35 1 16 33
M  V30 36 1 18 34
M  V30 37 1 19 35
M  V30 END BOND
M  V30 END CTAB
M  END
>  <Dataset>  (466) 
ChEMBL_Kinases

>  <Ligand_Instance>  (466) 
nan

>  <PDB_ID>  (466) 
nan

>  <Standardized_SMILES>  (466) 
CCCNc1nc(-c2ccncc2)nc2cnccc12

>  <Name>  (466) 
nan

>  <Pocket>  (466) 
nan

>  <ATP_Site>  (466) 
nan

>  <Peripheral>  (466) 
nan

>  <Num_H_Atoms_ProtBoundConf>  (466) 
nan

>  <Num_Resolved_Atoms>  (466) 
nan

>  <Num_Not_Resolved_Atoms>  (466) 
nan

$$$$
CHEMBL4472803
     RDKit          3D

  0  0  0  0  0  0  0  0  0  0999 V3000
M  V30 BEGIN CTAB
M  V30 COUNTS 58 62 0 0 0
M  V30 BEGIN ATOM
M  V30 1 C 6.691634 0.258452 0.575091 0
M  V30 2 C 5.838315 -0.228685 -0.562994 0 CFG=1
M  V30 3 N 5.933232 -1.655388 -0.607930 0
M  V30 4 C 4.663151 -2.244225 -0.372544 0
M  V30 5 O 4.390509 -3.470932 -0.342528 0
M  V30 6 C 3.761886 -1.112181 -0.176615 0
M  V30 7 C 2.468612 -0.781003 0.080444 0
M  V30 8 C 2.264185 0.577401 0.145490 0
M  V30 9 C 1.106726 1.426490 0.383589 0
M  V30 10 C 1.307040 2.791610 0.356970 0
M  V30 11 C 0.277560 3.692558 0.568826 0
M  V30 12 C -0.986107 3.198184 0.813716 0
M  V30 13 C -1.141638 1.810302 0.831378 0
M  V30 14 C -2.404301 1.302955 1.076697 0
M  V30 15 O -3.332644 2.130492 1.269882 0
M  V30 16 N -2.688436 -0.014489 1.120655 0
M  V30 17 C -4.027678 -0.499286 1.365713 0
M  V30 18 C -4.855754 -0.787469 0.177180 0
M  V30 19 C -5.187612 0.260208 -0.809325 0
M  V30 20 O -6.507793 -0.235837 -0.815614 0
M  V30 21 C -6.365574 -0.770545 0.467877 0
M  V30 22 C -1.636263 -0.874987 0.904720 0
M  V30 23 N -1.867233 -2.305091 0.923827 0
M  V30 24 C -0.952909 -3.376170 0.737066 0
M  V30 25 C -1.691262 -4.698567 0.822260 0
M  V30 26 C -0.382975 -3.305369 -0.662804 0
M  V30 27 C 0.181054 -3.427101 1.717699 0
M  V30 28 N -0.375134 -0.413806 0.659680 0
M  V30 29 C -0.136321 0.886513 0.624143 0
M  V30 30 N 3.505927 1.054096 -0.086550 0
M  V30 31 C 4.416006 0.097337 -0.280958 0
M  V30 32 H 6.114982 0.227900 1.510181 0
M  V30 33 H 7.557553 -0.422639 0.667883 0
M  V30 34 H 7.106594 1.266429 0.350080 0
M  V30 35 H 6.158946 0.265344 -1.501580 0
M  V30 36 H 6.848583 -2.121002 -0.794127 0
M  V30 37 H 1.668836 -1.490312 0.221203 0
M  V30 38 H 2.246983 3.296716 0.176111 0
M  V30 39 H 0.378983 4.750450 0.558812 0
M  V30 40 H -1.816599 3.855512 0.983897 0
M  V30 41 H -4.565961 0.336457 1.930158 0
M  V30 42 H -4.096300 -1.343081 2.074593 0
M  V30 43 H -4.671097 -1.798052 -0.303857 0
M  V30 44 H -5.166510 1.304991 -0.518511 0
M  V30 45 H -4.664792 0.121108 -1.777943 0
M  V30 46 H -6.819745 -1.754344 0.634774 0
M  V30 47 H -6.568303 -0.090786 1.311021 0
M  V30 48 H -2.880887 -2.583349 1.102594 0
M  V30 49 H -1.219870 -5.495096 0.222930 0
M  V30 50 H -2.701809 -4.518605 0.381668 0
M  V30 51 H -1.868593 -5.019539 1.873610 0
M  V30 52 H 0.667574 -3.699286 -0.673522 0
M  V30 53 H -0.950858 -3.923559 -1.385102 0
M  V30 54 H -0.330260 -2.226321 -0.976602 0
M  V30 55 H 0.295938 -2.404219 2.126558 0
M  V30 56 H 1.090054 -3.890545 1.337833 0
M  V30 57 H -0.167296 -4.033938 2.580521 0
M  V30 58 H 3.832259 2.066450 -0.130957 0
M  V30 END ATOM
M  V30 BEGIN BOND
M  V30 1 1 1 2
M  V30 2 1 2 3
M  V30 3 1 3 4
M  V30 4 2 4 5
M  V30 5 1 4 6
M  V30 6 1 6 7
M  V30 7 2 7 8
M  V30 8 1 8 9
M  V30 9 2 9 10
M  V30 10 1 10 11
M  V30 11 2 11 12
M  V30 12 1 12 13
M  V30 13 1 13 14
M  V30 14 2 14 15
M  V30 15 1 14 16
M  V30 16 1 16 17
M  V30 17 1 17 18
M  V30 18 1 18 19
M  V30 19 1 19 20
M  V30 20 1 20 21
M  V30 21 1 16 22
M  V30 22 1 22 23
M  V30 23 1 23 24
M  V30 24 1 24 25
M  V30 25 1 24 26
M  V30 26 1 24 27
M  V30 27 2 22 28
M  V30 28 1 28 29
M  V30 29 1 8 30
M  V30 30 1 30 31
M  V30 31 1 31 2
M  V30 32 2 31 6
M  V30 33 1 29 9
M  V30 34 2 29 13
M  V30 35 1 21 18
M  V30 36 1 1 32
M  V30 37 1 1 33
M  V30 38 1 1 34
M  V30 39 1 2 35 CFG=3
M  V30 40 1 3 36
M  V30 41 1 7 37
M  V30 42 1 10 38
M  V30 43 1 11 39
M  V30 44 1 12 40
M  V30 45 1 17 41
M  V30 46 1 17 42
M  V30 47 1 18 43
M  V30 48 1 19 44
M  V30 49 1 19 45
M  V30 50 1 21 46
M  V30 51 1 21 47
M  V30 52 1 23 48
M  V30 53 1 25 49
M  V30 54 1 25 50
M  V30 55 1 25 51
M  V30 56 1 26 52
M  V30 57 1 26 53
M  V30 58 1 26 54
M  V30 59 1 27 55
M  V30 60 1 27 56
M  V30 61 1 27 57
M  V30 62 1 30 58
M  V30 END BOND
M  V30 END CTAB
M  END
>  <Dataset>  (467) 
ChEMBL_Kinases

>  <Ligand_Instance>  (467) 
nan

>  <PDB_ID>  (467) 
nan

>  <Standardized_SMILES>  (467) 
C[C@H]1NC(=O)c2cc(-c3cccc4c(=O)n(CC5COC5)c(NC(C)(C)C)nc34)[nH]c21

>  <Name>  (467) 
nan

>  <Pocket>  (467) 
nan

>  <ATP_Site>  (467) 
nan

>  <Peripheral>  (467) 
nan

>  <Num_H_Atoms_ProtBoundConf>  (467) 
nan

>  <Num_Resolved_Atoms>  (467) 
nan

>  <Num_Not_Resolved_Atoms>  (467) 
nan

$$$$
CHEMBL3699239
     RDKit          3D

  0  0  0  0  0  0  0  0  0  0999 V3000
M  V30 BEGIN CTAB
M  V30 COUNTS 60 64 0 0 0
M  V30 BEGIN ATOM
M  V30 1 C 5.703513 0.237965 6.195993 0
M  V30 2 C 4.535042 -0.488069 5.613637 0 CFG=1
M  V30 3 O 3.395748 -0.415869 6.433018 0
M  V30 4 C 4.249609 -0.234102 4.186192 0
M  V30 5 N 3.698264 0.996430 3.793469 0
M  V30 6 C 2.348472 1.255946 4.212875 0
M  V30 7 C 1.342680 0.392283 3.475430 0
M  V30 8 N 1.428968 0.821617 2.070788 0
M  V30 9 C 0.500920 0.526939 1.035935 0
M  V30 10 C -0.110998 1.613506 0.446966 0
M  V30 11 C -1.019927 1.370517 -0.561919 0
M  V30 12 C -1.660329 2.486345 -1.179766 0
M  V30 13 N -2.178658 3.394916 -1.677183 0
M  V30 14 C -1.259610 0.060386 -0.917665 0
M  V30 15 C -0.667417 -1.048388 -0.351964 0
M  V30 16 N -0.938908 -2.384751 -0.746034 0
M  V30 17 C -1.826115 -2.862237 -1.746869 0
M  V30 18 N -2.595536 -2.125605 -2.521818 0
M  V30 19 C -3.423040 -2.595929 -3.459643 0
M  V30 20 N -4.221550 -1.730427 -4.253381 0
M  V30 21 C -4.246373 -0.289186 -4.156773 0
M  V30 22 C -4.669913 0.238325 -2.789903 0
M  V30 23 C -5.545281 0.426265 -4.067239 0
M  V30 24 C -3.503664 -3.935681 -3.658043 0
M  V30 25 N -4.179381 -4.746799 -4.459236 0
M  V30 26 C -3.828750 -6.031056 -4.184314 0
M  V30 27 C -2.888627 -5.985762 -3.159378 0
M  V30 28 C -2.294475 -7.158932 -2.610592 0
M  V30 29 N -1.829679 -8.109922 -2.159254 0
M  V30 30 N -2.718160 -4.679860 -2.866384 0
M  V30 31 N -1.919515 -4.164623 -1.956081 0
M  V30 32 C 0.223352 -0.760781 0.640358 0
M  V30 33 Cl 1.053622 -2.068314 1.448651 0
M  V30 34 C 2.557089 1.621770 1.686901 0
M  V30 35 C 3.812691 1.168686 2.370270 0
M  V30 36 H 6.608470 -0.417119 6.366141 0
M  V30 37 H 5.444700 0.564963 7.245621 0
M  V30 38 H 6.060826 1.050620 5.558102 0
M  V30 39 H 4.808726 -1.585236 5.675201 0
M  V30 40 H 2.769028 -1.125375 6.109302 0
M  V30 41 H 5.219148 -0.358676 3.638817 0
M  V30 42 H 3.605304 -1.050494 3.793716 0
M  V30 43 H 2.217717 1.248860 5.298297 0
M  V30 44 H 2.115782 2.300731 3.905148 0
M  V30 45 H 0.350697 0.679221 3.846953 0
M  V30 46 H 1.584994 -0.666621 3.498809 0
M  V30 47 H 0.112830 2.621337 0.763702 0
M  V30 48 H -1.981988 -0.039332 -1.712499 0
M  V30 49 H -0.391199 -3.118664 -0.203202 0
M  V30 50 H -4.857543 -2.081346 -4.975243 0
M  V30 51 H -3.401949 0.275514 -4.602668 0
M  V30 52 H -5.063085 -0.502992 -2.051983 0
M  V30 53 H -4.173572 1.131762 -2.389645 0
M  V30 54 H -6.508746 -0.134387 -4.043408 0
M  V30 55 H -5.616218 1.451888 -4.470656 0
M  V30 56 H -4.281701 -6.842166 -4.743221 0
M  V30 57 H 2.757855 1.577434 0.596543 0
M  V30 58 H 2.413386 2.698439 1.917850 0
M  V30 59 H 4.617774 1.939106 2.182550 0
M  V30 60 H 4.221375 0.241969 1.933598 0
M  V30 END ATOM
M  V30 BEGIN BOND
M  V30 1 1 1 2
M  V30 2 1 2 3
M  V30 3 1 2 4
M  V30 4 1 4 5
M  V30 5 1 5 6
M  V30 6 1 6 7
M  V30 7 1 7 8
M  V30 8 1 8 9
M  V30 9 2 9 10
M  V30 10 1 10 11
M  V30 11 1 11 12
M  V30 12 3 12 13
M  V30 13 2 11 14
M  V30 14 1 14 15
M  V30 15 1 15 16
M  V30 16 1 16 17
M  V30 17 1 17 18
M  V30 18 2 18 19
M  V30 19 1 19 20
M  V30 20 1 20 21
M  V30 21 1 21 22
M  V30 22 1 22 23
M  V30 23 1 19 24
M  V30 24 2 24 25
M  V30 25 1 25 26
M  V30 26 2 26 27
M  V30 27 1 27 28
M  V30 28 3 28 29
M  V30 29 1 27 30
M  V30 30 1 30 31
M  V30 31 2 15 32
M  V30 32 1 32 33
M  V30 33 1 8 34
M  V30 34 1 34 35
M  V30 35 1 35 5
M  V30 36 1 32 9
M  V30 37 2 31 17
M  V30 38 1 23 21
M  V30 39 1 30 24
M  V30 40 1 1 36
M  V30 41 1 1 37
M  V30 42 1 1 38
M  V30 43 1 2 39 CFG=3
M  V30 44 1 3 40
M  V30 45 1 4 41
M  V30 46 1 4 42
M  V30 47 1 6 43
M  V30 48 1 6 44
M  V30 49 1 7 45
M  V30 50 1 7 46
M  V30 51 1 10 47
M  V30 52 1 14 48
M  V30 53 1 16 49
M  V30 54 1 20 50
M  V30 55 1 21 51
M  V30 56 1 22 52
M  V30 57 1 22 53
M  V30 58 1 23 54
M  V30 59 1 23 55
M  V30 60 1 26 56
M  V30 61 1 34 57
M  V30 62 1 34 58
M  V30 63 1 35 59
M  V30 64 1 35 60
M  V30 END BOND
M  V30 END CTAB
M  END
>  <Dataset>  (468) 
ChEMBL_Kinases

>  <Ligand_Instance>  (468) 
nan

>  <PDB_ID>  (468) 
nan

>  <Standardized_SMILES>  (468) 
C[C@@H](O)CN1CCN(c2cc(C#N)cc(Nc3nc(NC4CC4)c4ncc(C#N)n4n3)c2Cl)CC1

>  <Name>  (468) 
nan

>  <Pocket>  (468) 
nan

>  <ATP_Site>  (468) 
nan

>  <Peripheral>  (468) 
nan

>  <Num_H_Atoms_ProtBoundConf>  (468) 
nan

>  <Num_Resolved_Atoms>  (468) 
nan

>  <Num_Not_Resolved_Atoms>  (468) 
nan

$$$$
CHEMBL3699238
     RDKit          3D

  0  0  0  0  0  0  0  0  0  0999 V3000
M  V30 BEGIN CTAB
M  V30 COUNTS 61 66 0 0 0
M  V30 BEGIN ATOM
M  V30 1 N -3.490550 -2.042748 4.251735 0
M  V30 2 C -2.613898 -1.962662 3.522755 0
M  V30 3 C -1.501568 -1.859591 2.601986 0
M  V30 4 C -0.858004 -0.641253 2.405387 0
M  V30 5 C 0.196172 -0.455567 1.558344 0
M  V30 6 N 0.855651 0.781537 1.352352 0
M  V30 7 C 0.568686 2.024000 1.963404 0
M  V30 8 N 1.269873 3.113612 1.674088 0
M  V30 9 C 1.089749 4.333611 2.187307 0
M  V30 10 N 1.922719 5.405784 1.777848 0
M  V30 11 C 2.962176 5.211316 0.817910 0
M  V30 12 C 2.763659 4.744257 -0.548421 0
M  V30 13 C 2.910821 6.227698 -0.361279 0
M  V30 14 C 0.095121 4.526067 3.106414 0
M  V30 15 N -0.359333 5.567628 3.805621 0
M  V30 16 C -1.395747 5.154351 4.583773 0
M  V30 17 C -1.544370 3.810502 4.319292 0
M  V30 18 C -2.548317 2.981496 4.947370 0
M  V30 19 N -3.367981 2.322775 5.461689 0
M  V30 20 N -0.628456 3.445195 3.417714 0
M  V30 21 N -0.384326 2.281196 2.865297 0
M  V30 22 C 0.617985 -1.570337 0.874723 0
M  V30 23 Cl 1.989237 -1.372721 -0.221410 0
M  V30 24 C 0.054454 -2.813690 0.995333 0
M  V30 25 N 0.457950 -3.986336 0.281945 0
M  V30 26 C 0.007172 -5.311684 0.581034 0
M  V30 27 C -0.768729 -5.917598 -0.585199 0
M  V30 28 N -0.086236 -5.655550 -1.819768 0
M  V30 29 C -0.790031 -5.162384 -2.909683 0
M  V30 30 C -1.523892 -3.888599 -2.792786 0
M  V30 31 C -2.974681 -4.283572 -2.971069 0
M  V30 32 O -2.988226 -5.659371 -2.647245 0
M  V30 33 C -1.869686 -6.156829 -3.309652 0
M  V30 34 C 1.267968 -5.290052 -1.618049 0
M  V30 35 C 1.341404 -4.002113 -0.836744 0
M  V30 36 C -1.021449 -2.951490 1.874654 0
M  V30 37 H -1.253313 0.163151 2.976518 0
M  V30 38 H 1.656333 0.809597 0.670549 0
M  V30 39 H 1.772436 6.361405 2.188326 0
M  V30 40 H 3.976296 5.097867 1.273370 0
M  V30 41 H 3.635668 4.250857 -1.039401 0
M  V30 42 H 1.804037 4.365560 -0.939551 0
M  V30 43 H 3.849896 6.734973 -0.604053 0
M  V30 44 H 2.003746 6.843229 -0.452842 0
M  V30 45 H -1.985380 5.750187 5.269829 0
M  V30 46 H 0.936803 -5.938220 0.747231 0
M  V30 47 H -0.517511 -5.366002 1.538337 0
M  V30 48 H -1.808811 -5.598034 -0.638591 0
M  V30 49 H -0.758946 -7.012959 -0.428819 0
M  V30 50 H -0.110165 -5.131273 -3.816219 0
M  V30 51 H -1.287472 -3.233952 -3.656129 0
M  V30 52 H -1.358908 -3.280815 -1.893368 0
M  V30 53 H -3.316253 -4.215083 -4.023141 0
M  V30 54 H -3.654131 -3.729691 -2.323171 0
M  V30 55 H -2.027224 -6.194129 -4.406941 0
M  V30 56 H -1.580825 -7.153744 -2.938521 0
M  V30 57 H 1.720632 -5.132284 -2.642094 0
M  V30 58 H 1.810397 -6.100873 -1.082798 0
M  V30 59 H 2.401653 -3.829234 -0.487419 0
M  V30 60 H 1.004595 -3.216900 -1.559040 0
M  V30 61 H -1.596685 -3.851125 2.096700 0
M  V30 END ATOM
M  V30 BEGIN BOND
M  V30 1 3 1 2
M  V30 2 1 2 3
M  V30 3 2 3 4
M  V30 4 1 4 5
M  V30 5 1 5 6
M  V30 6 1 6 7
M  V30 7 1 7 8
M  V30 8 2 8 9
M  V30 9 1 9 10
M  V30 10 1 10 11
M  V30 11 1 11 12
M  V30 12 1 12 13
M  V30 13 1 9 14
M  V30 14 2 14 15
M  V30 15 1 15 16
M  V30 16 2 16 17
M  V30 17 1 17 18
M  V30 18 3 18 19
M  V30 19 1 17 20
M  V30 20 1 20 21
M  V30 21 2 5 22
M  V30 22 1 22 23
M  V30 23 1 22 24
M  V30 24 1 24 25
M  V30 25 1 25 26
M  V30 26 1 26 27
M  V30 27 1 27 28
M  V30 28 1 28 29
M  V30 29 1 29 30
M  V30 30 1 30 31
M  V30 31 1 31 32
M  V30 32 1 32 33
M  V30 33 1 28 34
M  V30 34 1 34 35
M  V30 35 2 24 36
M  V30 36 1 36 3
M  V30 37 2 21 7
M  V30 38 1 35 25
M  V30 39 1 13 11
M  V30 40 1 20 14
M  V30 41 1 33 29
M  V30 42 1 4 37
M  V30 43 1 6 38
M  V30 44 1 10 39
M  V30 45 1 11 40
M  V30 46 1 12 41
M  V30 47 1 12 42
M  V30 48 1 13 43
M  V30 49 1 13 44
M  V30 50 1 16 45
M  V30 51 1 26 46
M  V30 52 1 26 47
M  V30 53 1 27 48
M  V30 54 1 27 49
M  V30 55 1 29 50
M  V30 56 1 30 51
M  V30 57 1 30 52
M  V30 58 1 31 53
M  V30 59 1 31 54
M  V30 60 1 33 55
M  V30 61 1 33 56
M  V30 62 1 34 57
M  V30 63 1 34 58
M  V30 64 1 35 59
M  V30 65 1 35 60
M  V30 66 1 36 61
M  V30 END BOND
M  V30 END CTAB
M  END
>  <Dataset>  (469) 
ChEMBL_Kinases

>  <Ligand_Instance>  (469) 
nan

>  <PDB_ID>  (469) 
nan

>  <Standardized_SMILES>  (469) 
N#Cc1cc(Nc2nc(NC3CC3)c3ncc(C#N)n3n2)c(Cl)c(N2CCN(C3CCOC3)CC2)c1

>  <Name>  (469) 
nan

>  <Pocket>  (469) 
nan

>  <ATP_Site>  (469) 
nan

>  <Peripheral>  (469) 
nan

>  <Num_H_Atoms_ProtBoundConf>  (469) 
nan

>  <Num_Resolved_Atoms>  (469) 
nan

>  <Num_Not_Resolved_Atoms>  (469) 
nan

$$$$
CHEMBL4471862
     RDKit          3D

  0  0  0  0  0  0  0  0  0  0999 V3000
M  V30 BEGIN CTAB
M  V30 COUNTS 69 72 0 0 0
M  V30 BEGIN ATOM
M  V30 1 C 2.177071 0.257179 6.280271 0
M  V30 2 C 3.166507 1.383633 5.994762 0
M  V30 3 C 3.891771 1.180787 4.710267 0
M  V30 4 O 3.113527 1.106578 3.557714 0
M  V30 5 C 2.299568 2.049563 3.032791 0
M  V30 6 C 1.958391 3.315414 3.375226 0
M  V30 7 C 1.088410 4.137796 2.698472 0
M  V30 8 C 0.518063 3.606376 1.564096 0
M  V30 9 C 0.787477 2.310490 1.101772 0
M  V30 10 C 0.130118 1.838439 -0.114416 0 CFG=1
M  V30 11 C 0.985274 1.869718 -1.356807 0
M  V30 12 C 0.320364 1.392796 -2.593614 0
M  V30 13 N -0.130254 0.034043 -2.597908 0
M  V30 14 C -0.839852 -0.266323 -3.828172 0
M  V30 15 C -0.052383 0.017846 -5.056506 0
M  V30 16 C 1.376418 -0.373411 -5.001319 0
M  V30 17 C 1.924616 -0.807060 -3.702402 0
M  V30 18 C 0.949409 -0.933588 -2.561746 0
M  V30 19 N -0.337346 0.507298 0.103596 0
M  V30 20 C -1.711268 0.127635 0.039150 0
M  V30 21 O -2.508152 1.066495 -0.227710 0
M  V30 22 C -2.167591 -1.239947 0.263141 0
M  V30 23 C -1.377617 -2.332275 0.555407 0
M  V30 24 C -1.926736 -3.584593 0.745783 0
M  V30 25 C -3.285774 -3.817961 0.656118 0
M  V30 26 C -3.725174 -5.193055 0.880280 0
M  V30 27 C -2.845233 -6.194385 0.490028 0
M  V30 28 C -3.170264 -7.534077 0.660911 0
M  V30 29 N -4.340667 -7.894595 1.206554 0
M  V30 30 C -5.222433 -6.937724 1.598472 0
M  V30 31 F -6.423448 -7.245737 2.157166 0
M  V30 32 C -4.923639 -5.584779 1.439457 0
M  V30 33 C -4.105180 -2.721295 0.360046 0
M  V30 34 C -3.522461 -1.483615 0.175907 0
M  V30 35 C 1.680221 1.575353 1.866699 0
M  V30 36 H 1.203425 0.476282 5.802883 0
M  V30 37 H 2.556941 -0.719740 5.910343 0
M  V30 38 H 2.081993 0.121157 7.387299 0
M  V30 39 H 3.933736 1.291150 6.824439 0
M  V30 40 H 2.665377 2.329081 6.147286 0
M  V30 41 H 4.645243 2.014000 4.568413 0
M  V30 42 H 4.510469 0.237365 4.787864 0
M  V30 43 H 2.441241 3.679011 4.263433 0
M  V30 44 H 0.895323 5.121797 3.064567 0
M  V30 45 H -0.174771 4.275246 1.033542 0
M  V30 46 H -0.799574 2.467403 -0.266588 0
M  V30 47 H 1.959561 1.409810 -1.230812 0
M  V30 48 H 1.198463 2.967688 -1.525274 0
M  V30 49 H -0.612490 2.019722 -2.707545 0
M  V30 50 H 0.931711 1.690315 -3.465489 0
M  V30 51 H -1.806585 0.273791 -3.916854 0
M  V30 52 H -1.084311 -1.348922 -3.801265 0
M  V30 53 H -0.595385 -0.391308 -5.933291 0
M  V30 54 H -0.076076 1.135019 -5.225025 0
M  V30 55 H 2.042437 0.405514 -5.479331 0
M  V30 56 H 1.483292 -1.233881 -5.729041 0
M  V30 57 H 2.507846 -1.748098 -3.787458 0
M  V30 58 H 2.671830 -0.033554 -3.360901 0
M  V30 59 H 1.484669 -0.972565 -1.593115 0
M  V30 60 H 0.463203 -1.928756 -2.661031 0
M  V30 61 H 0.333647 -0.256592 0.331484 0
M  V30 62 H -0.314071 -2.156073 0.626441 0
M  V30 63 H -1.198215 -4.362390 0.970999 0
M  V30 64 H -1.856151 -6.047608 0.030800 0
M  V30 65 H -2.500191 -8.335325 0.364461 0
M  V30 66 H -5.559728 -4.760630 1.720660 0
M  V30 67 H -5.151967 -2.937279 0.298222 0
M  V30 68 H -4.249312 -0.705954 -0.048443 0
M  V30 69 H 1.825524 0.585527 1.429164 0
M  V30 END ATOM
M  V30 BEGIN BOND
M  V30 1 1 1 2
M  V30 2 1 2 3
M  V30 3 1 3 4
M  V30 4 1 4 5
M  V30 5 2 5 6
M  V30 6 1 6 7
M  V30 7 2 7 8
M  V30 8 1 8 9
M  V30 9 1 9 10
M  V30 10 1 10 11
M  V30 11 1 11 12
M  V30 12 1 12 13
M  V30 13 1 13 14
M  V30 14 1 14 15
M  V30 15 1 15 16
M  V30 16 1 16 17
M  V30 17 1 17 18
M  V30 18 1 10 19
M  V30 19 1 19 20
M  V30 20 2 20 21
M  V30 21 1 20 22
M  V30 22 2 22 23
M  V30 23 1 23 24
M  V30 24 2 24 25
M  V30 25 1 25 26
M  V30 26 2 26 27
M  V30 27 1 27 28
M  V30 28 2 28 29
M  V30 29 1 29 30
M  V30 30 1 30 31
M  V30 31 2 30 32
M  V30 32 1 25 33
M  V30 33 2 33 34
M  V30 34 2 9 35
M  V30 35 1 35 5
M  V30 36 1 18 13
M  V30 37 1 34 22
M  V30 38 1 32 26
M  V30 39 1 1 36
M  V30 40 1 1 37
M  V30 41 1 1 38
M  V30 42 1 2 39
M  V30 43 1 2 40
M  V30 44 1 3 41
M  V30 45 1 3 42
M  V30 46 1 6 43
M  V30 47 1 7 44
M  V30 48 1 8 45
M  V30 49 1 10 46 CFG=3
M  V30 50 1 11 47
M  V30 51 1 11 48
M  V30 52 1 12 49
M  V30 53 1 12 50
M  V30 54 1 14 51
M  V30 55 1 14 52
M  V30 56 1 15 53
M  V30 57 1 15 54
M  V30 58 1 16 55
M  V30 59 1 16 56
M  V30 60 1 17 57
M  V30 61 1 17 58
M  V30 62 1 18 59
M  V30 63 1 18 60
M  V30 64 1 19 61
M  V30 65 1 23 62
M  V30 66 1 24 63
M  V30 67 1 27 64
M  V30 68 1 28 65
M  V30 69 1 32 66
M  V30 70 1 33 67
M  V30 71 1 34 68
M  V30 72 1 35 69
M  V30 END BOND
M  V30 END CTAB
M  END
>  <Dataset>  (470) 
ChEMBL_Kinases

>  <Ligand_Instance>  (470) 
nan

>  <PDB_ID>  (470) 
nan

>  <Standardized_SMILES>  (470) 
CCCOc1cccc([C@@H](CCN2CCCCC2)NC(=O)c2ccc(-c3ccnc(F)c3)cc2)c1

>  <Name>  (470) 
nan

>  <Pocket>  (470) 
nan

>  <ATP_Site>  (470) 
nan

>  <Peripheral>  (470) 
nan

>  <Num_H_Atoms_ProtBoundConf>  (470) 
nan

>  <Num_Resolved_Atoms>  (470) 
nan

>  <Num_Not_Resolved_Atoms>  (470) 
nan

$$$$
CHEMBL4471849
     RDKit          3D

  0  0  0  0  0  0  0  0  0  0999 V3000
M  V30 BEGIN CTAB
M  V30 COUNTS 61 66 0 0 0
M  V30 BEGIN ATOM
M  V30 1 C 0.196502 1.566501 4.067590 0
M  V30 2 C 0.813690 1.283828 2.714124 0
M  V30 3 C 2.278356 1.098146 2.891013 0
M  V30 4 C 3.077612 0.718376 3.925167 0
M  V30 5 N 4.372547 0.696267 3.571467 0
M  V30 6 C 5.519145 0.351844 4.369177 0
M  V30 7 C 4.398869 1.068009 2.291504 0
M  V30 8 N 3.162856 1.310529 1.871782 0
M  V30 9 N 0.193104 0.169522 2.056102 0
M  V30 10 C -0.303397 -0.072609 0.829047 0
M  V30 11 N -0.224815 1.062276 -0.062713 0
M  V30 12 C -0.056891 2.287521 -0.767565 0
M  V30 13 C -0.430102 2.294865 -2.276160 0
M  V30 14 C 1.016490 3.273534 -0.473192 0
M  V30 15 C -0.392842 3.595677 -0.127723 0
M  V30 16 N -0.837415 -1.239698 0.453364 0
M  V30 17 C -0.928690 -2.285233 1.271914 0
M  V30 18 C -1.495650 -3.439236 0.785119 0
M  V30 19 C -2.006575 -3.606197 -0.566893 0
M  V30 20 C -2.570686 -4.788310 -1.015644 0
M  V30 21 C -2.957935 -4.639512 -2.329218 0
M  V30 22 C -2.629319 -3.350972 -2.695945 0
M  V30 23 N -2.068437 -2.793043 -1.603230 0
M  V30 24 C -3.027640 -3.134965 -4.113389 0 CFG=1
M  V30 25 C -1.832838 -2.813895 -4.971755 0
M  V30 26 N -3.601052 -4.412157 -4.490624 0
M  V30 27 C -3.580170 -5.362421 -3.432884 0
M  V30 28 O -4.007194 -6.543854 -3.472499 0
M  V30 29 C -1.547788 -4.465034 1.701157 0
M  V30 30 C -1.079911 -4.365252 2.993599 0
M  V30 31 C -0.535595 -3.149892 3.348651 0
M  V30 32 C -0.424776 -2.038241 2.518021 0
M  V30 33 C 0.129072 -0.850781 2.930972 0
M  V30 34 O 0.516522 -0.899610 4.140146 0
M  V30 35 H 0.038485 2.657772 4.159644 0
M  V30 36 H 0.898713 1.285345 4.846766 0
M  V30 37 H -0.806629 1.104560 4.170706 0
M  V30 38 H 0.683216 2.189923 2.120083 0
M  V30 39 H 2.739348 0.468950 4.897627 0
M  V30 40 H 6.067705 1.270626 4.698148 0
M  V30 41 H 5.251846 -0.210975 5.292199 0
M  V30 42 H 6.276658 -0.238832 3.780204 0
M  V30 43 H 5.268096 1.176000 1.634119 0
M  V30 44 H -0.637959 0.650465 -0.897028 0
M  V30 45 H 0.535834 2.376650 -2.810423 0
M  V30 46 H -1.041464 3.175481 -2.530892 0
M  V30 47 H -0.941313 1.337629 -2.524046 0
M  V30 48 H 1.411671 3.895652 -1.331241 0
M  V30 49 H 1.804907 3.116048 0.271874 0
M  V30 50 H -0.633846 3.705452 0.932000 0
M  V30 51 H -0.945534 4.360389 -0.748019 0
M  V30 52 H -2.705043 -5.718933 -0.442764 0
M  V30 53 H -1.737913 -1.819945 -1.633980 0
M  V30 54 H -3.840612 -2.377278 -4.188992 0
M  V30 55 H -0.934242 -3.309342 -4.550010 0
M  V30 56 H -1.655613 -1.745082 -5.136536 0
M  V30 57 H -2.012733 -3.280786 -5.963814 0
M  V30 58 H -3.969935 -4.548090 -5.451490 0
M  V30 59 H -1.977544 -5.445542 1.442482 0
M  V30 60 H -1.130951 -5.169859 3.681946 0
M  V30 61 H -0.168007 -3.092875 4.386383 0
M  V30 END ATOM
M  V30 BEGIN BOND
M  V30 1 1 1 2
M  V30 2 1 2 3
M  V30 3 2 3 4
M  V30 4 1 4 5
M  V30 5 1 5 6
M  V30 6 1 5 7
M  V30 7 2 7 8
M  V30 8 1 2 9
M  V30 9 1 9 10
M  V30 10 1 10 11
M  V30 11 1 11 12
M  V30 12 1 12 13
M  V30 13 1 12 14
M  V30 14 1 14 15
M  V30 15 2 10 16
M  V30 16 1 16 17
M  V30 17 2 17 18
M  V30 18 1 18 19
M  V30 19 2 19 20
M  V30 20 1 20 21
M  V30 21 2 21 22
M  V30 22 1 22 23
M  V30 23 1 22 24
M  V30 24 1 24 25
M  V30 25 1 24 26
M  V30 26 1 26 27
M  V30 27 2 27 28
M  V30 28 1 18 29
M  V30 29 2 29 30
M  V30 30 1 30 31
M  V30 31 2 31 32
M  V30 32 1 32 33
M  V30 33 2 33 34
M  V30 34 1 8 3
M  V30 35 1 33 9
M  V30 36 1 15 12
M  V30 37 1 32 17
M  V30 38 1 23 19
M  V30 39 1 27 21
M  V30 40 1 1 35
M  V30 41 1 1 36
M  V30 42 1 1 37
M  V30 43 1 2 38
M  V30 44 1 4 39
M  V30 45 1 6 40
M  V30 46 1 6 41
M  V30 47 1 6 42
M  V30 48 1 7 43
M  V30 49 1 11 44
M  V30 50 1 13 45
M  V30 51 1 13 46
M  V30 52 1 13 47
M  V30 53 1 14 48
M  V30 54 1 14 49
M  V30 55 1 15 50
M  V30 56 1 15 51
M  V30 57 1 20 52
M  V30 58 1 23 53
M  V30 59 1 24 54 CFG=1
M  V30 60 1 25 55
M  V30 61 1 25 56
M  V30 62 1 25 57
M  V30 63 1 26 58
M  V30 64 1 29 59
M  V30 65 1 30 60
M  V30 66 1 31 61
M  V30 END BOND
M  V30 END CTAB
M  END
>  <Dataset>  (471) 
ChEMBL_Kinases

>  <Ligand_Instance>  (471) 
nan

>  <PDB_ID>  (471) 
nan

>  <Standardized_SMILES>  (471) 
CC(c1cn(C)cn1)n1c(NC2(C)CC2)nc2c(-c3cc4c([nH]3)[C@@H](C)NC4=O)cccc2c1=O

>  <Name>  (471) 
nan

>  <Pocket>  (471) 
nan

>  <ATP_Site>  (471) 
nan

>  <Peripheral>  (471) 
nan

>  <Num_H_Atoms_ProtBoundConf>  (471) 
nan

>  <Num_Resolved_Atoms>  (471) 
nan

>  <Num_Not_Resolved_Atoms>  (471) 
nan

$$$$
CHEMBL4473009
     RDKit          3D

  0  0  0  0  0  0  0  0  0  0999 V3000
M  V30 BEGIN CTAB
M  V30 COUNTS 42 44 0 0 0
M  V30 BEGIN ATOM
M  V30 1 C 4.631551 -6.368178 -1.457738 0
M  V30 2 C 3.772792 -5.226201 -1.791978 0
M  V30 3 O 4.117830 -4.782791 -2.940241 0
M  V30 4 N 2.742849 -4.711251 -0.977923 0
M  V30 5 C 1.917538 -3.590602 -1.332556 0
M  V30 6 C 0.756051 -3.849801 -2.023325 0
M  V30 7 C -0.128714 -2.866333 -2.426385 0
M  V30 8 C 0.201956 -1.563477 -2.101568 0
M  V30 9 C 1.361208 -1.291990 -1.410756 0
M  V30 10 N 1.796102 0.030903 -1.023884 0
M  V30 11 C 1.334272 0.464996 0.256909 0
M  V30 12 O 0.639650 -0.483303 0.710078 0
M  V30 13 C 1.820246 1.848741 0.602678 0
M  V30 14 O 1.291383 2.143523 1.881977 0
M  V30 15 C -0.037225 2.196440 2.207577 0
M  V30 16 C -1.147995 1.986567 1.401301 0
M  V30 17 C -2.409799 2.092359 1.949255 0
M  V30 18 C -2.582669 2.400152 3.271447 0
M  V30 19 C -3.851999 2.509713 3.836943 0
M  V30 20 O -4.834944 2.316611 3.092690 0
M  V30 21 C -4.026111 2.819043 5.166513 0
M  V30 22 C -2.881936 3.015474 5.912472 0
M  V30 23 O -1.694705 2.910491 5.372922 0
M  V30 24 C -1.501644 2.615072 4.101163 0
M  V30 25 C -0.224807 2.507114 3.542799 0
M  V30 26 C 2.227384 -2.274258 -1.018190 0
M  V30 27 H 4.753510 -7.110115 -2.260764 0
M  V30 28 H 5.623601 -6.084113 -1.061705 0
M  V30 29 H 4.117492 -6.917850 -0.616051 0
M  V30 30 H 2.631658 -5.233745 -0.067937 0
M  V30 31 H 0.474603 -4.880454 -2.291394 0
M  V30 32 H -1.025809 -3.088828 -2.962310 0
M  V30 33 H -0.429284 -0.717931 -2.374191 0
M  V30 34 H 2.407340 0.504321 -1.754501 0
M  V30 35 H 2.922795 1.871621 0.664520 0
M  V30 36 H 1.458047 2.575864 -0.145397 0
M  V30 37 H -0.911469 1.753047 0.383796 0
M  V30 38 H -3.256213 1.922828 1.294520 0
M  V30 39 H -5.004496 2.910649 5.632841 0
M  V30 40 H -2.903661 3.266159 6.980476 0
M  V30 41 H 0.569832 2.695593 4.282084 0
M  V30 42 H 3.148683 -2.108607 -0.474456 0
M  V30 END ATOM
M  V30 BEGIN BOND
M  V30 1 1 1 2
M  V30 2 2 2 3
M  V30 3 1 2 4
M  V30 4 1 4 5
M  V30 5 2 5 6
M  V30 6 1 6 7
M  V30 7 2 7 8
M  V30 8 1 8 9
M  V30 9 1 9 10
M  V30 10 1 10 11
M  V30 11 2 11 12
M  V30 12 1 11 13
M  V30 13 1 13 14
M  V30 14 1 14 15
M  V30 15 2 15 16
M  V30 16 1 16 17
M  V30 17 2 17 18
M  V30 18 1 18 19
M  V30 19 2 19 20
M  V30 20 1 19 21
M  V30 21 2 21 22
M  V30 22 1 22 23
M  V30 23 1 23 24
M  V30 24 2 24 25
M  V30 25 2 9 26
M  V30 26 1 26 5
M  V30 27 1 25 15
M  V30 28 1 24 18
M  V30 29 1 1 27
M  V30 30 1 1 28
M  V30 31 1 1 29
M  V30 32 1 4 30
M  V30 33 1 6 31
M  V30 34 1 7 32
M  V30 35 1 8 33
M  V30 36 1 10 34
M  V30 37 1 13 35
M  V30 38 1 13 36
M  V30 39 1 16 37
M  V30 40 1 17 38
M  V30 41 1 21 39
M  V30 42 1 22 40
M  V30 43 1 25 41
M  V30 44 1 26 42
M  V30 END BOND
M  V30 END CTAB
M  END
>  <Dataset>  (472) 
ChEMBL_Kinases

>  <Ligand_Instance>  (472) 
nan

>  <PDB_ID>  (472) 
nan

>  <Standardized_SMILES>  (472) 
CC(=O)Nc1cccc(NC(=O)COc2ccc3c(=O)ccoc3c2)c1

>  <Name>  (472) 
nan

>  <Pocket>  (472) 
nan

>  <ATP_Site>  (472) 
nan

>  <Peripheral>  (472) 
nan

>  <Num_H_Atoms_ProtBoundConf>  (472) 
nan

>  <Num_Resolved_Atoms>  (472) 
nan

>  <Num_Not_Resolved_Atoms>  (472) 
nan

$$$$
CHEMBL2348182
     RDKit          3D

  0  0  0  0  0  0  0  0  0  0999 V3000
M  V30 BEGIN CTAB
M  V30 COUNTS 30 32 0 0 0
M  V30 BEGIN ATOM
M  V30 1 C -3.227142 -2.157413 3.089326 0
M  V30 2 N -2.522417 -3.276990 2.443882 0
M  V30 3 C -1.180842 -2.981050 2.088905 0
M  V30 4 N -0.148059 -3.366401 2.897564 0
M  V30 5 C 1.129281 -3.041916 2.517187 0
M  V30 6 C 1.281182 -2.340098 1.332766 0
M  V30 7 C 0.233732 -1.949377 0.515512 0
M  V30 8 N 0.696932 -1.230042 -0.615878 0
M  V30 9 C 0.932959 -1.440940 -1.919627 0
M  V30 10 C 1.396196 -0.292132 -2.504070 0
M  V30 11 C 1.458435 0.688790 -1.544470 0
M  V30 12 C 1.850205 2.009997 -1.597789 0
M  V30 13 C 1.813851 2.789386 -0.444833 0
M  V30 14 C 1.390705 2.259758 0.760001 0
M  V30 15 C 1.325380 2.995334 1.991310 0
M  V30 16 N 1.279316 3.590062 2.985596 0
M  V30 17 C 1.018537 0.940540 0.722933 0
M  V30 18 C 1.015588 0.075797 -0.366907 0
M  V30 19 N -1.023136 -2.296488 0.934918 0
M  V30 20 H -2.481638 -1.580144 3.712626 0
M  V30 21 H -3.488874 -1.454489 2.256501 0
M  V30 22 H -4.069260 -2.470183 3.709537 0
M  V30 23 H -3.085999 -4.148924 2.326410 0
M  V30 24 H 1.886288 -3.376826 3.196037 0
M  V30 25 H 2.355501 -2.160464 1.176495 0
M  V30 26 H 0.730911 -2.432903 -2.297479 0
M  V30 27 H 1.656694 -0.218291 -3.555180 0
M  V30 28 H 2.186859 2.480330 -2.503906 0
M  V30 29 H 2.109649 3.841715 -0.403329 0
M  V30 30 H 0.682040 0.526221 1.678867 0
M  V30 END ATOM
M  V30 BEGIN BOND
M  V30 1 1 1 2
M  V30 2 1 2 3
M  V30 3 2 3 4
M  V30 4 1 4 5
M  V30 5 2 5 6
M  V30 6 1 6 7
M  V30 7 1 7 8
M  V30 8 1 8 9
M  V30 9 2 9 10
M  V30 10 1 10 11
M  V30 11 2 11 12
M  V30 12 1 12 13
M  V30 13 2 13 14
M  V30 14 1 14 15
M  V30 15 3 15 16
M  V30 16 1 14 17
M  V30 17 2 17 18
M  V30 18 2 7 19
M  V30 19 1 19 3
M  V30 20 1 18 8
M  V30 21 1 18 11
M  V30 22 1 1 20
M  V30 23 1 1 21
M  V30 24 1 1 22
M  V30 25 1 2 23
M  V30 26 1 5 24
M  V30 27 1 6 25
M  V30 28 1 9 26
M  V30 29 1 10 27
M  V30 30 1 12 28
M  V30 31 1 13 29
M  V30 32 1 17 30
M  V30 END BOND
M  V30 END CTAB
M  END
>  <Dataset>  (473) 
ChEMBL_Kinases

>  <Ligand_Instance>  (473) 
nan

>  <PDB_ID>  (473) 
nan

>  <Standardized_SMILES>  (473) 
CNc1nccc(-n2ccc3ccc(C#N)cc32)n1

>  <Name>  (473) 
nan

>  <Pocket>  (473) 
nan

>  <ATP_Site>  (473) 
nan

>  <Peripheral>  (473) 
nan

>  <Num_H_Atoms_ProtBoundConf>  (473) 
nan

>  <Num_Resolved_Atoms>  (473) 
nan

>  <Num_Not_Resolved_Atoms>  (473) 
nan

$$$$
CHEMBL3699248
     RDKit          3D

  0  0  0  0  0  0  0  0  0  0999 V3000
M  V30 BEGIN CTAB
M  V30 COUNTS 73 79 0 0 0
M  V30 BEGIN ATOM
M  V30 1 N -1.273428 -3.704658 5.181190 0
M  V30 2 C -0.776157 -3.186616 4.271044 0
M  V30 3 C -0.170414 -2.555493 3.129495 0
M  V30 4 C 0.363328 -1.287773 3.233170 0
M  V30 5 C 0.944870 -0.678201 2.143030 0
M  V30 6 N 1.506016 0.625204 2.263738 0
M  V30 7 C 1.369020 1.334516 3.490883 0
M  V30 8 N 0.307183 2.145196 3.409600 0
M  V30 9 C -0.083688 2.947319 4.422400 0
M  V30 10 N -1.211625 3.797723 4.283373 0
M  V30 11 C -1.848069 4.737523 5.180629 0
M  V30 12 C -1.140323 5.876472 5.777441 0
M  V30 13 C -2.114935 6.124627 4.660835 0
M  V30 14 C 0.610644 2.963607 5.607626 0
M  V30 15 N 0.527055 3.607825 6.806323 0
M  V30 16 C 1.545559 3.158184 7.565219 0
M  V30 17 C 2.287017 2.228439 6.866886 0
M  V30 18 C 3.456580 1.532480 7.358079 0
M  V30 19 N 4.383473 0.963910 7.757245 0
M  V30 20 N 1.683584 2.131185 5.662184 0
M  V30 21 N 2.053838 1.354557 4.667159 0
M  V30 22 C 0.985600 -1.343569 0.961763 0
M  V30 23 Cl 1.721690 -0.578529 -0.399222 0
M  V30 24 C 0.478063 -2.605802 0.771975 0
M  V30 25 N 0.439563 -3.374860 -0.424158 0
M  V30 26 C 1.426344 -3.769120 -1.394042 0
M  V30 27 C 0.692233 -3.920031 -2.716318 0
M  V30 28 C -0.397404 -2.887049 -2.872270 0
M  V30 29 N -0.770736 -2.569432 -4.193857 0
M  V30 30 C -1.215317 -3.598598 -5.033712 0
M  V30 31 C -2.517667 -4.250994 -4.761611 0
M  V30 32 C -3.819961 -3.586730 -4.741797 0
M  V30 33 C -3.470819 -4.305324 -5.992864 0
M  V30 34 C -0.346666 -1.367730 -4.773882 0
M  V30 35 C 1.086511 -1.200153 -5.136337 0
M  V30 36 C 2.236287 -1.266695 -4.243957 0
M  V30 37 C 1.785815 0.098569 -4.601348 0
M  V30 38 C -1.525277 -3.190236 -1.916164 0
M  V30 39 C -0.889177 -3.889648 -0.726653 0
M  V30 40 C -0.103998 -3.190033 1.905931 0
M  V30 41 H 0.322115 -0.774822 4.177387 0
M  V30 42 H 2.017578 1.073661 1.473278 0
M  V30 43 H -1.738134 3.802516 3.381755 0
M  V30 44 H -2.730919 4.306251 5.708505 0
M  V30 45 H -0.075130 6.066382 5.529443 0
M  V30 46 H -1.461915 6.206938 6.800238 0
M  V30 47 H -1.684508 6.328394 3.639227 0
M  V30 48 H -3.091702 6.606625 4.862579 0
M  V30 49 H 1.801337 3.448021 8.587392 0
M  V30 50 H 2.330946 -3.176075 -1.439678 0
M  V30 51 H 1.762226 -4.805139 -1.089963 0
M  V30 52 H 1.407808 -3.946452 -3.563198 0
M  V30 53 H 0.203093 -4.932125 -2.741790 0
M  V30 54 H 0.047926 -1.932560 -2.452450 0
M  V30 55 H -1.166719 -3.207537 -6.094879 0
M  V30 56 H -0.427922 -4.413027 -5.053967 0
M  V30 57 H -2.481768 -5.249477 -4.228159 0
M  V30 58 H -3.936943 -2.487521 -4.836570 0
M  V30 59 H -4.650387 -4.037790 -4.163219 0
M  V30 60 H -3.170467 -3.717053 -6.877377 0
M  V30 61 H -3.934308 -5.259069 -6.226335 0
M  V30 62 H -0.606592 -0.538432 -4.041073 0
M  V30 63 H -0.955229 -1.077780 -5.681985 0
M  V30 64 H 1.344344 -1.352715 -6.239547 0
M  V30 65 H 2.244575 -1.529775 -3.187557 0
M  V30 66 H 3.241206 -1.529907 -4.711439 0
M  V30 67 H 2.340291 0.704957 -5.326083 0
M  V30 68 H 1.176551 0.701512 -3.891267 0
M  V30 69 H -1.939001 -2.227006 -1.548827 0
M  V30 70 H -2.291538 -3.865400 -2.301541 0
M  V30 71 H -1.586453 -3.838065 0.138821 0
M  V30 72 H -0.746657 -4.987678 -0.960593 0
M  V30 73 H -0.537583 -4.185542 1.872973 0
M  V30 END ATOM
M  V30 BEGIN BOND
M  V30 1 3 1 2
M  V30 2 1 2 3
M  V30 3 2 3 4
M  V30 4 1 4 5
M  V30 5 1 5 6
M  V30 6 1 6 7
M  V30 7 1 7 8
M  V30 8 2 8 9
M  V30 9 1 9 10
M  V30 10 1 10 11
M  V30 11 1 11 12
M  V30 12 1 12 13
M  V30 13 1 9 14
M  V30 14 2 14 15
M  V30 15 1 15 16
M  V30 16 2 16 17
M  V30 17 1 17 18
M  V30 18 3 18 19
M  V30 19 1 17 20
M  V30 20 1 20 21
M  V30 21 2 5 22
M  V30 22 1 22 23
M  V30 23 1 22 24
M  V30 24 1 24 25
M  V30 25 1 25 26
M  V30 26 1 26 27
M  V30 27 1 27 28
M  V30 28 1 28 29
M  V30 29 1 29 30
M  V30 30 1 30 31
M  V30 31 1 31 32
M  V30 32 1 32 33
M  V30 33 1 29 34
M  V30 34 1 34 35
M  V30 35 1 35 36
M  V30 36 1 36 37
M  V30 37 1 28 38
M  V30 38 1 38 39
M  V30 39 2 24 40
M  V30 40 1 40 3
M  V30 41 2 21 7
M  V30 42 1 39 25
M  V30 43 1 13 11
M  V30 44 1 20 14
M  V30 45 1 33 31
M  V30 46 1 37 35
M  V30 47 1 4 41
M  V30 48 1 6 42
M  V30 49 1 10 43
M  V30 50 1 11 44
M  V30 51 1 12 45
M  V30 52 1 12 46
M  V30 53 1 13 47
M  V30 54 1 13 48
M  V30 55 1 16 49
M  V30 56 1 26 50
M  V30 57 1 26 51
M  V30 58 1 27 52
M  V30 59 1 27 53
M  V30 60 1 28 54
M  V30 61 1 30 55
M  V30 62 1 30 56
M  V30 63 1 31 57
M  V30 64 1 32 58
M  V30 65 1 32 59
M  V30 66 1 33 60
M  V30 67 1 33 61
M  V30 68 1 34 62
M  V30 69 1 34 63
M  V30 70 1 35 64
M  V30 71 1 36 65
M  V30 72 1 36 66
M  V30 73 1 37 67
M  V30 74 1 37 68
M  V30 75 1 38 69
M  V30 76 1 38 70
M  V30 77 1 39 71
M  V30 78 1 39 72
M  V30 79 1 40 73
M  V30 END BOND
M  V30 END CTAB
M  END
>  <Dataset>  (474) 
ChEMBL_Kinases

>  <Ligand_Instance>  (474) 
nan

>  <PDB_ID>  (474) 
nan

>  <Standardized_SMILES>  (474) 
N#Cc1cc(Nc2nc(NC3CC3)c3ncc(C#N)n3n2)c(Cl)c(N2CCC(N(CC3CC3)CC3CC3)CC2)c1

>  <Name>  (474) 
nan

>  <Pocket>  (474) 
nan

>  <ATP_Site>  (474) 
nan

>  <Peripheral>  (474) 
nan

>  <Num_H_Atoms_ProtBoundConf>  (474) 
nan

>  <Num_Resolved_Atoms>  (474) 
nan

>  <Num_Not_Resolved_Atoms>  (474) 
nan

$$$$
CHEMBL2348353
     RDKit          3D

  0  0  0  0  0  0  0  0  0  0999 V3000
M  V30 BEGIN CTAB
M  V30 COUNTS 60 63 0 0 0
M  V30 BEGIN ATOM
M  V30 1 C 4.177961 -1.963265 3.859173 0
M  V30 2 N 5.505787 -1.619735 3.396870 0
M  V30 3 C 6.869213 -1.690794 3.853498 0
M  V30 4 C 5.321324 -1.047632 2.113409 0
M  V30 5 O 4.071617 -1.141611 2.068994 0
M  V30 6 C 5.482706 -0.428228 0.796860 0
M  V30 7 C 4.160968 -0.229457 0.115745 0
M  V30 8 C 3.498471 0.960233 0.339287 0
M  V30 9 C 2.281608 1.154597 -0.276586 0
M  V30 10 C 1.650702 0.258120 -1.109795 0
M  V30 11 N 0.391167 0.444434 -1.731549 0
M  V30 12 C 0.010269 -0.463177 -2.798920 0
M  V30 13 C -1.020898 -1.417825 -2.301275 0
M  V30 14 C -1.257963 -1.380034 -0.818742 0
M  V30 15 N -2.027436 -0.202798 -0.421145 0
M  V30 16 C -2.890728 -0.085117 0.693967 0
M  V30 17 C -2.372147 0.759089 1.643230 0
M  V30 18 C -2.960752 1.062221 2.860753 0
M  V30 19 N -4.139505 0.449952 3.080930 0
M  V30 20 C -4.674379 -0.393099 2.150630 0
M  V30 21 S -6.183022 -1.323926 2.150917 0
M  V30 22 C -5.949856 -2.065536 0.526899 0
M  V30 23 C -6.940163 -2.958558 -0.001517 0
M  V30 24 N -8.112673 -3.311763 0.712267 0
M  V30 25 O -6.803360 -3.472808 -1.138248 0
M  V30 26 C -4.772596 -1.558309 0.126704 0
M  V30 27 N -4.407505 -2.021536 -1.155659 0
M  V30 28 C -4.089073 -0.699066 0.930595 0
M  V30 29 C -1.938054 1.033867 -1.213249 0
M  V30 30 C -0.500758 1.506946 -1.302406 0
M  V30 31 C 2.347512 -0.904487 -1.299610 0
M  V30 32 C 3.569961 -1.171002 -0.717703 0
M  V30 33 H 3.643375 -2.645913 3.165592 0
M  V30 34 H 4.202321 -2.460881 4.852222 0
M  V30 35 H 3.540131 -1.041662 3.955520 0
M  V30 36 H 7.527654 -2.174190 3.119668 0
M  V30 37 H 7.196153 -0.637774 4.025689 0
M  V30 38 H 6.936002 -2.211541 4.822881 0
M  V30 39 H 6.130461 -1.084844 0.169074 0
M  V30 40 H 5.990463 0.540580 0.907198 0
M  V30 41 H 3.943587 1.706341 0.984643 0
M  V30 42 H 1.825175 2.101800 -0.063715 0
M  V30 43 H -0.483877 0.159678 -3.599764 0
M  V30 44 H 0.873245 -0.931416 -3.313284 0
M  V30 45 H -2.030749 -1.240856 -2.774911 0
M  V30 46 H -0.767465 -2.461805 -2.617967 0
M  V30 47 H -0.307394 -1.284240 -0.239378 0
M  V30 48 H -1.686111 -2.330198 -0.510452 0
M  V30 49 H -1.417746 1.302174 1.550293 0
M  V30 50 H -2.563154 1.723245 3.614146 0
M  V30 51 H -9.084276 -2.890504 0.785702 0
M  V30 52 H -7.926647 -4.189662 1.275836 0
M  V30 53 H -4.939422 -1.872750 -2.034811 0
M  V30 54 H -3.714485 -2.540567 -1.711676 0
M  V30 55 H -2.571286 1.834179 -0.843269 0
M  V30 56 H -2.248733 0.757417 -2.242580 0
M  V30 57 H -0.127574 1.917611 -0.370863 0
M  V30 58 H -0.479970 2.341009 -2.035218 0
M  V30 59 H 2.039210 -1.741146 -1.906238 0
M  V30 60 H 4.159388 -2.068744 -0.833789 0
M  V30 END ATOM
M  V30 BEGIN BOND
M  V30 1 1 1 2
M  V30 2 1 2 3
M  V30 3 1 2 4
M  V30 4 2 4 5
M  V30 5 1 4 6
M  V30 6 1 6 7
M  V30 7 2 7 8
M  V30 8 1 8 9
M  V30 9 2 9 10
M  V30 10 1 10 11
M  V30 11 1 11 12
M  V30 12 1 12 13
M  V30 13 1 13 14
M  V30 14 1 14 15
M  V30 15 1 15 16
M  V30 16 2 16 17
M  V30 17 1 17 18
M  V30 18 2 18 19
M  V30 19 1 19 20
M  V30 20 1 20 21
M  V30 21 1 21 22
M  V30 22 1 22 23
M  V30 23 1 23 24
M  V30 24 2 23 25
M  V30 25 2 22 26
M  V30 26 1 26 27
M  V30 27 1 26 28
M  V30 28 1 15 29
M  V30 29 1 29 30
M  V30 30 1 10 31
M  V30 31 2 31 32
M  V30 32 1 32 7
M  V30 33 1 30 11
M  V30 34 1 28 16
M  V30 35 2 28 20
M  V30 36 1 1 33
M  V30 37 1 1 34
M  V30 38 1 1 35
M  V30 39 1 3 36
M  V30 40 1 3 37
M  V30 41 1 3 38
M  V30 42 1 6 39
M  V30 43 1 6 40
M  V30 44 1 8 41
M  V30 45 1 9 42
M  V30 46 1 12 43
M  V30 47 1 12 44
M  V30 48 1 13 45
M  V30 49 1 13 46
M  V30 50 1 14 47
M  V30 51 1 14 48
M  V30 52 1 17 49
M  V30 53 1 18 50
M  V30 54 1 24 51
M  V30 55 1 24 52
M  V30 56 1 27 53
M  V30 57 1 27 54
M  V30 58 1 29 55
M  V30 59 1 29 56
M  V30 60 1 30 57
M  V30 61 1 30 58
M  V30 62 1 31 59
M  V30 63 1 32 60
M  V30 END BOND
M  V30 END CTAB
M  END
>  <Dataset>  (475) 
ChEMBL_Kinases

>  <Ligand_Instance>  (475) 
nan

>  <PDB_ID>  (475) 
nan

>  <Standardized_SMILES>  (475) 
CN(C)C(=O)Cc1ccc(N2CCCN(c3ccnc4sc(C(N)=O)c(N)c34)CC2)cc1

>  <Name>  (475) 
nan

>  <Pocket>  (475) 
nan

>  <ATP_Site>  (475) 
nan

>  <Peripheral>  (475) 
nan

>  <Num_H_Atoms_ProtBoundConf>  (475) 
nan

>  <Num_Resolved_Atoms>  (475) 
nan

>  <Num_Not_Resolved_Atoms>  (475) 
nan

$$$$
CHEMBL4474946
     RDKit          3D

  0  0  0  0  0  0  0  0  0  0999 V3000
M  V30 BEGIN CTAB
M  V30 COUNTS 47 49 0 0 0
M  V30 BEGIN ATOM
M  V30 1 C 3.491295 -5.435551 -1.296229 0
M  V30 2 O 2.953360 -4.145008 -1.339544 0
M  V30 3 C 3.747476 -3.039370 -1.068737 0
M  V30 4 C 5.080085 -2.985703 -0.737843 0
M  V30 5 C 5.674794 -1.751884 -0.506923 0
M  V30 6 C 4.916391 -0.604602 -0.614152 0
M  V30 7 C 3.573755 -0.611064 -0.944235 0
M  V30 8 C 2.809202 0.655660 -1.043171 0 CFG=1
M  V30 9 C 2.727168 1.062288 -2.478562 0
M  V30 10 N 1.543114 0.516974 -0.382581 0
M  V30 11 C 1.133075 1.214066 0.785628 0
M  V30 12 O 1.942558 2.029288 1.298324 0
M  V30 13 C -0.167227 1.044925 1.429069 0
M  V30 14 C -0.412772 1.801033 2.559712 0
M  V30 15 C -1.637587 1.676970 3.210579 0
M  V30 16 C -2.596090 0.807103 2.730266 0
M  V30 17 C -3.917434 0.613502 3.355401 0
M  V30 18 C -4.109852 0.732932 4.722795 0
M  V30 19 C -5.365442 0.545832 5.289719 0
M  V30 20 N -6.405921 0.244730 4.496982 0
M  V30 21 C -6.220331 0.130492 3.186830 0
M  V30 22 N -7.313487 -0.191648 2.306232 0
M  V30 23 C -5.003553 0.299467 2.529874 0
M  V30 24 C -2.338283 0.048548 1.588266 0
M  V30 25 C -1.122743 0.173129 0.944278 0
M  V30 26 C 3.006384 -1.867424 -1.170092 0
M  V30 27 H 3.913369 -5.702635 -2.272856 0
M  V30 28 H 4.304355 -5.556219 -0.527048 0
M  V30 29 H 2.682956 -6.125837 -0.951373 0
M  V30 30 H 5.555623 -3.958589 -0.688169 0
M  V30 31 H 6.718661 -1.790143 -0.253582 0
M  V30 32 H 5.441739 0.327703 -0.421340 0
M  V30 33 H 3.384069 1.427729 -0.452233 0
M  V30 34 H 3.717787 1.453313 -2.789066 0
M  V30 35 H 1.922109 1.802199 -2.691524 0
M  V30 36 H 2.581186 0.135872 -3.102420 0
M  V30 37 H 0.880329 -0.162092 -0.818731 0
M  V30 38 H 0.312082 2.498552 2.974720 0
M  V30 39 H -1.889004 2.251416 4.112556 0
M  V30 40 H -3.253426 0.977822 5.351791 0
M  V30 41 H -5.455872 0.653810 6.381736 0
M  V30 42 H -7.900533 0.675441 2.300794 0
M  V30 43 H -7.348607 -1.149850 1.852323 0
M  V30 44 H -4.901139 0.195993 1.456694 0
M  V30 45 H -3.065198 -0.650300 1.172994 0
M  V30 46 H -0.936212 -0.419847 0.062125 0
M  V30 47 H 1.937875 -1.793297 -1.427679 0
M  V30 END ATOM
M  V30 BEGIN BOND
M  V30 1 1 1 2
M  V30 2 1 2 3
M  V30 3 2 3 4
M  V30 4 1 4 5
M  V30 5 2 5 6
M  V30 6 1 6 7
M  V30 7 1 7 8
M  V30 8 1 8 9
M  V30 9 1 8 10
M  V30 10 1 10 11
M  V30 11 2 11 12
M  V30 12 1 11 13
M  V30 13 2 13 14
M  V30 14 1 14 15
M  V30 15 2 15 16
M  V30 16 1 16 17
M  V30 17 2 17 18
M  V30 18 1 18 19
M  V30 19 2 19 20
M  V30 20 1 20 21
M  V30 21 1 21 22
M  V30 22 2 21 23
M  V30 23 1 16 24
M  V30 24 2 24 25
M  V30 25 2 7 26
M  V30 26 1 26 3
M  V30 27 1 25 13
M  V30 28 1 23 17
M  V30 29 1 1 27
M  V30 30 1 1 28
M  V30 31 1 1 29
M  V30 32 1 4 30
M  V30 33 1 5 31
M  V30 34 1 6 32
M  V30 35 1 8 33 CFG=1
M  V30 36 1 9 34
M  V30 37 1 9 35
M  V30 38 1 9 36
M  V30 39 1 10 37
M  V30 40 1 14 38
M  V30 41 1 15 39
M  V30 42 1 18 40
M  V30 43 1 19 41
M  V30 44 1 22 42
M  V30 45 1 22 43
M  V30 46 1 23 44
M  V30 47 1 24 45
M  V30 48 1 25 46
M  V30 49 1 26 47
M  V30 END BOND
M  V30 END CTAB
M  END
>  <Dataset>  (476) 
ChEMBL_Kinases

>  <Ligand_Instance>  (476) 
nan

>  <PDB_ID>  (476) 
nan

>  <Standardized_SMILES>  (476) 
COc1cccc([C@@H](C)NC(=O)c2ccc(-c3ccnc(N)c3)cc2)c1

>  <Name>  (476) 
nan

>  <Pocket>  (476) 
nan

>  <ATP_Site>  (476) 
nan

>  <Peripheral>  (476) 
nan

>  <Num_H_Atoms_ProtBoundConf>  (476) 
nan

>  <Num_Resolved_Atoms>  (476) 
nan

>  <Num_Not_Resolved_Atoms>  (476) 
nan

$$$$
CHEMBL2348417
     RDKit          3D

  0  0  0  0  0  0  0  0  0  0999 V3000
M  V30 BEGIN CTAB
M  V30 COUNTS 57 61 0 0 0
M  V30 BEGIN ATOM
M  V30 1 O 2.043133 0.087738 1.819371 0
M  V30 2 C 2.862983 0.062088 0.865064 0
M  V30 3 N 4.054789 -0.638793 1.180077 0
M  V30 4 C 4.004704 -1.135954 2.520576 0
M  V30 5 C 5.259910 -1.893765 2.900870 0
M  V30 6 O 5.424079 -2.982545 2.042931 0
M  V30 7 C 2.529776 0.715575 -0.393782 0
M  V30 8 C 1.314241 1.277632 -0.311127 0
M  V30 9 C 0.595518 2.037751 -1.356504 0
M  V30 10 C 0.923599 2.203723 -2.702061 0
M  V30 11 N 0.161839 2.942564 -3.536027 0
M  V30 12 C -0.950834 3.529110 -3.018614 0
M  V30 13 N -1.290715 3.386385 -1.728242 0
M  V30 14 C -0.562267 2.665564 -0.881651 0
M  V30 15 N -0.857805 2.452398 0.514620 0
M  V30 16 C -1.762303 1.386971 0.834223 0
M  V30 17 C -2.088609 1.023676 2.122171 0
M  V30 18 C -2.983898 -0.016786 2.365343 0
M  V30 19 C -3.580172 -0.725868 1.315173 0
M  V30 20 O -4.457523 -1.745017 1.545802 0
M  V30 21 C -4.387968 -3.050897 1.178868 0
M  V30 22 C -5.405543 -3.518288 0.376339 0
M  V30 23 C -5.542316 -4.804214 -0.117794 0
M  V30 24 C -4.538025 -5.674426 0.253423 0
M  V30 25 C -3.524506 -5.212499 1.051717 0
M  V30 26 S -2.061592 -6.102148 1.711102 0
M  V30 27 C -1.410569 -4.637789 2.592384 0
M  V30 28 C -2.304601 -3.666067 2.324704 0
M  V30 29 C -3.395660 -3.935604 1.537899 0
M  V30 30 C -3.267274 -0.378685 0.011474 0
M  V30 31 Cl -3.975197 -1.220647 -1.349427 0
M  V30 32 C -2.388138 0.643935 -0.160095 0
M  V30 33 N 2.084183 1.615819 -3.323819 0
M  V30 34 C 2.769266 0.420487 -2.857399 0
M  V30 35 C 3.487694 0.687516 -1.526684 0
M  V30 36 H 4.781923 -0.698238 0.426937 0
M  V30 37 H 3.144127 -1.763640 2.753815 0
M  V30 38 H 3.961251 -0.256451 3.217983 0
M  V30 39 H 5.160590 -2.302387 3.927762 0
M  V30 40 H 6.170360 -1.256645 2.880572 0
M  V30 41 H 5.945289 -3.668270 2.532277 0
M  V30 42 H 0.734127 1.212073 0.584392 0
M  V30 43 H -1.586385 4.134389 -3.675879 0
M  V30 44 H -0.486398 2.988343 1.332527 0
M  V30 45 H -1.627238 1.572114 2.952552 0
M  V30 46 H -3.202735 -0.258415 3.397115 0
M  V30 47 H -6.222875 -2.843496 0.063332 0
M  V30 48 H -6.346154 -5.133443 -0.738828 0
M  V30 49 H -4.518651 -6.702272 -0.059490 0
M  V30 50 H -0.508769 -4.734228 3.141343 0
M  V30 51 H -2.054327 -2.720724 2.784401 0
M  V30 52 H -2.158064 0.897526 -1.205422 0
M  V30 53 H 2.391527 2.164580 -4.179940 0
M  V30 54 H 3.428364 -0.015700 -3.605759 0
M  V30 55 H 2.016861 -0.383588 -2.608617 0
M  V30 56 H 4.082355 1.634099 -1.610391 0
M  V30 57 H 4.176635 -0.178318 -1.420502 0
M  V30 END ATOM
M  V30 BEGIN BOND
M  V30 1 2 1 2
M  V30 2 1 2 3
M  V30 3 1 3 4
M  V30 4 1 4 5
M  V30 5 1 5 6
M  V30 6 1 2 7
M  V30 7 2 7 8
M  V30 8 1 8 9
M  V30 9 2 9 10
M  V30 10 1 10 11
M  V30 11 2 11 12
M  V30 12 1 12 13
M  V30 13 2 13 14
M  V30 14 1 14 15
M  V30 15 1 15 16
M  V30 16 2 16 17
M  V30 17 1 17 18
M  V30 18 2 18 19
M  V30 19 1 19 20
M  V30 20 1 20 21
M  V30 21 2 21 22
M  V30 22 1 22 23
M  V30 23 2 23 24
M  V30 24 1 24 25
M  V30 25 1 25 26
M  V30 26 1 26 27
M  V30 27 2 27 28
M  V30 28 1 28 29
M  V30 29 1 19 30
M  V30 30 1 30 31
M  V30 31 2 30 32
M  V30 32 1 10 33
M  V30 33 1 33 34
M  V30 34 1 34 35
M  V30 35 1 35 7
M  V30 36 1 14 9
M  V30 37 1 32 16
M  V30 38 1 29 21
M  V30 39 2 29 25
M  V30 40 1 3 36
M  V30 41 1 4 37
M  V30 42 1 4 38
M  V30 43 1 5 39
M  V30 44 1 5 40
M  V30 45 1 6 41
M  V30 46 1 8 42
M  V30 47 1 12 43
M  V30 48 1 15 44
M  V30 49 1 17 45
M  V30 50 1 18 46
M  V30 51 1 22 47
M  V30 52 1 23 48
M  V30 53 1 24 49
M  V30 54 1 27 50
M  V30 55 1 28 51
M  V30 56 1 32 52
M  V30 57 1 33 53
M  V30 58 1 34 54
M  V30 59 1 34 55
M  V30 60 1 35 56
M  V30 61 1 35 57
M  V30 END BOND
M  V30 END CTAB
M  END
>  <Dataset>  (477) 
ChEMBL_Kinases

>  <Ligand_Instance>  (477) 
nan

>  <PDB_ID>  (477) 
nan

>  <Standardized_SMILES>  (477) 
O=C(NCCO)C1=Cc2c(ncnc2Nc2ccc(Oc3cccc4sccc34)c(Cl)c2)NCC1

>  <Name>  (477) 
nan

>  <Pocket>  (477) 
nan

>  <ATP_Site>  (477) 
nan

>  <Peripheral>  (477) 
nan

>  <Num_H_Atoms_ProtBoundConf>  (477) 
nan

>  <Num_Resolved_Atoms>  (477) 
nan

>  <Num_Not_Resolved_Atoms>  (477) 
nan

$$$$
CHEMBL2348581
     RDKit          3D

  0  0  0  0  0  0  0  0  0  0999 V3000
M  V30 BEGIN CTAB
M  V30 COUNTS 52 56 0 0 0
M  V30 BEGIN ATOM
M  V30 1 O 0.854876 -5.094692 1.550721 0
M  V30 2 C 1.440963 -4.079294 2.305816 0
M  V30 3 C 1.868930 -4.256626 3.617239 0
M  V30 4 C 2.446822 -3.228579 4.339553 0
M  V30 5 C 2.593221 -2.012711 3.732174 0
M  V30 6 C 2.178004 -1.798182 2.424683 0
M  V30 7 C 2.406908 -0.442666 1.926414 0
M  V30 8 N 3.643995 0.005406 1.634307 0
M  V30 9 C 3.586127 1.271145 1.198859 0
M  V30 10 C 4.488692 2.221609 0.768088 0
M  V30 11 C 4.061862 3.469425 0.379373 0
M  V30 12 C 2.710641 3.766466 0.423935 0
M  V30 13 C 1.752472 2.842392 0.851596 0
M  V30 14 C 2.245138 1.593461 1.233469 0
M  V30 15 N 1.517704 0.556904 1.675070 0
M  V30 16 C 0.124265 0.362852 1.895636 0
M  V30 17 C -0.406952 0.838484 3.076581 0
M  V30 18 C -1.760184 0.622079 3.234941 0
M  V30 19 N -2.549709 0.002842 2.343391 0
M  V30 20 C -2.046728 -0.466301 1.187609 0
M  V30 21 N -2.867774 -1.127590 0.233311 0
M  V30 22 C -2.411634 -1.665682 -1.059808 0 CFG=2
M  V30 23 C -1.873138 -0.619948 -1.961633 0
M  V30 24 C -2.665288 -0.285901 -3.173554 0
M  V30 25 C -3.944382 -1.027721 -3.350744 0
M  V30 26 N -3.797336 -2.414991 -2.975387 0
M  V30 27 C -3.420263 -2.599987 -1.613439 0
M  V30 28 C -0.705689 -0.276129 0.982405 0
M  V30 29 C 1.606347 -2.838567 1.729538 0
M  V30 30 H 0.998111 -6.074757 1.748551 0
M  V30 31 H 1.699217 -5.262762 3.987703 0
M  V30 32 H 2.736331 -3.483980 5.338728 0
M  V30 33 H 3.052185 -1.253536 4.353231 0
M  V30 34 H 5.537129 1.975561 0.738962 0
M  V30 35 H 4.777560 4.207805 0.043138 0
M  V30 36 H 2.389149 4.755503 0.113992 0
M  V30 37 H 0.694416 3.083736 0.883445 0
M  V30 38 H 0.201213 1.341061 3.814328 0
M  V30 39 H -2.255329 0.970619 4.146577 0
M  V30 40 H -3.892899 -1.245180 0.467279 0
M  V30 41 H -1.523782 -2.313406 -0.777684 0
M  V30 42 H -0.780859 -0.769004 -2.214346 0
M  V30 43 H -1.845367 0.333887 -1.350316 0
M  V30 44 H -2.930080 0.810217 -3.257021 0
M  V30 45 H -1.998734 -0.438054 -4.074759 0
M  V30 46 H -4.215554 -1.012998 -4.428299 0
M  V30 47 H -4.746501 -0.511322 -2.798064 0
M  V30 48 H -3.235538 -2.894167 -3.684282 0
M  V30 49 H -4.351710 -2.546396 -0.976229 0
M  V30 50 H -3.128341 -3.689090 -1.525095 0
M  V30 51 H -0.203764 -0.607365 0.106996 0
M  V30 52 H 1.309602 -2.590411 0.716712 0
M  V30 END ATOM
M  V30 BEGIN BOND
M  V30 1 1 1 2
M  V30 2 2 2 3
M  V30 3 1 3 4
M  V30 4 2 4 5
M  V30 5 1 5 6
M  V30 6 1 6 7
M  V30 7 2 7 8
M  V30 8 1 8 9
M  V30 9 2 9 10
M  V30 10 1 10 11
M  V30 11 2 11 12
M  V30 12 1 12 13
M  V30 13 2 13 14
M  V30 14 1 14 15
M  V30 15 1 15 16
M  V30 16 2 16 17
M  V30 17 1 17 18
M  V30 18 2 18 19
M  V30 19 1 19 20
M  V30 20 1 20 21
M  V30 21 1 21 22
M  V30 22 1 22 23
M  V30 23 1 23 24
M  V30 24 1 24 25
M  V30 25 1 25 26
M  V30 26 1 26 27
M  V30 27 2 20 28
M  V30 28 2 6 29
M  V30 29 1 29 2
M  V30 30 1 15 7
M  V30 31 1 28 16
M  V30 32 1 14 9
M  V30 33 1 27 22
M  V30 34 1 1 30
M  V30 35 1 3 31
M  V30 36 1 4 32
M  V30 37 1 5 33
M  V30 38 1 10 34
M  V30 39 1 11 35
M  V30 40 1 12 36
M  V30 41 1 13 37
M  V30 42 1 17 38
M  V30 43 1 18 39
M  V30 44 1 21 40
M  V30 45 1 22 41 CFG=1
M  V30 46 1 23 42
M  V30 47 1 23 43
M  V30 48 1 24 44
M  V30 49 1 24 45
M  V30 50 1 25 46
M  V30 51 1 25 47
M  V30 52 1 26 48
M  V30 53 1 27 49
M  V30 54 1 27 50
M  V30 55 1 28 51
M  V30 56 1 29 52
M  V30 END BOND
M  V30 END CTAB
M  END
>  <Dataset>  (478) 
ChEMBL_Kinases

>  <Ligand_Instance>  (478) 
nan

>  <PDB_ID>  (478) 
nan

>  <Standardized_SMILES>  (478) 
Oc1cccc(-c2nc3ccccc3n2-c2ccnc(N[C@@H]3CCCNC3)c2)c1

>  <Name>  (478) 
nan

>  <Pocket>  (478) 
nan

>  <ATP_Site>  (478) 
nan

>  <Peripheral>  (478) 
nan

>  <Num_H_Atoms_ProtBoundConf>  (478) 
nan

>  <Num_Resolved_Atoms>  (478) 
nan

>  <Num_Not_Resolved_Atoms>  (478) 
nan

$$$$
CHEMBL4474917
     RDKit          3D

  0  0  0  0  0  0  0  0  0  0999 V3000
M  V30 BEGIN CTAB
M  V30 COUNTS 55 58 0 0 0
M  V30 BEGIN ATOM
M  V30 1 C 4.444080 -2.011139 4.181934 0
M  V30 2 C 3.288940 -1.342385 3.459382 0
M  V30 3 C 2.126755 -1.223511 4.423849 0
M  V30 4 N 3.708096 -0.093198 2.899916 0
M  V30 5 C 3.165271 0.655863 1.924065 0
M  V30 6 C 3.888603 1.803651 1.682717 0
M  V30 7 N 3.668041 2.853133 0.750900 0
M  V30 8 C 2.602905 2.954945 -0.181052 0
M  V30 9 N 2.529035 4.017314 -1.003803 0
M  V30 10 C 1.546551 4.149331 -1.890810 0
M  V30 11 C 0.563594 3.187848 -1.992646 0
M  V30 12 C 0.615519 2.090132 -1.162198 0
M  V30 13 C -0.427069 1.082871 -1.279243 0
M  V30 14 C -1.464906 1.170625 -2.179073 0
M  V30 15 C -2.450944 0.188578 -2.268648 0
M  V30 16 N -2.428058 -0.895093 -1.471730 0
M  V30 17 C -3.496027 -1.859511 -1.640062 0 CFG=2
M  V30 18 C -4.847665 -1.191424 -1.489403 0
M  V30 19 O -5.787451 -2.232564 -1.674361 0
M  V30 20 C -3.388373 -3.013371 -0.734006 0
M  V30 21 C -4.009779 -2.952503 0.497847 0
M  V30 22 C -3.958342 -3.990288 1.406837 0
M  V30 23 C -3.271325 -5.154571 1.118760 0
M  V30 24 Cl -3.192440 -6.479394 2.251671 0
M  V30 25 C -2.643854 -5.236033 -0.105538 0
M  V30 26 F -1.968517 -6.366183 -0.402746 0
M  V30 27 C -2.695403 -4.196104 -1.016391 0
M  V30 28 C -1.439218 -1.039190 -0.570957 0
M  V30 29 O -1.420649 -2.053396 0.172502 0
M  V30 30 C -0.474509 -0.054096 -0.500767 0
M  V30 31 N 1.637913 2.024981 -0.291047 0
M  V30 32 C 4.922407 1.703204 2.588486 0
M  V30 33 N 4.772835 0.572677 3.280081 0
M  V30 34 H 5.216851 -2.317202 3.434791 0
M  V30 35 H 4.060928 -2.910693 4.699824 0
M  V30 36 H 4.874675 -1.319311 4.937542 0
M  V30 37 H 2.989006 -2.061379 2.647151 0
M  V30 38 H 1.315084 -1.931154 4.154119 0
M  V30 39 H 2.468766 -1.408384 5.476493 0
M  V30 40 H 1.728842 -0.198967 4.420646 0
M  V30 41 H 2.263530 0.369141 1.402934 0
M  V30 42 H 4.379165 3.641656 0.757769 0
M  V30 43 H 1.616501 5.059710 -2.488413 0
M  V30 44 H -0.160805 3.405625 -2.733174 0
M  V30 45 H -1.563540 1.989537 -2.846854 0
M  V30 46 H -3.258402 0.304172 -3.003032 0
M  V30 47 H -3.511202 -2.278351 -2.682688 0
M  V30 48 H -4.984412 -0.679652 -0.531495 0
M  V30 49 H -5.005527 -0.529109 -2.365450 0
M  V30 50 H -5.408235 -2.973218 -2.219718 0
M  V30 51 H -4.582269 -2.114570 0.867372 0
M  V30 52 H -4.435455 -3.975956 2.384370 0
M  V30 53 H -2.205725 -4.245428 -1.985776 0
M  V30 54 H 0.283044 -0.238552 0.242531 0
M  V30 55 H 5.748245 2.399952 2.753839 0
M  V30 END ATOM
M  V30 BEGIN BOND
M  V30 1 1 1 2
M  V30 2 1 2 3
M  V30 3 1 2 4
M  V30 4 1 4 5
M  V30 5 2 5 6
M  V30 6 1 6 7
M  V30 7 1 7 8
M  V30 8 2 8 9
M  V30 9 1 9 10
M  V30 10 2 10 11
M  V30 11 1 11 12
M  V30 12 1 12 13
M  V30 13 1 13 14
M  V30 14 2 14 15
M  V30 15 1 15 16
M  V30 16 1 16 17
M  V30 17 1 17 18
M  V30 18 1 18 19
M  V30 19 1 17 20
M  V30 20 2 20 21
M  V30 21 1 21 22
M  V30 22 2 22 23
M  V30 23 1 23 24
M  V30 24 1 23 25
M  V30 25 1 25 26
M  V30 26 2 25 27
M  V30 27 1 16 28
M  V30 28 2 28 29
M  V30 29 1 28 30
M  V30 30 2 12 31
M  V30 31 1 6 32
M  V30 32 2 32 33
M  V30 33 1 33 4
M  V30 34 1 31 8
M  V30 35 2 30 13
M  V30 36 1 27 20
M  V30 37 1 1 34
M  V30 38 1 1 35
M  V30 39 1 1 36
M  V30 40 1 2 37
M  V30 41 1 3 38
M  V30 42 1 3 39
M  V30 43 1 3 40
M  V30 44 1 5 41
M  V30 45 1 7 42
M  V30 46 1 10 43
M  V30 47 1 11 44
M  V30 48 1 14 45
M  V30 49 1 15 46
M  V30 50 1 17 47 CFG=3
M  V30 51 1 18 48
M  V30 52 1 18 49
M  V30 53 1 19 50
M  V30 54 1 21 51
M  V30 55 1 22 52
M  V30 56 1 27 53
M  V30 57 1 30 54
M  V30 58 1 32 55
M  V30 END BOND
M  V30 END CTAB
M  END
>  <Dataset>  (479) 
ChEMBL_Kinases

>  <Ligand_Instance>  (479) 
nan

>  <PDB_ID>  (479) 
nan

>  <Standardized_SMILES>  (479) 
CC(C)n1cc(Nc2nccc(-c3ccn([C@H](CO)c4ccc(Cl)c(F)c4)c(=O)c3)n2)cn1

>  <Name>  (479) 
nan

>  <Pocket>  (479) 
nan

>  <ATP_Site>  (479) 
nan

>  <Peripheral>  (479) 
nan

>  <Num_H_Atoms_ProtBoundConf>  (479) 
nan

>  <Num_Resolved_Atoms>  (479) 
nan

>  <Num_Not_Resolved_Atoms>  (479) 
nan

$$$$
CHEMBL4474911
     RDKit          3D

  0  0  0  0  0  0  0  0  0  0999 V3000
M  V30 BEGIN CTAB
M  V30 COUNTS 51 55 0 0 0
M  V30 BEGIN ATOM
M  V30 1 C 1.181386 -1.613221 5.367114 0
M  V30 2 C 1.607415 -2.119514 4.029947 0
M  V30 3 C 2.313569 -3.309833 3.975025 0
M  V30 4 C 2.687350 -3.738431 2.705068 0
M  V30 5 C 2.352905 -2.987018 1.573951 0
M  V30 6 C 1.648328 -1.808775 1.685816 0
M  V30 7 C 1.276254 -0.994673 0.535454 0
M  V30 8 N 1.652231 0.261216 0.248751 0
M  V30 9 C 1.125633 0.707323 -0.884637 0
M  V30 10 C 1.165087 1.966670 -1.671962 0
M  V30 11 N 0.035589 2.808737 -1.333116 0
M  V30 12 C -0.400636 3.513458 -0.198703 0
M  V30 13 C 0.384018 3.478115 0.934766 0
M  V30 14 C 0.099857 4.124424 2.119973 0
M  V30 15 C -1.071311 4.876051 2.187375 0
M  V30 16 C -1.859612 4.916369 1.060091 0
M  V30 17 C -1.576294 4.272762 -0.119221 0
M  V30 18 C -2.433504 4.322788 -1.327787 0
M  V30 19 N 0.363991 -0.323840 -1.358199 0
M  V30 20 C 0.449755 -1.355847 -0.505602 0
M  V30 21 C -0.181881 -2.692947 -0.560487 0
M  V30 22 C -0.043346 -3.710788 -1.531934 0
M  V30 23 C -0.769749 -4.844402 -1.290667 0
M  V30 24 C -0.787486 -5.958043 -2.098977 0
M  V30 25 N -1.520805 -7.009050 -1.784835 0
M  V30 26 C -2.310419 -7.165007 -0.715184 0
M  V30 27 C -2.298080 -6.050333 0.101754 0
M  V30 28 C -1.569749 -4.931003 -0.153523 0
M  V30 29 S -1.364394 -3.411926 0.677100 0
M  V30 30 N 1.299162 -1.419334 2.940671 0
M  V30 31 H 0.320450 -0.911794 5.264672 0
M  V30 32 H 0.804227 -2.448371 6.017655 0
M  V30 33 H 1.976604 -1.090498 5.904254 0
M  V30 34 H 2.575351 -3.895333 4.843181 0
M  V30 35 H 3.239545 -4.654678 2.573568 0
M  V30 36 H 2.646375 -3.325894 0.589900 0
M  V30 37 H 2.283915 0.830799 0.825738 0
M  V30 38 H 1.145276 1.739576 -2.742988 0
M  V30 39 H 2.128105 2.506229 -1.446405 0
M  V30 40 H -0.663149 2.947183 -2.129720 0
M  V30 41 H 1.317544 2.946482 1.029071 0
M  V30 42 H 0.681858 4.119427 3.014852 0
M  V30 43 H -1.434170 5.434694 3.028918 0
M  V30 44 H -2.797312 5.473284 1.001906 0
M  V30 45 H -1.896190 4.567777 -2.242394 0
M  V30 46 H -3.240045 5.083575 -1.118284 0
M  V30 47 H -2.915458 3.319906 -1.447914 0
M  V30 48 H 0.616218 -3.480581 -2.350324 0
M  V30 49 H -0.220335 -6.065322 -3.031868 0
M  V30 50 H -2.898570 -8.029426 -0.479590 0
M  V30 51 H -2.877800 -5.997669 1.012410 0
M  V30 END ATOM
M  V30 BEGIN BOND
M  V30 1 1 1 2
M  V30 2 2 2 3
M  V30 3 1 3 4
M  V30 4 2 4 5
M  V30 5 1 5 6
M  V30 6 1 6 7
M  V30 7 1 7 8
M  V30 8 1 8 9
M  V30 9 1 9 10
M  V30 10 1 10 11
M  V30 11 1 11 12
M  V30 12 2 12 13
M  V30 13 1 13 14
M  V30 14 2 14 15
M  V30 15 1 15 16
M  V30 16 2 16 17
M  V30 17 1 17 18
M  V30 18 2 9 19
M  V30 19 1 19 20
M  V30 20 1 20 21
M  V30 21 2 21 22
M  V30 22 1 22 23
M  V30 23 2 23 24
M  V30 24 1 24 25
M  V30 25 2 25 26
M  V30 26 1 26 27
M  V30 27 2 27 28
M  V30 28 1 28 29
M  V30 29 2 6 30
M  V30 30 1 30 2
M  V30 31 2 20 7
M  V30 32 1 29 21
M  V30 33 1 17 12
M  V30 34 1 28 23
M  V30 35 1 1 31
M  V30 36 1 1 32
M  V30 37 1 1 33
M  V30 38 1 3 34
M  V30 39 1 4 35
M  V30 40 1 5 36
M  V30 41 1 8 37
M  V30 42 1 10 38
M  V30 43 1 10 39
M  V30 44 1 11 40
M  V30 45 1 13 41
M  V30 46 1 14 42
M  V30 47 1 15 43
M  V30 48 1 16 44
M  V30 49 1 18 45
M  V30 50 1 18 46
M  V30 51 1 18 47
M  V30 52 1 22 48
M  V30 53 1 24 49
M  V30 54 1 26 50
M  V30 55 1 27 51
M  V30 END BOND
M  V30 END CTAB
M  END
>  <Dataset>  (480) 
ChEMBL_Kinases

>  <Ligand_Instance>  (480) 
nan

>  <PDB_ID>  (480) 
nan

>  <Standardized_SMILES>  (480) 
Cc1cccc(-c2[nH]c(CNc3ccccc3C)nc2-c2cc3cnccc3s2)n1

>  <Name>  (480) 
nan

>  <Pocket>  (480) 
nan

>  <ATP_Site>  (480) 
nan

>  <Peripheral>  (480) 
nan

>  <Num_H_Atoms_ProtBoundConf>  (480) 
nan

>  <Num_Resolved_Atoms>  (480) 
nan

>  <Num_Not_Resolved_Atoms>  (480) 
nan

$$$$
CHEMBL4473924
     RDKit          3D

  0  0  0  0  0  0  0  0  0  0999 V3000
M  V30 BEGIN CTAB
M  V30 COUNTS 53 56 0 0 0
M  V30 BEGIN ATOM
M  V30 1 N 5.143713 -2.520285 4.799632 0
M  V30 2 C 5.836856 -3.309479 3.830993 0
M  V30 3 O 6.608057 -4.165774 4.338345 0
M  V30 4 C 5.697232 -3.173353 2.348597 0
M  V30 5 N 4.780170 -2.150460 1.935830 0
M  V30 6 C 4.456917 -1.805948 0.612910 0
M  V30 7 O 5.047322 -2.479755 -0.296433 0
M  V30 8 C 3.515986 -0.756729 0.231152 0
M  V30 9 C 2.792096 0.033932 1.100294 0
M  V30 10 C 1.927822 1.004125 0.635817 0
M  V30 11 C 1.737534 1.239292 -0.710471 0
M  V30 12 C 0.815599 2.275164 -1.240001 0
M  V30 13 N -0.535926 1.759332 -1.461863 0
M  V30 14 C -1.517288 1.495169 -0.479675 0
M  V30 15 O -1.284822 1.697425 0.738212 0
M  V30 16 C -2.819896 0.986516 -0.820353 0
M  V30 17 C -3.271711 0.706569 -2.071968 0
M  V30 18 N -4.526749 0.262924 -1.930522 0
M  V30 19 N -4.904833 0.242652 -0.657963 0
M  V30 20 C -6.174442 -0.177857 -0.227676 0
M  V30 21 C -6.692561 0.321215 0.940387 0
M  V30 22 C -7.940878 -0.064232 1.402100 0
M  V30 23 C -8.673368 -0.975352 0.658015 0
M  V30 24 C -8.158831 -1.470522 -0.501280 0
M  V30 25 C -6.923802 -1.084215 -0.950649 0
M  V30 26 C -3.844112 0.694589 0.057240 0
M  V30 27 N -3.819333 0.832319 1.463010 0
M  V30 28 C 2.450552 0.460990 -1.606331 0
M  V30 29 C 3.306435 -0.500335 -1.109049 0
M  V30 30 C 5.442772 -4.539475 1.656337 0
M  V30 31 C 6.722162 -3.769433 1.512576 0
M  V30 32 H 4.211351 -2.271893 5.246600 0
M  V30 33 H 5.456507 -1.795332 5.500540 0
M  V30 34 H 4.266884 -1.564164 2.648757 0
M  V30 35 H 2.925307 -0.133321 2.153813 0
M  V30 36 H 1.389149 1.591531 1.358955 0
M  V30 37 H 0.682823 3.117662 -0.529555 0
M  V30 38 H 1.175815 2.738156 -2.178146 0
M  V30 39 H -0.833965 1.553790 -2.458935 0
M  V30 40 H -2.690063 0.835297 -2.970372 0
M  V30 41 H -6.187358 1.029077 1.570854 0
M  V30 42 H -8.355020 0.336581 2.339562 0
M  V30 43 H -9.650923 -1.255613 1.051074 0
M  V30 44 H -8.730724 -2.184954 -1.086290 0
M  V30 45 H -6.510657 -1.481350 -1.880859 0
M  V30 46 H -3.896753 -0.064917 1.983026 0
M  V30 47 H -3.736221 1.687882 2.017611 0
M  V30 48 H 2.340525 0.602707 -2.670218 0
M  V30 49 H 3.849304 -1.092457 -1.841357 0
M  V30 50 H 4.737919 -4.538538 0.788674 0
M  V30 51 H 5.387710 -5.435468 2.277250 0
M  V30 52 H 6.989030 -3.484135 0.489361 0
M  V30 53 H 7.572755 -4.273534 2.060046 0
M  V30 END ATOM
M  V30 BEGIN BOND
M  V30 1 1 1 2
M  V30 2 2 2 3
M  V30 3 1 2 4
M  V30 4 1 4 5
M  V30 5 1 5 6
M  V30 6 2 6 7
M  V30 7 1 6 8
M  V30 8 2 8 9
M  V30 9 1 9 10
M  V30 10 2 10 11
M  V30 11 1 11 12
M  V30 12 1 12 13
M  V30 13 1 13 14
M  V30 14 2 14 15
M  V30 15 1 14 16
M  V30 16 1 16 17
M  V30 17 2 17 18
M  V30 18 1 18 19
M  V30 19 1 19 20
M  V30 20 2 20 21
M  V30 21 1 21 22
M  V30 22 2 22 23
M  V30 23 1 23 24
M  V30 24 2 24 25
M  V30 25 1 19 26
M  V30 26 1 26 27
M  V30 27 1 11 28
M  V30 28 2 28 29
M  V30 29 1 4 30
M  V30 30 1 30 31
M  V30 31 1 31 4
M  V30 32 1 29 8
M  V30 33 2 26 16
M  V30 34 1 25 20
M  V30 35 1 1 32
M  V30 36 1 1 33
M  V30 37 1 5 34
M  V30 38 1 9 35
M  V30 39 1 10 36
M  V30 40 1 12 37
M  V30 41 1 12 38
M  V30 42 1 13 39
M  V30 43 1 17 40
M  V30 44 1 21 41
M  V30 45 1 22 42
M  V30 46 1 23 43
M  V30 47 1 24 44
M  V30 48 1 25 45
M  V30 49 1 27 46
M  V30 50 1 27 47
M  V30 51 1 28 48
M  V30 52 1 29 49
M  V30 53 1 30 50
M  V30 54 1 30 51
M  V30 55 1 31 52
M  V30 56 1 31 53
M  V30 END BOND
M  V30 END CTAB
M  END
>  <Dataset>  (481) 
ChEMBL_Kinases

>  <Ligand_Instance>  (481) 
nan

>  <PDB_ID>  (481) 
nan

>  <Standardized_SMILES>  (481) 
NC(=O)C1(NC(=O)c2ccc(CNC(=O)c3cnn(-c4ccccc4)c3N)cc2)CC1

>  <Name>  (481) 
nan

>  <Pocket>  (481) 
nan

>  <ATP_Site>  (481) 
nan

>  <Peripheral>  (481) 
nan

>  <Num_H_Atoms_ProtBoundConf>  (481) 
nan

>  <Num_Resolved_Atoms>  (481) 
nan

>  <Num_Not_Resolved_Atoms>  (481) 
nan

$$$$
CHEMBL4474804
     RDKit          3D

  0  0  0  0  0  0  0  0  0  0999 V3000
M  V30 BEGIN CTAB
M  V30 COUNTS 54 57 0 0 0
M  V30 BEGIN ATOM
M  V30 1 O -1.844694 -0.552983 1.610221 0
M  V30 2 C -2.020628 -0.159247 2.813517 0
M  V30 3 C -2.047805 1.098120 3.612167 0
M  V30 4 O -1.812627 2.245966 2.859879 0
M  V30 5 C -0.666621 2.505119 2.131593 0
M  V30 6 C 0.425003 1.665718 2.036093 0
M  V30 7 C 1.552470 1.953687 1.301272 0
M  V30 8 C 1.584872 3.152354 0.624441 0
M  V30 9 C 2.719947 3.415782 -0.100815 0
M  V30 10 O 3.737952 2.683192 -0.217563 0
M  V30 11 C 2.807200 4.618610 -0.808007 0
M  V30 12 C 1.697354 5.459834 -0.704147 0
M  V30 13 O 0.633295 5.157940 0.005981 0
M  V30 14 C 0.532165 4.034062 0.676746 0
M  V30 15 C -0.586759 3.695603 1.435047 0
M  V30 16 N -2.262245 -1.363276 3.570465 0
M  V30 17 C -2.230334 -2.563246 2.772494 0
M  V30 18 C -3.427835 -2.965177 2.213153 0
M  V30 19 C -3.481572 -4.104728 1.435249 0
M  V30 20 C -2.338314 -4.835826 1.221121 0
M  V30 21 C -1.129952 -4.419780 1.792760 0
M  V30 22 N -0.018784 -5.241802 1.512023 0
M  V30 23 S 1.512544 -4.553003 1.056303 0
M  V30 24 O 1.945871 -3.594907 2.140745 0
M  V30 25 O 2.545216 -5.610477 0.890336 0
M  V30 26 C 1.374950 -3.641312 -0.431863 0
M  V30 27 C 1.064772 -2.279840 -0.350022 0
M  V30 28 C 0.924127 -1.436381 -1.433760 0
M  V30 29 C 1.106963 -1.997026 -2.681384 0
M  V30 30 O 0.956721 -1.114345 -3.749567 0
M  V30 31 C -0.328615 -0.925879 -4.360860 0
M  V30 32 F -0.227302 -0.017550 -5.381893 0
M  V30 33 F -0.711111 -2.134501 -4.914004 0
M  V30 34 F -1.244041 -0.514890 -3.397006 0
M  V30 35 C 1.414214 -3.334740 -2.816092 0
M  V30 36 C 1.545991 -4.143985 -1.706379 0
M  V30 37 C -1.082431 -3.280486 2.568806 0
M  V30 38 H -3.045829 1.202263 4.090631 0
M  V30 39 H -1.288872 1.036610 4.420941 0
M  V30 40 H 0.385339 0.737893 2.567451 0
M  V30 41 H 2.375140 1.266920 1.259392 0
M  V30 42 H 3.613907 4.991912 -1.425943 0
M  V30 43 H 1.572685 6.429233 -1.174396 0
M  V30 44 H -1.420351 4.388488 1.479521 0
M  V30 45 H -2.453645 -1.455723 4.613044 0
M  V30 46 H -4.364918 -2.406654 2.361548 0
M  V30 47 H -4.398284 -4.460808 0.974820 0
M  V30 48 H -2.393598 -5.730022 0.607172 0
M  V30 49 H -0.085394 -6.285642 1.569949 0
M  V30 50 H 0.923136 -1.852150 0.652071 0
M  V30 51 H 0.677809 -0.382629 -1.233151 0
M  V30 52 H 1.548533 -3.731258 -3.806796 0
M  V30 53 H 1.785781 -5.196073 -1.770414 0
M  V30 54 H -0.160438 -2.976412 2.995808 0
M  V30 END ATOM
M  V30 BEGIN BOND
M  V30 1 2 1 2
M  V30 2 1 2 3
M  V30 3 1 3 4
M  V30 4 1 4 5
M  V30 5 2 5 6
M  V30 6 1 6 7
M  V30 7 2 7 8
M  V30 8 1 8 9
M  V30 9 2 9 10
M  V30 10 1 9 11
M  V30 11 2 11 12
M  V30 12 1 12 13
M  V30 13 1 13 14
M  V30 14 2 14 15
M  V30 15 1 2 16
M  V30 16 1 16 17
M  V30 17 2 17 18
M  V30 18 1 18 19
M  V30 19 2 19 20
M  V30 20 1 20 21
M  V30 21 1 21 22
M  V30 22 1 22 23
M  V30 23 2 23 24
M  V30 24 2 23 25
M  V30 25 1 23 26
M  V30 26 2 26 27
M  V30 27 1 27 28
M  V30 28 2 28 29
M  V30 29 1 29 30
M  V30 30 1 30 31
M  V30 31 1 31 32
M  V30 32 1 31 33
M  V30 33 1 31 34
M  V30 34 1 29 35
M  V30 35 2 35 36
M  V30 36 2 21 37
M  V30 37 1 15 5
M  V30 38 1 37 17
M  V30 39 1 14 8
M  V30 40 1 36 26
M  V30 41 1 3 38
M  V30 42 1 3 39
M  V30 43 1 6 40
M  V30 44 1 7 41
M  V30 45 1 11 42
M  V30 46 1 12 43
M  V30 47 1 15 44
M  V30 48 1 16 45
M  V30 49 1 18 46
M  V30 50 1 19 47
M  V30 51 1 20 48
M  V30 52 1 22 49
M  V30 53 1 27 50
M  V30 54 1 28 51
M  V30 55 1 35 52
M  V30 56 1 36 53
M  V30 57 1 37 54
M  V30 END BOND
M  V30 END CTAB
M  END
>  <Dataset>  (482) 
ChEMBL_Kinases

>  <Ligand_Instance>  (482) 
nan

>  <PDB_ID>  (482) 
nan

>  <Standardized_SMILES>  (482) 
O=C(COc1ccc2c(=O)ccoc2c1)Nc1cccc(NS(=O)(=O)c2ccc(OC(F)(F)F)cc2)c1

>  <Name>  (482) 
nan

>  <Pocket>  (482) 
nan

>  <ATP_Site>  (482) 
nan

>  <Peripheral>  (482) 
nan

>  <Num_H_Atoms_ProtBoundConf>  (482) 
nan

>  <Num_Resolved_Atoms>  (482) 
nan

>  <Num_Not_Resolved_Atoms>  (482) 
nan

$$$$
CHEMBL3699246
     RDKit          3D

  0  0  0  0  0  0  0  0  0  0999 V3000
M  V30 BEGIN CTAB
M  V30 COUNTS 59 63 0 0 0
M  V30 BEGIN ATOM
M  V30 1 N -3.242817 -2.174802 3.249154 0
M  V30 2 C -2.216417 -2.060933 2.690476 0
M  V30 3 C -0.963919 -1.943866 1.995982 0
M  V30 4 C -0.403189 -0.682377 2.064578 0
M  V30 5 C 0.802968 -0.476815 1.427382 0
M  V30 6 N 1.434785 0.796886 1.465363 0
M  V30 7 C 0.833077 1.897163 2.132374 0
M  V30 8 N 0.080474 2.681380 1.337399 0
M  V30 9 C -0.559095 3.766334 1.816060 0
M  V30 10 N -1.340700 4.574282 0.956170 0
M  V30 11 C -2.079255 5.769149 1.344328 0
M  V30 12 C -1.349520 6.939733 1.920407 0
M  V30 13 C -1.948580 7.022137 0.554421 0
M  V30 14 C -0.458275 4.112509 3.168282 0
M  V30 15 N -0.931121 5.069488 3.951232 0
M  V30 16 C -0.499302 4.911732 5.214710 0
M  V30 17 C 0.290387 3.778024 5.192194 0
M  V30 18 C 0.939833 3.278336 6.368743 0
M  V30 19 N 1.467167 2.857495 7.332605 0
M  V30 20 N 0.313064 3.291773 3.937787 0
M  V30 21 N 0.921814 2.240583 3.430434 0
M  V30 22 C 1.375077 -1.540895 0.761320 0
M  V30 23 Cl 2.909361 -1.224452 -0.012487 0
M  V30 24 C 0.839840 -2.806702 0.675604 0
M  V30 25 N 1.362483 -3.905201 -0.010491 0
M  V30 26 C 0.877817 -5.263095 0.170012 0
M  V30 27 C -0.027447 -5.694448 -0.971187 0
M  V30 28 C 0.434378 -4.849697 -2.168616 0
M  V30 29 N -0.183241 -5.236287 -3.383086 0
M  V30 30 C 0.059009 -6.561135 -3.848623 0
M  V30 31 C -0.708104 -6.755200 -5.150274 0
M  V30 32 F -2.056333 -6.569637 -4.903542 0
M  V30 33 F -0.421137 -7.980694 -5.713787 0
M  V30 34 F -0.304350 -5.716011 -5.995103 0
M  V30 35 C 1.940453 -4.988121 -2.142034 0
M  V30 36 C 2.400012 -4.040178 -1.015342 0
M  V30 37 C -0.365116 -2.986705 1.320736 0
M  V30 38 H -0.846304 0.158180 2.585786 0
M  V30 39 H 2.350839 0.935154 0.999635 0
M  V30 40 H -1.428971 4.336163 -0.055834 0
M  V30 41 H -3.057424 5.529801 1.805843 0
M  V30 42 H -0.236423 6.952232 1.961847 0
M  V30 43 H -1.839394 7.474489 2.761751 0
M  V30 44 H -2.817339 7.695643 0.477508 0
M  V30 45 H -1.271965 7.040235 -0.337265 0
M  V30 46 H -0.718194 5.526205 6.053164 0
M  V30 47 H 0.238688 -5.403317 1.064637 0
M  V30 48 H 1.712578 -6.006127 0.314548 0
M  V30 49 H 0.163190 -6.774990 -1.197820 0
M  V30 50 H -1.081039 -5.485835 -0.765221 0
M  V30 51 H 0.193749 -3.790209 -1.980311 0
M  V30 52 H -0.398083 -4.516646 -4.073808 0
M  V30 53 H -0.281806 -7.319087 -3.110038 0
M  V30 54 H 1.129945 -6.666232 -4.114783 0
M  V30 55 H 2.384282 -4.738868 -3.105589 0
M  V30 56 H 2.219661 -6.000478 -1.793514 0
M  V30 57 H 3.301454 -4.470126 -0.493013 0
M  V30 58 H 2.697474 -3.148663 -1.542654 0
M  V30 59 H -0.970129 -3.872214 1.391499 0
M  V30 END ATOM
M  V30 BEGIN BOND
M  V30 1 3 1 2
M  V30 2 1 2 3
M  V30 3 2 3 4
M  V30 4 1 4 5
M  V30 5 1 5 6
M  V30 6 1 6 7
M  V30 7 1 7 8
M  V30 8 2 8 9
M  V30 9 1 9 10
M  V30 10 1 10 11
M  V30 11 1 11 12
M  V30 12 1 12 13
M  V30 13 1 9 14
M  V30 14 2 14 15
M  V30 15 1 15 16
M  V30 16 2 16 17
M  V30 17 1 17 18
M  V30 18 3 18 19
M  V30 19 1 17 20
M  V30 20 1 20 21
M  V30 21 2 5 22
M  V30 22 1 22 23
M  V30 23 1 22 24
M  V30 24 1 24 25
M  V30 25 1 25 26
M  V30 26 1 26 27
M  V30 27 1 27 28
M  V30 28 1 28 29
M  V30 29 1 29 30
M  V30 30 1 30 31
M  V30 31 1 31 32
M  V30 32 1 31 33
M  V30 33 1 31 34
M  V30 34 1 28 35
M  V30 35 1 35 36
M  V30 36 2 24 37
M  V30 37 1 37 3
M  V30 38 2 21 7
M  V30 39 1 36 25
M  V30 40 1 13 11
M  V30 41 1 20 14
M  V30 42 1 4 38
M  V30 43 1 6 39
M  V30 44 1 10 40
M  V30 45 1 11 41
M  V30 46 1 12 42
M  V30 47 1 12 43
M  V30 48 1 13 44
M  V30 49 1 13 45
M  V30 50 1 16 46
M  V30 51 1 26 47
M  V30 52 1 26 48
M  V30 53 1 27 49
M  V30 54 1 27 50
M  V30 55 1 28 51
M  V30 56 1 29 52
M  V30 57 1 30 53
M  V30 58 1 30 54
M  V30 59 1 35 55
M  V30 60 1 35 56
M  V30 61 1 36 57
M  V30 62 1 36 58
M  V30 63 1 37 59
M  V30 END BOND
M  V30 END CTAB
M  END
>  <Dataset>  (483) 
ChEMBL_Kinases

>  <Ligand_Instance>  (483) 
nan

>  <PDB_ID>  (483) 
nan

>  <Standardized_SMILES>  (483) 
N#Cc1cc(Nc2nc(NC3CC3)c3ncc(C#N)n3n2)c(Cl)c(N2CCC(NCC(F)(F)F)CC2)c1

>  <Name>  (483) 
nan

>  <Pocket>  (483) 
nan

>  <ATP_Site>  (483) 
nan

>  <Peripheral>  (483) 
nan

>  <Num_H_Atoms_ProtBoundConf>  (483) 
nan

>  <Num_Resolved_Atoms>  (483) 
nan

>  <Num_Not_Resolved_Atoms>  (483) 
nan

$$$$
CHEMBL3699245
     RDKit          3D

  0  0  0  0  0  0  0  0  0  0999 V3000
M  V30 BEGIN CTAB
M  V30 COUNTS 64 69 0 0 0
M  V30 BEGIN ATOM
M  V30 1 N -2.149464 -1.902331 5.986321 0
M  V30 2 C -1.657044 -1.827305 4.944263 0
M  V30 3 C -1.066901 -1.737223 3.644265 0
M  V30 4 C -0.515033 -0.583854 3.131224 0
M  V30 5 C 0.064857 -0.442774 1.889157 0
M  V30 6 N 0.623437 0.764485 1.399553 0
M  V30 7 C 0.675506 2.007828 2.077545 0
M  V30 8 N 1.253033 3.004867 1.427761 0
M  V30 9 C 1.420936 4.263844 1.852110 0
M  V30 10 N 2.069689 5.229143 1.075744 0
M  V30 11 C 2.463596 6.581836 0.981274 0
M  V30 12 C 3.231317 7.224324 2.119310 0
M  V30 13 C 1.903260 7.737153 1.699080 0
M  V30 14 C 0.922971 4.492935 3.102620 0
M  V30 15 N 0.861195 5.539129 3.921622 0
M  V30 16 C 0.262419 5.263767 5.086026 0
M  V30 17 C -0.099760 3.935468 5.035308 0
M  V30 18 C -0.769858 3.137053 6.019960 0
M  V30 19 N -1.324917 2.498980 6.807062 0
M  V30 20 N 0.324218 3.536640 3.825391 0
M  V30 21 N 0.226038 2.340300 3.285171 0
M  V30 22 C 0.052711 -1.615073 1.147107 0
M  V30 23 Cl 0.758600 -1.581894 -0.453263 0
M  V30 24 C -0.477283 -2.782506 1.600301 0
M  V30 25 N -0.479835 -3.969558 0.818511 0
M  V30 26 C 0.683918 -4.613467 0.314541 0
M  V30 27 C 0.597438 -4.879428 -1.149164 0
M  V30 28 C -0.758313 -4.614133 -1.758135 0
M  V30 29 N -0.787822 -5.185098 -3.081215 0
M  V30 30 C -2.032309 -4.995287 -3.778414 0
M  V30 31 C -1.972942 -5.624152 -5.174165 0
M  V30 32 C -1.664792 -4.255545 -5.733859 0
M  V30 33 C -0.231757 -4.051232 -5.975201 0
M  V30 34 N 0.878720 -3.905194 -6.174324 0
M  V30 35 C -2.182033 -3.653591 -4.453046 0
M  V30 36 C -1.849149 -5.160379 -0.864171 0
M  V30 37 C -1.743564 -4.582680 0.505810 0
M  V30 38 C -1.045567 -2.866641 2.853555 0
M  V30 39 H -0.578627 0.242383 3.820115 0
M  V30 40 H 1.023011 0.673206 0.438371 0
M  V30 41 H 2.426597 4.768765 0.180835 0
M  V30 42 H 2.889478 6.889888 -0.040611 0
M  V30 43 H 3.272540 6.671969 3.081531 0
M  V30 44 H 4.119293 7.813280 1.875548 0
M  V30 45 H 1.929380 8.761410 1.195060 0
M  V30 46 H 1.058189 7.709015 2.398168 0
M  V30 47 H 0.090988 5.935634 5.906271 0
M  V30 48 H 1.617767 -4.051386 0.599477 0
M  V30 49 H 0.797285 -5.589212 0.872821 0
M  V30 50 H 1.383394 -4.336828 -1.680460 0
M  V30 51 H 0.798478 -5.973066 -1.347683 0
M  V30 52 H -0.995606 -3.541059 -1.888026 0
M  V30 53 H -0.520091 -6.192083 -3.109018 0
M  V30 54 H -2.961775 -5.326016 -3.229459 0
M  V30 55 H -1.106731 -6.289161 -5.285244 0
M  V30 56 H -2.946941 -6.047062 -5.494405 0
M  V30 57 H -2.298075 -4.075383 -6.625125 0
M  V30 58 H -1.420500 -2.950526 -4.019015 0
M  V30 59 H -3.211888 -3.246447 -4.494203 0
M  V30 60 H -1.890129 -6.267643 -0.901584 0
M  V30 61 H -2.820990 -4.769536 -1.289588 0
M  V30 62 H -1.857456 -5.428663 1.241527 0
M  V30 63 H -2.587604 -3.898777 0.764568 0
M  V30 64 H -1.465038 -3.796489 3.208210 0
M  V30 END ATOM
M  V30 BEGIN BOND
M  V30 1 3 1 2
M  V30 2 1 2 3
M  V30 3 2 3 4
M  V30 4 1 4 5
M  V30 5 1 5 6
M  V30 6 1 6 7
M  V30 7 1 7 8
M  V30 8 2 8 9
M  V30 9 1 9 10
M  V30 10 1 10 11
M  V30 11 1 11 12
M  V30 12 1 12 13
M  V30 13 1 9 14
M  V30 14 2 14 15
M  V30 15 1 15 16
M  V30 16 2 16 17
M  V30 17 1 17 18
M  V30 18 3 18 19
M  V30 19 1 17 20
M  V30 20 1 20 21
M  V30 21 2 5 22
M  V30 22 1 22 23
M  V30 23 1 22 24
M  V30 24 1 24 25
M  V30 25 1 25 26
M  V30 26 1 26 27
M  V30 27 1 27 28
M  V30 28 1 28 29
M  V30 29 1 29 30
M  V30 30 1 30 31
M  V30 31 1 31 32
M  V30 32 1 32 33
M  V30 33 3 33 34
M  V30 34 1 32 35
M  V30 35 1 28 36
M  V30 36 1 36 37
M  V30 37 2 24 38
M  V30 38 1 38 3
M  V30 39 2 21 7
M  V30 40 1 37 25
M  V30 41 1 13 11
M  V30 42 1 20 14
M  V30 43 1 35 30
M  V30 44 1 4 39
M  V30 45 1 6 40
M  V30 46 1 10 41
M  V30 47 1 11 42
M  V30 48 1 12 43
M  V30 49 1 12 44
M  V30 50 1 13 45
M  V30 51 1 13 46
M  V30 52 1 16 47
M  V30 53 1 26 48
M  V30 54 1 26 49
M  V30 55 1 27 50
M  V30 56 1 27 51
M  V30 57 1 28 52
M  V30 58 1 29 53
M  V30 59 1 30 54
M  V30 60 1 31 55
M  V30 61 1 31 56
M  V30 62 1 32 57
M  V30 63 1 35 58
M  V30 64 1 35 59
M  V30 65 1 36 60
M  V30 66 1 36 61
M  V30 67 1 37 62
M  V30 68 1 37 63
M  V30 69 1 38 64
M  V30 END BOND
M  V30 END CTAB
M  END
>  <Dataset>  (484) 
ChEMBL_Kinases

>  <Ligand_Instance>  (484) 
nan

>  <PDB_ID>  (484) 
nan

>  <Standardized_SMILES>  (484) 
N#Cc1cc(Nc2nc(NC3CC3)c3ncc(C#N)n3n2)c(Cl)c(N2CCC(NC3CC(C#N)C3)CC2)c1

>  <Name>  (484) 
nan

>  <Pocket>  (484) 
nan

>  <ATP_Site>  (484) 
nan

>  <Peripheral>  (484) 
nan

>  <Num_H_Atoms_ProtBoundConf>  (484) 
nan

>  <Num_Resolved_Atoms>  (484) 
nan

>  <Num_Not_Resolved_Atoms>  (484) 
nan

$$$$
CHEMBL4474769
     RDKit          3D

  0  0  0  0  0  0  0  0  0  0999 V3000
M  V30 BEGIN CTAB
M  V30 COUNTS 33 34 0 0 0
M  V30 BEGIN ATOM
M  V30 1 C -2.112248 -2.828660 1.836174 0
M  V30 2 C -1.700611 -1.941960 2.973725 0
M  V30 3 N -1.718156 -0.553576 2.579926 0
M  V30 4 C -0.881174 -0.043732 1.554547 0
M  V30 5 C 0.016785 -0.828321 0.865230 0
M  V30 6 C 0.845626 -0.358772 -0.132264 0
M  V30 7 C 1.791206 -1.207173 -0.850688 0
M  V30 8 C 1.625527 -2.546440 -1.138394 0
M  V30 9 C 2.613368 -3.214175 -1.828417 0
M  V30 10 C 3.782087 -2.615700 -2.258815 0
M  V30 11 N 3.926959 -1.309452 -1.969672 0
M  V30 12 C 2.974340 -0.644448 -1.298440 0
M  V30 13 C 0.793308 0.974655 -0.481535 0
M  V30 14 C -0.082871 1.817527 0.167883 0
M  V30 15 C -0.875588 1.271408 1.151135 0
M  V30 16 C -1.768768 2.229860 1.783384 0
M  V30 17 N -1.866758 3.611178 1.464962 0
M  V30 18 O -2.650973 2.333726 2.663859 0
M  V30 19 H -2.220456 -2.306203 0.862681 0
M  V30 20 H -1.369592 -3.640363 1.695290 0
M  V30 21 H -3.085977 -3.331810 2.050584 0
M  V30 22 H -2.371540 -2.135591 3.815826 0
M  V30 23 H -0.677639 -2.242433 3.315767 0
M  V30 24 H -2.366377 0.070293 3.070857 0
M  V30 25 H 0.122431 -1.879995 1.077776 0
M  V30 26 H 0.705187 -3.000636 -0.794515 0
M  V30 27 H 2.450148 -4.260325 -2.036008 0
M  V30 28 H 4.497688 -3.239068 -2.797923 0
M  V30 29 H 3.242922 0.394037 -1.146795 0
M  V30 30 H 1.441809 1.347670 -1.263584 0
M  V30 31 H -0.104449 2.852247 -0.122264 0
M  V30 32 H -2.513317 4.126668 0.815374 0
M  V30 33 H -2.521918 4.117495 0.809441 0
M  V30 END ATOM
M  V30 BEGIN BOND
M  V30 1 1 1 2
M  V30 2 1 2 3
M  V30 3 1 3 4
M  V30 4 2 4 5
M  V30 5 1 5 6
M  V30 6 1 6 7
M  V30 7 2 7 8
M  V30 8 1 8 9
M  V30 9 2 9 10
M  V30 10 1 10 11
M  V30 11 2 11 12
M  V30 12 2 6 13
M  V30 13 1 13 14
M  V30 14 2 14 15
M  V30 15 1 15 16
M  V30 16 1 16 17
M  V30 17 2 16 18
M  V30 18 1 15 4
M  V30 19 1 12 7
M  V30 20 1 1 19
M  V30 21 1 1 20
M  V30 22 1 1 21
M  V30 23 1 2 22
M  V30 24 1 2 23
M  V30 25 1 3 24
M  V30 26 1 5 25
M  V30 27 1 8 26
M  V30 28 1 9 27
M  V30 29 1 10 28
M  V30 30 1 12 29
M  V30 31 1 13 30
M  V30 32 1 14 31
M  V30 33 1 17 32
M  V30 34 1 17 33
M  V30 END BOND
M  V30 END CTAB
M  END
>  <Dataset>  (485) 
ChEMBL_Kinases

>  <Ligand_Instance>  (485) 
nan

>  <PDB_ID>  (485) 
nan

>  <Standardized_SMILES>  (485) 
CCNc1cc(-c2cccnc2)ccc1C(N)=O

>  <Name>  (485) 
nan

>  <Pocket>  (485) 
nan

>  <ATP_Site>  (485) 
nan

>  <Peripheral>  (485) 
nan

>  <Num_H_Atoms_ProtBoundConf>  (485) 
nan

>  <Num_Resolved_Atoms>  (485) 
nan

>  <Num_Not_Resolved_Atoms>  (485) 
nan

$$$$
CHEMBL4474740
     RDKit          3D

  0  0  0  0  0  0  0  0  0  0999 V3000
M  V30 BEGIN CTAB
M  V30 COUNTS 42 45 0 0 0
M  V30 BEGIN ATOM
M  V30 1 C 0.634775 -5.383591 -1.596038 0
M  V30 2 C 0.504675 -3.891678 -1.414861 0
M  V30 3 N 1.270241 -3.003916 -2.100636 0
M  V30 4 C 0.917289 -1.741578 -1.717281 0
M  V30 5 C 1.401576 -0.426554 -2.120392 0
M  V30 6 C 2.008402 0.429511 -1.216762 0
M  V30 7 C 2.476335 1.683271 -1.578850 0
M  V30 8 C 2.311926 2.061360 -2.911807 0
M  V30 9 F 2.777635 3.295067 -3.248151 0
M  V30 10 C 1.705400 1.205881 -3.815131 0
M  V30 11 F 1.605998 1.689115 -5.073707 0
M  V30 12 C 1.246923 -0.044537 -3.421362 0
M  V30 13 C -0.085441 -1.890926 -0.778393 0
M  V30 14 C -0.875466 -0.914326 0.006370 0
M  V30 15 C -1.732919 0.039617 -0.476706 0
M  V30 16 C -2.366874 0.846952 0.444955 0
M  V30 17 N -2.195623 0.754772 1.775872 0
M  V30 18 C -1.347366 -0.186225 2.286415 0
M  V30 19 N -1.120704 -0.334944 3.705805 0
M  V30 20 C -0.047094 0.432663 4.287737 0
M  V30 21 O 0.536366 1.138739 3.398230 0
M  V30 22 C 0.222761 0.309584 5.752105 0
M  V30 23 C 0.975857 1.358147 6.464559 0
M  V30 24 C 1.717638 0.123576 6.045500 0
M  V30 25 C -0.703940 -1.002690 1.387047 0
M  V30 26 N -0.317986 -3.183036 -0.611106 0
M  V30 27 H 0.855420 -5.627073 -2.636095 0
M  V30 28 H 1.437450 -5.764039 -0.909143 0
M  V30 29 H -0.303485 -5.832102 -1.197610 0
M  V30 30 H 2.143003 0.146993 -0.174961 0
M  V30 31 H 2.956693 2.357592 -0.858817 0
M  V30 32 H 0.775935 -0.679517 -4.177186 0
M  V30 33 H -1.830776 0.068885 -1.533872 0
M  V30 34 H -3.039343 1.595689 0.065554 0
M  V30 35 H -1.727923 -0.980657 4.258843 0
M  V30 36 H -0.421053 -0.375116 6.345882 0
M  V30 37 H 0.829029 1.451270 7.555874 0
M  V30 38 H 1.234052 2.323517 5.973939 0
M  V30 39 H 2.445008 0.243514 5.234338 0
M  V30 40 H 2.008994 -0.627225 6.800029 0
M  V30 41 H -0.040395 -1.736176 1.822439 0
M  V30 42 H -0.978100 -3.722355 -0.010910 0
M  V30 END ATOM
M  V30 BEGIN BOND
M  V30 1 1 1 2
M  V30 2 2 2 3
M  V30 3 1 3 4
M  V30 4 1 4 5
M  V30 5 2 5 6
M  V30 6 1 6 7
M  V30 7 2 7 8
M  V30 8 1 8 9
M  V30 9 1 8 10
M  V30 10 1 10 11
M  V30 11 2 10 12
M  V30 12 2 4 13
M  V30 13 1 13 14
M  V30 14 2 14 15
M  V30 15 1 15 16
M  V30 16 2 16 17
M  V30 17 1 17 18
M  V30 18 1 18 19
M  V30 19 1 19 20
M  V30 20 2 20 21
M  V30 21 1 20 22
M  V30 22 1 22 23
M  V30 23 1 23 24
M  V30 24 2 18 25
M  V30 25 1 13 26
M  V30 26 1 26 2
M  V30 27 1 12 5
M  V30 28 1 25 14
M  V30 29 1 24 22
M  V30 30 1 1 27
M  V30 31 1 1 28
M  V30 32 1 1 29
M  V30 33 1 6 30
M  V30 34 1 7 31
M  V30 35 1 12 32
M  V30 36 1 15 33
M  V30 37 1 16 34
M  V30 38 1 19 35
M  V30 39 1 22 36
M  V30 40 1 23 37
M  V30 41 1 23 38
M  V30 42 1 24 39
M  V30 43 1 24 40
M  V30 44 1 25 41
M  V30 45 1 26 42
M  V30 END BOND
M  V30 END CTAB
M  END
>  <Dataset>  (486) 
ChEMBL_Kinases

>  <Ligand_Instance>  (486) 
nan

>  <PDB_ID>  (486) 
nan

>  <Standardized_SMILES>  (486) 
Cc1nc(-c2ccc(F)c(F)c2)c(-c2ccnc(NC(=O)C3CC3)c2)[nH]1

>  <Name>  (486) 
nan

>  <Pocket>  (486) 
nan

>  <ATP_Site>  (486) 
nan

>  <Peripheral>  (486) 
nan

>  <Num_H_Atoms_ProtBoundConf>  (486) 
nan

>  <Num_Resolved_Atoms>  (486) 
nan

>  <Num_Not_Resolved_Atoms>  (486) 
nan

$$$$
CHEMBL4474546
     RDKit          3D

  0  0  0  0  0  0  0  0  0  0999 V3000
M  V30 BEGIN CTAB
M  V30 COUNTS 28 29 0 0 0
M  V30 BEGIN ATOM
M  V30 1 N -0.138839 -5.441659 2.939441 0
M  V30 2 C 0.009910 -4.091114 3.358813 0
M  V30 3 O -0.047665 -4.045444 4.604367 0
M  V30 4 C 0.196303 -2.984109 2.434206 0
M  V30 5 C 0.328355 -1.718504 2.966108 0
M  V30 6 C 0.503589 -0.688141 2.063750 0
M  V30 7 C 0.544551 -0.913145 0.697928 0
M  V30 8 C 0.731301 0.201738 -0.235457 0
M  V30 9 C 1.405065 -0.053485 -1.434755 0
M  V30 10 N 1.612890 0.933614 -2.345478 0
M  V30 11 C 1.149306 2.185013 -2.066113 0
M  V30 12 C 0.484174 2.439205 -0.883435 0
M  V30 13 C 0.015136 3.801239 -0.650744 0
M  V30 14 O 0.222575 4.694629 -1.514367 0
M  V30 15 O -0.664401 4.167391 0.503569 0
M  V30 16 C 0.258739 1.462785 0.056555 0
M  V30 17 C 0.403797 -2.219248 0.237304 0
M  V30 18 C 0.226170 -3.286622 1.095143 0
M  V30 19 H -0.818812 -6.224200 2.885712 0
M  V30 20 H -1.093463 -5.872004 3.094847 0
M  V30 21 H 0.290715 -1.585380 4.037370 0
M  V30 22 H 0.610768 0.318195 2.446602 0
M  V30 23 H 1.801212 -1.026210 -1.722286 0
M  V30 24 H 1.342054 2.945564 -2.832437 0
M  V30 25 H -1.461413 4.813604 0.455196 0
M  V30 26 H -0.256431 1.641761 0.981550 0
M  V30 27 H 0.434024 -2.408411 -0.825111 0
M  V30 28 H 0.115997 -4.300048 0.754332 0
M  V30 END ATOM
M  V30 BEGIN BOND
M  V30 1 1 1 2
M  V30 2 2 2 3
M  V30 3 1 2 4
M  V30 4 2 4 5
M  V30 5 1 5 6
M  V30 6 2 6 7
M  V30 7 1 7 8
M  V30 8 2 8 9
M  V30 9 1 9 10
M  V30 10 2 10 11
M  V30 11 1 11 12
M  V30 12 1 12 13
M  V30 13 2 13 14
M  V30 14 1 13 15
M  V30 15 2 12 16
M  V30 16 1 7 17
M  V30 17 2 17 18
M  V30 18 1 18 4
M  V30 19 1 16 8
M  V30 20 1 1 19
M  V30 21 1 1 20
M  V30 22 1 5 21
M  V30 23 1 6 22
M  V30 24 1 9 23
M  V30 25 1 11 24
M  V30 26 1 15 25
M  V30 27 1 16 26
M  V30 28 1 17 27
M  V30 29 1 18 28
M  V30 END BOND
M  V30 END CTAB
M  END
>  <Dataset>  (487) 
ChEMBL_Kinases

>  <Ligand_Instance>  (487) 
nan

>  <PDB_ID>  (487) 
nan

>  <Standardized_SMILES>  (487) 
NC(=O)c1ccc(-c2cncc(C(=O)O)c2)cc1

>  <Name>  (487) 
nan

>  <Pocket>  (487) 
nan

>  <ATP_Site>  (487) 
nan

>  <Peripheral>  (487) 
nan

>  <Num_H_Atoms_ProtBoundConf>  (487) 
nan

>  <Num_Resolved_Atoms>  (487) 
nan

>  <Num_Not_Resolved_Atoms>  (487) 
nan

$$$$
CHEMBL4474459
     RDKit          3D

  0  0  0  0  0  0  0  0  0  0999 V3000
M  V30 BEGIN CTAB
M  V30 COUNTS 37 39 0 0 0
M  V30 BEGIN ATOM
M  V30 1 N 3.482402 -5.860382 3.458803 0
M  V30 2 S 2.256590 -6.135925 2.251723 0
M  V30 3 O 0.955280 -6.319366 2.951355 0
M  V30 4 O 2.645691 -7.343912 1.459827 0
M  V30 5 C 2.146071 -4.728579 1.221187 0
M  V30 6 C 1.276394 -3.712998 1.554932 0
M  V30 7 C 1.245268 -2.636941 0.694165 0
M  V30 8 C 2.002255 -2.507306 -0.447150 0
M  V30 9 N 1.954899 -1.390201 -1.320251 0
M  V30 10 C 1.190031 -0.196633 -1.278823 0
M  V30 11 N 1.145981 0.854824 -2.101579 0
M  V30 12 C 0.245241 1.707741 -1.589093 0
M  V30 13 N -0.287755 1.233383 -0.462270 0
M  V30 14 C -1.231813 1.703015 0.468652 0
M  V30 15 O -1.503335 0.903635 1.439745 0
M  V30 16 C -2.011073 2.900795 0.621685 0
M  V30 17 C -3.194944 2.771736 1.359949 0
M  V30 18 F -3.684492 1.638445 1.924356 0
M  V30 19 C -4.026063 3.876585 1.589047 0
M  V30 20 C -3.677414 5.105265 1.084205 0
M  V30 21 C -2.527642 5.297139 0.352651 0
M  V30 22 C -1.761758 4.172323 0.167737 0
M  V30 23 F -0.625235 4.416732 -0.518288 0
M  V30 24 N 0.317068 0.071830 -0.312893 0
M  V30 25 C 2.854388 -3.543207 -0.739908 0
M  V30 26 C 2.921696 -4.636462 0.085943 0
M  V30 27 H 4.334262 -5.458869 2.997942 0
M  V30 28 H 3.762493 -6.805487 3.800540 0
M  V30 29 H 0.658870 -3.766916 2.442470 0
M  V30 30 H 0.557494 -1.857672 0.978160 0
M  V30 31 H 2.589083 -1.408156 -2.170196 0
M  V30 32 H 0.046077 2.614948 -2.108873 0
M  V30 33 H -4.946644 3.820478 2.151816 0
M  V30 34 H -4.326904 5.953109 1.265540 0
M  V30 35 H -2.277482 6.264071 -0.029903 0
M  V30 36 H 3.479889 -3.514837 -1.616890 0
M  V30 37 H 3.612781 -5.438628 -0.183342 0
M  V30 END ATOM
M  V30 BEGIN BOND
M  V30 1 1 1 2
M  V30 2 2 2 3
M  V30 3 2 2 4
M  V30 4 1 2 5
M  V30 5 2 5 6
M  V30 6 1 6 7
M  V30 7 2 7 8
M  V30 8 1 8 9
M  V30 9 1 9 10
M  V30 10 1 10 11
M  V30 11 2 11 12
M  V30 12 1 12 13
M  V30 13 1 13 14
M  V30 14 2 14 15
M  V30 15 1 14 16
M  V30 16 2 16 17
M  V30 17 1 17 18
M  V30 18 1 17 19
M  V30 19 2 19 20
M  V30 20 1 20 21
M  V30 21 2 21 22
M  V30 22 1 22 23
M  V30 23 1 13 24
M  V30 24 1 8 25
M  V30 25 2 25 26
M  V30 26 1 26 5
M  V30 27 2 24 10
M  V30 28 1 22 16
M  V30 29 1 1 27
M  V30 30 1 1 28
M  V30 31 1 6 29
M  V30 32 1 7 30
M  V30 33 1 9 31
M  V30 34 1 12 32
M  V30 35 1 19 33
M  V30 36 1 20 34
M  V30 37 1 21 35
M  V30 38 1 25 36
M  V30 39 1 26 37
M  V30 END BOND
M  V30 END CTAB
M  END
>  <Dataset>  (488) 
ChEMBL_Kinases

>  <Ligand_Instance>  (488) 
nan

>  <PDB_ID>  (488) 
nan

>  <Standardized_SMILES>  (488) 
NS(=O)(=O)c1ccc(Nc2ncn(C(=O)c3c(F)cccc3F)n2)cc1

>  <Name>  (488) 
nan

>  <Pocket>  (488) 
nan

>  <ATP_Site>  (488) 
nan

>  <Peripheral>  (488) 
nan

>  <Num_H_Atoms_ProtBoundConf>  (488) 
nan

>  <Num_Resolved_Atoms>  (488) 
nan

>  <Num_Not_Resolved_Atoms>  (488) 
nan

$$$$
CHEMBL4474271
     RDKit          3D

  0  0  0  0  0  0  0  0  0  0999 V3000
M  V30 BEGIN CTAB
M  V30 COUNTS 58 61 0 0 0
M  V30 BEGIN ATOM
M  V30 1 C 2.216798 0.134724 4.087106 0
M  V30 2 N 3.183995 0.074705 2.984897 0
M  V30 3 C 4.340216 -0.785616 3.130213 0
M  V30 4 C 2.972942 0.824249 1.815976 0
M  V30 5 C 3.838291 0.849286 0.756067 0
M  V30 6 C 3.689500 1.564038 -0.433471 0
M  V30 7 C 2.520806 2.329265 -0.523693 0
M  V30 8 S 2.330803 3.258771 -1.988686 0
M  V30 9 O 1.517936 4.519585 -1.701795 0
M  V30 10 O 3.673068 3.725397 -2.445295 0
M  V30 11 N 1.566394 2.409902 -3.260228 0
M  V30 12 C 0.261072 1.855498 -3.319170 0
M  V30 13 C -0.494236 2.127119 -4.468227 0
M  V30 14 C -1.768528 1.756451 -4.814712 0
M  V30 15 C -2.391394 0.972190 -3.826986 0
M  V30 16 C -1.704535 0.648968 -2.637008 0
M  V30 17 N -2.388222 -0.148885 -1.750621 0
M  V30 18 C -3.003749 -1.099524 -0.951105 0
M  V30 19 O -2.577350 -2.211239 -1.483753 0
M  V30 20 C -3.893431 -0.969760 0.187917 0
M  V30 21 O -4.336576 -2.126011 0.763597 0
M  V30 22 C -3.653095 -3.150651 1.379421 0
M  V30 23 C -4.386412 -4.210222 1.867699 0
M  V30 24 C -3.700250 -5.253333 2.494317 0
M  V30 25 C -2.340901 -5.137377 2.570609 0
M  V30 26 C -1.637297 -6.139302 3.172077 0
M  V30 27 O -2.075535 -7.181066 3.680146 0
M  V30 28 C -0.288319 -6.036775 3.252133 0
M  V30 29 C 0.517984 -5.023755 2.793358 0
M  V30 30 O -0.215806 -4.047601 2.202792 0
M  V30 31 C -1.506846 -4.134535 2.121432 0
M  V30 32 C -2.316672 -3.130517 1.505283 0
M  V30 33 C -0.432678 1.087624 -2.422257 0
M  V30 34 C 1.559282 2.381591 0.503161 0
M  V30 35 C 1.877428 1.610536 1.603400 0
M  V30 36 H 1.194136 0.161744 3.687369 0
M  V30 37 H 2.364923 -0.713071 4.782660 0
M  V30 38 H 2.347672 1.068124 4.690717 0
M  V30 39 H 4.237992 -1.580197 2.332116 0
M  V30 40 H 5.309976 -0.265940 3.047973 0
M  V30 41 H 4.297870 -1.332222 4.080375 0
M  V30 42 H 4.765061 0.260751 0.794510 0
M  V30 43 H 4.412416 1.536321 -1.229140 0
M  V30 44 H 2.096095 2.242112 -4.160543 0
M  V30 45 H -0.025102 2.737273 -5.244998 0
M  V30 46 H -2.242561 2.035850 -5.740102 0
M  V30 47 H -3.400769 0.629585 -3.999335 0
M  V30 48 H -2.769017 0.744739 -1.254565 0
M  V30 49 H -3.370145 -0.380167 0.999926 0
M  V30 50 H -4.804863 -0.338718 -0.015834 0
M  V30 51 H -5.444627 -4.260410 1.785172 0
M  V30 52 H -4.176410 -6.113712 2.907627 0
M  V30 53 H 0.517563 -6.666149 3.666702 0
M  V30 54 H 1.364684 -4.414340 2.552478 0
M  V30 55 H -1.779816 -2.258954 1.107895 0
M  V30 56 H 0.133786 0.859649 -1.516258 0
M  V30 57 H 0.671094 2.975795 0.393779 0
M  V30 58 H 1.089969 1.690357 2.374144 0
M  V30 END ATOM
M  V30 BEGIN BOND
M  V30 1 1 1 2
M  V30 2 1 2 3
M  V30 3 1 2 4
M  V30 4 2 4 5
M  V30 5 1 5 6
M  V30 6 2 6 7
M  V30 7 1 7 8
M  V30 8 2 8 9
M  V30 9 2 8 10
M  V30 10 1 8 11
M  V30 11 1 11 12
M  V30 12 2 12 13
M  V30 13 1 13 14
M  V30 14 2 14 15
M  V30 15 1 15 16
M  V30 16 1 16 17
M  V30 17 1 17 18
M  V30 18 2 18 19
M  V30 19 1 18 20
M  V30 20 1 20 21
M  V30 21 1 21 22
M  V30 22 2 22 23
M  V30 23 1 23 24
M  V30 24 2 24 25
M  V30 25 1 25 26
M  V30 26 2 26 27
M  V30 27 1 26 28
M  V30 28 2 28 29
M  V30 29 1 29 30
M  V30 30 1 30 31
M  V30 31 2 31 32
M  V30 32 2 16 33
M  V30 33 1 7 34
M  V30 34 2 34 35
M  V30 35 1 35 4
M  V30 36 1 33 12
M  V30 37 1 32 22
M  V30 38 1 31 25
M  V30 39 1 1 36
M  V30 40 1 1 37
M  V30 41 1 1 38
M  V30 42 1 3 39
M  V30 43 1 3 40
M  V30 44 1 3 41
M  V30 45 1 5 42
M  V30 46 1 6 43
M  V30 47 1 11 44
M  V30 48 1 13 45
M  V30 49 1 14 46
M  V30 50 1 15 47
M  V30 51 1 17 48
M  V30 52 1 20 49
M  V30 53 1 20 50
M  V30 54 1 23 51
M  V30 55 1 24 52
M  V30 56 1 28 53
M  V30 57 1 29 54
M  V30 58 1 32 55
M  V30 59 1 33 56
M  V30 60 1 34 57
M  V30 61 1 35 58
M  V30 END BOND
M  V30 END CTAB
M  END
>  <Dataset>  (489) 
ChEMBL_Kinases

>  <Ligand_Instance>  (489) 
nan

>  <PDB_ID>  (489) 
nan

>  <Standardized_SMILES>  (489) 
CN(C)c1ccc(S(=O)(=O)Nc2cccc(NC(=O)COc3ccc4c(=O)ccoc4c3)c2)cc1

>  <Name>  (489) 
nan

>  <Pocket>  (489) 
nan

>  <ATP_Site>  (489) 
nan

>  <Peripheral>  (489) 
nan

>  <Num_H_Atoms_ProtBoundConf>  (489) 
nan

>  <Num_Resolved_Atoms>  (489) 
nan

>  <Num_Not_Resolved_Atoms>  (489) 
nan

$$$$
CHEMBL3699244
     RDKit          3D

  0  0  0  0  0  0  0  0  0  0999 V3000
M  V30 BEGIN CTAB
M  V30 COUNTS 66 71 0 0 0
M  V30 BEGIN ATOM
M  V30 1 N 3.288604 -1.787811 -2.156604 0
M  V30 2 C 2.527880 -1.597329 -1.277337 0
M  V30 3 C 1.600317 -1.366750 -0.193394 0
M  V30 4 C 1.261430 -0.088649 0.194933 0
M  V30 5 C 0.391884 0.239123 1.211432 0
M  V30 6 N 0.059445 1.559373 1.600586 0
M  V30 7 C 0.519848 2.766926 1.025263 0
M  V30 8 N 0.118079 3.938602 1.546005 0
M  V30 9 C 0.479138 5.144134 1.090414 0
M  V30 10 N -0.015865 6.307355 1.738219 0
M  V30 11 C 0.283731 7.666069 1.356189 0
M  V30 12 C -0.269191 8.809516 2.124836 0
M  V30 13 C 1.208985 8.420835 2.286843 0
M  V30 14 C 1.324089 5.218693 0.009000 0
M  V30 15 N 1.873557 6.221553 -0.688845 0
M  V30 16 C 2.646854 5.702817 -1.682179 0
M  V30 17 C 2.557763 4.310489 -1.576200 0
M  V30 18 C 3.229855 3.383648 -2.445237 0
M  V30 19 N 3.761064 2.637711 -3.163676 0
M  V30 20 N 1.743314 4.065692 -0.533978 0
M  V30 21 N 1.334824 2.927935 -0.017281 0
M  V30 22 C -0.156297 -0.848384 1.861119 0
M  V30 23 Cl -1.253205 -0.481328 3.200336 0
M  V30 24 C 0.133016 -2.151339 1.529480 0
M  V30 25 N -0.485961 -3.277045 2.191895 0
M  V30 26 C 0.153009 -4.574778 2.338503 0
M  V30 27 C -0.775725 -5.746596 2.195579 0
M  V30 28 C -2.072563 -5.358884 1.599666 0
M  V30 29 N -2.174314 -4.930611 0.283095 0
M  V30 30 C -1.972331 -5.828627 -0.806598 0
M  V30 31 C -0.613329 -6.329906 -0.972682 0
M  V30 32 C -0.178636 -6.542241 -2.389905 0
M  V30 33 S -1.661982 -6.285183 -3.308075 0
M  V30 34 O -2.435708 -7.523120 -3.560230 0
M  V30 35 O -1.426629 -5.561185 -4.595606 0
M  V30 36 C -2.481510 -5.218635 -2.115297 0
M  V30 37 C -2.683737 -4.368811 2.598378 0
M  V30 38 C -1.828032 -3.134517 2.715788 0
M  V30 39 C 1.019646 -2.420345 0.492996 0
M  V30 40 H 1.742601 0.691195 -0.374555 0
M  V30 41 H -0.604192 1.663201 2.404967 0
M  V30 42 H -0.651472 6.216017 2.560919 0
M  V30 43 H 0.418306 7.828404 0.256731 0
M  V30 44 H -0.432040 9.745318 1.570162 0
M  V30 45 H -0.940164 8.553134 2.964724 0
M  V30 46 H 1.960939 9.104811 1.862408 0
M  V30 47 H 1.480609 7.933568 3.252299 0
M  V30 48 H 3.205455 6.310463 -2.396379 0
M  V30 49 H 0.605174 -4.562314 3.366465 0
M  V30 50 H 0.935101 -4.681486 1.568936 0
M  V30 51 H -1.006485 -6.198720 3.207197 0
M  V30 52 H -0.299166 -6.560769 1.647101 0
M  V30 53 H -2.747982 -6.269709 1.710434 0
M  V30 54 H -1.933965 -3.954234 0.086157 0
M  V30 55 H -2.646478 -6.747972 -0.679404 0
M  V30 56 H -0.532247 -7.351430 -0.493236 0
M  V30 57 H 0.084545 -5.619648 -0.446565 0
M  V30 58 H 0.238563 -7.563285 -2.544971 0
M  V30 59 H 0.582181 -5.762599 -2.652029 0
M  V30 60 H -2.128771 -4.176031 -2.202845 0
M  V30 61 H -3.555711 -5.346748 -2.239022 0
M  V30 62 H -2.779042 -4.923995 3.547378 0
M  V30 63 H -3.700216 -4.154461 2.233312 0
M  V30 64 H -1.751871 -2.878628 3.781805 0
M  V30 65 H -2.339337 -2.371990 2.079815 0
M  V30 66 H 1.321129 -3.394791 0.138006 0
M  V30 END ATOM
M  V30 BEGIN BOND
M  V30 1 3 1 2
M  V30 2 1 2 3
M  V30 3 2 3 4
M  V30 4 1 4 5
M  V30 5 1 5 6
M  V30 6 1 6 7
M  V30 7 1 7 8
M  V30 8 2 8 9
M  V30 9 1 9 10
M  V30 10 1 10 11
M  V30 11 1 11 12
M  V30 12 1 12 13
M  V30 13 1 9 14
M  V30 14 2 14 15
M  V30 15 1 15 16
M  V30 16 2 16 17
M  V30 17 1 17 18
M  V30 18 3 18 19
M  V30 19 1 17 20
M  V30 20 1 20 21
M  V30 21 2 5 22
M  V30 22 1 22 23
M  V30 23 1 22 24
M  V30 24 1 24 25
M  V30 25 1 25 26
M  V30 26 1 26 27
M  V30 27 1 27 28
M  V30 28 1 28 29
M  V30 29 1 29 30
M  V30 30 1 30 31
M  V30 31 1 31 32
M  V30 32 1 32 33
M  V30 33 2 33 34
M  V30 34 2 33 35
M  V30 35 1 33 36
M  V30 36 1 28 37
M  V30 37 1 37 38
M  V30 38 2 24 39
M  V30 39 1 39 3
M  V30 40 2 21 7
M  V30 41 1 38 25
M  V30 42 1 13 11
M  V30 43 1 20 14
M  V30 44 1 36 30
M  V30 45 1 4 40
M  V30 46 1 6 41
M  V30 47 1 10 42
M  V30 48 1 11 43
M  V30 49 1 12 44
M  V30 50 1 12 45
M  V30 51 1 13 46
M  V30 52 1 13 47
M  V30 53 1 16 48
M  V30 54 1 26 49
M  V30 55 1 26 50
M  V30 56 1 27 51
M  V30 57 1 27 52
M  V30 58 1 28 53
M  V30 59 1 29 54
M  V30 60 1 30 55
M  V30 61 1 31 56
M  V30 62 1 31 57
M  V30 63 1 32 58
M  V30 64 1 32 59
M  V30 65 1 36 60
M  V30 66 1 36 61
M  V30 67 1 37 62
M  V30 68 1 37 63
M  V30 69 1 38 64
M  V30 70 1 38 65
M  V30 71 1 39 66
M  V30 END BOND
M  V30 END CTAB
M  END
>  <Dataset>  (490) 
ChEMBL_Kinases

>  <Ligand_Instance>  (490) 
nan

>  <PDB_ID>  (490) 
nan

>  <Standardized_SMILES>  (490) 
N#Cc1cc(Nc2nc(NC3CC3)c3ncc(C#N)n3n2)c(Cl)c(N2CCC(NC3CCS(=O)(=O)C3)CC2)c1

>  <Name>  (490) 
nan

>  <Pocket>  (490) 
nan

>  <ATP_Site>  (490) 
nan

>  <Peripheral>  (490) 
nan

>  <Num_H_Atoms_ProtBoundConf>  (490) 
nan

>  <Num_Resolved_Atoms>  (490) 
nan

>  <Num_Not_Resolved_Atoms>  (490) 
nan

$$$$
CHEMBL3699247
     RDKit          3D

  0  0  0  0  0  0  0  0  0  0999 V3000
M  V30 BEGIN CTAB
M  V30 COUNTS 59 63 0 0 0
M  V30 BEGIN ATOM
M  V30 1 N -2.536498 -2.849566 4.615395 0
M  V30 2 C -1.837377 -2.599168 3.726767 0
M  V30 3 C -0.981961 -2.274676 2.605180 0
M  V30 4 C -0.562989 -0.971935 2.419708 0
M  V30 5 C 0.250417 -0.570470 1.382114 0
M  V30 6 N 0.687191 0.765896 1.179086 0
M  V30 7 C 0.407575 1.912702 1.970426 0
M  V30 8 N 0.910667 3.094172 1.588953 0
M  V30 9 C 0.734391 4.236575 2.230393 0
M  V30 10 N 1.281887 5.460331 1.790817 0
M  V30 11 C 2.094262 5.775743 0.637472 0
M  V30 12 C 3.420599 5.003529 0.597711 0
M  V30 13 C 2.359478 4.769090 -0.430068 0
M  V30 14 C -0.018123 4.207311 3.367998 0
M  V30 15 N -0.389119 5.142963 4.240194 0
M  V30 16 C -1.142765 4.618003 5.218713 0
M  V30 17 C -1.230888 3.265146 4.910756 0
M  V30 18 C -1.935578 2.231779 5.646786 0
M  V30 19 N -2.508620 1.416443 6.231040 0
M  V30 20 N -0.528451 3.040072 3.765181 0
M  V30 21 N -0.320254 1.946168 3.090908 0
M  V30 22 C 0.629096 -1.576975 0.518883 0
M  V30 23 Cl 1.652515 -1.111944 -0.822616 0
M  V30 24 C 0.265231 -2.897444 0.620062 0
M  V30 25 N 0.668361 -3.958351 -0.238914 0
M  V30 26 C -0.088295 -5.228360 -0.136178 0
M  V30 27 C -0.038871 -5.912074 -1.499670 0
M  V30 28 C -0.133998 -4.854847 -2.588849 0
M  V30 29 N -1.276839 -4.027406 -2.328169 0
M  V30 30 C -2.509510 -4.710322 -2.421346 0
M  V30 31 C -2.788942 -5.119199 -3.857103 0
M  V30 32 F -2.830651 -3.975798 -4.616181 0
M  V30 33 F -4.010367 -5.791348 -3.913393 0
M  V30 34 C 1.147847 -4.015998 -2.587270 0
M  V30 35 C 1.714493 -4.055089 -1.194622 0
M  V30 36 C -0.562649 -3.212768 1.705693 0
M  V30 37 H -0.915349 -0.260433 3.150902 0
M  V30 38 H 1.292168 0.923171 0.338924 0
M  V30 39 H 1.083986 6.322976 2.388957 0
M  V30 40 H 2.179978 6.844264 0.329084 0
M  V30 41 H 4.313117 5.551345 0.269895 0
M  V30 42 H 3.616628 4.270064 1.384369 0
M  V30 43 H 2.540927 5.169825 -1.456195 0
M  V30 44 H 1.742863 3.871776 -0.438968 0
M  V30 45 H -1.601875 5.101356 6.078035 0
M  V30 46 H -1.138413 -4.987035 0.125002 0
M  V30 47 H 0.345601 -5.904232 0.594568 0
M  V30 48 H 0.895531 -6.512280 -1.595064 0
M  V30 49 H -0.893241 -6.585003 -1.574683 0
M  V30 50 H -0.155810 -5.389064 -3.556070 0
M  V30 51 H -1.260668 -3.097356 -2.789985 0
M  V30 52 H -2.544735 -5.589027 -1.763521 0
M  V30 53 H -3.357117 -4.021658 -2.140736 0
M  V30 54 H -2.021446 -5.793423 -4.243117 0
M  V30 55 H 1.864575 -4.424286 -3.328723 0
M  V30 56 H 0.836542 -3.016394 -2.937374 0
M  V30 57 H 2.213788 -5.078403 -1.122657 0
M  V30 58 H 2.574333 -3.371245 -1.060347 0
M  V30 59 H -0.933777 -4.212057 1.931396 0
M  V30 END ATOM
M  V30 BEGIN BOND
M  V30 1 3 1 2
M  V30 2 1 2 3
M  V30 3 2 3 4
M  V30 4 1 4 5
M  V30 5 1 5 6
M  V30 6 1 6 7
M  V30 7 1 7 8
M  V30 8 2 8 9
M  V30 9 1 9 10
M  V30 10 1 10 11
M  V30 11 1 11 12
M  V30 12 1 12 13
M  V30 13 1 9 14
M  V30 14 2 14 15
M  V30 15 1 15 16
M  V30 16 2 16 17
M  V30 17 1 17 18
M  V30 18 3 18 19
M  V30 19 1 17 20
M  V30 20 1 20 21
M  V30 21 2 5 22
M  V30 22 1 22 23
M  V30 23 1 22 24
M  V30 24 1 24 25
M  V30 25 1 25 26
M  V30 26 1 26 27
M  V30 27 1 27 28
M  V30 28 1 28 29
M  V30 29 1 29 30
M  V30 30 1 30 31
M  V30 31 1 31 32
M  V30 32 1 31 33
M  V30 33 1 28 34
M  V30 34 1 34 35
M  V30 35 2 24 36
M  V30 36 1 36 3
M  V30 37 2 21 7
M  V30 38 1 35 25
M  V30 39 1 13 11
M  V30 40 1 20 14
M  V30 41 1 4 37
M  V30 42 1 6 38
M  V30 43 1 10 39
M  V30 44 1 11 40
M  V30 45 1 12 41
M  V30 46 1 12 42
M  V30 47 1 13 43
M  V30 48 1 13 44
M  V30 49 1 16 45
M  V30 50 1 26 46
M  V30 51 1 26 47
M  V30 52 1 27 48
M  V30 53 1 27 49
M  V30 54 1 28 50
M  V30 55 1 29 51
M  V30 56 1 30 52
M  V30 57 1 30 53
M  V30 58 1 31 54
M  V30 59 1 34 55
M  V30 60 1 34 56
M  V30 61 1 35 57
M  V30 62 1 35 58
M  V30 63 1 36 59
M  V30 END BOND
M  V30 END CTAB
M  END
>  <Dataset>  (491) 
ChEMBL_Kinases

>  <Ligand_Instance>  (491) 
nan

>  <PDB_ID>  (491) 
nan

>  <Standardized_SMILES>  (491) 
N#Cc1cc(Nc2nc(NC3CC3)c3ncc(C#N)n3n2)c(Cl)c(N2CCC(NCC(F)F)CC2)c1

>  <Name>  (491) 
nan

>  <Pocket>  (491) 
nan

>  <ATP_Site>  (491) 
nan

>  <Peripheral>  (491) 
nan

>  <Num_H_Atoms_ProtBoundConf>  (491) 
nan

>  <Num_Resolved_Atoms>  (491) 
nan

>  <Num_Not_Resolved_Atoms>  (491) 
nan

$$$$
CHEMBL3699288
     RDKit          3D

  0  0  0  0  0  0  0  0  0  0999 V3000
M  V30 BEGIN CTAB
M  V30 COUNTS 59 63 0 0 0
M  V30 BEGIN ATOM
M  V30 1 C -0.689778 -1.391161 5.883775 0 CHG=-1 VAL=3
M  V30 2 N 0.230172 -1.154805 5.188954 0 CHG=1 VAL=4
M  V30 3 C 1.308127 -0.885618 4.405523 0
M  V30 4 C 2.479349 -1.587484 4.438903 0
M  V30 5 N 3.316115 -1.031383 3.491753 0
M  V30 6 C 2.674551 -0.017761 2.912567 0
M  V30 7 C 2.971185 0.840873 1.873445 0
M  V30 8 N 4.313247 0.669418 1.376494 0
M  V30 9 C 4.704732 1.521822 0.237816 0
M  V30 10 C 3.901587 1.005461 -0.976259 0
M  V30 11 N 2.013889 1.716243 1.468513 0
M  V30 12 C 0.812256 1.738004 2.075402 0
M  V30 13 N 0.230235 2.728398 1.182129 0
M  V30 14 C -0.831319 1.769364 0.927620 0
M  V30 15 C -1.855807 1.325856 1.806220 0
M  V30 16 C -2.846906 0.395590 1.488452 0
M  V30 17 C -3.901728 0.046104 2.479352 0
M  V30 18 F -3.379972 -1.097742 3.107464 0
M  V30 19 F -5.026239 -0.249343 1.741601 0
M  V30 20 C -2.822478 -0.137494 0.219558 0
M  V30 21 C -1.854780 0.274894 -0.624097 0
M  V30 22 N -1.653354 -0.544439 -1.811868 0
M  V30 23 C -2.414140 -1.299490 -2.761607 0
M  V30 24 C -2.205077 -2.813522 -2.579693 0
M  V30 25 N -1.001330 -3.106572 -1.855231 0
M  V30 26 C -1.242111 -3.391269 -0.486905 0
M  V30 27 C -1.839504 -4.789085 -0.192641 0
M  V30 28 O -0.567735 -5.215559 0.190577 0
M  V30 29 C -0.147149 -3.916387 0.371485 0
M  V30 30 C 0.031435 -2.278826 -2.248811 0
M  V30 31 C -0.210471 -0.784976 -2.102041 0
M  V30 32 C -0.854318 1.208138 -0.353360 0
M  V30 33 Cl 0.305690 1.824886 -1.539402 0
M  V30 34 N 0.510772 0.917173 3.080611 0
M  V30 35 N 1.467968 0.048415 3.477088 0
M  V30 36 H 2.766401 -2.443789 5.066290 0
M  V30 37 H 5.012257 0.010788 1.771930 0
M  V30 38 H 4.337609 2.506857 0.477215 0
M  V30 39 H 5.765248 1.359612 0.085546 0
M  V30 40 H 3.886747 1.760654 -1.778612 0
M  V30 41 H 2.909556 0.717337 -0.632385 0
M  V30 42 H 4.441205 0.064897 -1.304607 0
M  V30 43 H -0.143359 3.385244 0.597843 0
M  V30 44 H -1.788629 1.810420 2.802647 0
M  V30 45 H -4.038988 0.820680 3.240417 0
M  V30 46 H -3.542404 -0.858973 -0.077441 0
M  V30 47 H -2.058099 -1.020783 -3.776164 0
M  V30 48 H -3.491252 -1.085101 -2.698156 0
M  V30 49 H -3.060299 -3.239362 -2.054923 0
M  V30 50 H -2.094459 -3.266426 -3.571383 0
M  V30 51 H -1.895510 -2.674628 0.030476 0
M  V30 52 H -2.191799 -5.379141 -1.026654 0
M  V30 53 H -2.536855 -4.790703 0.691107 0
M  V30 54 H 0.900319 -3.756815 0.068720 0
M  V30 55 H -0.235533 -3.552855 1.426350 0
M  V30 56 H 0.314058 -2.474418 -3.326486 0
M  V30 57 H 1.022667 -2.532445 -1.721317 0
M  V30 58 H 0.368736 -0.454958 -1.184645 0
M  V30 59 H 0.094143 -0.258751 -2.989606 0
M  V30 END ATOM
M  V30 BEGIN BOND
M  V30 1 3 1 2
M  V30 2 1 2 3
M  V30 3 2 3 4
M  V30 4 1 4 5
M  V30 5 2 5 6
M  V30 6 1 6 7
M  V30 7 1 7 8
M  V30 8 1 8 9
M  V30 9 1 9 10
M  V30 10 2 7 11
M  V30 11 1 11 12
M  V30 12 1 12 13
M  V30 13 1 13 14
M  V30 14 2 14 15
M  V30 15 1 15 16
M  V30 16 1 16 17
M  V30 17 1 17 18
M  V30 18 1 17 19
M  V30 19 2 16 20
M  V30 20 1 20 21
M  V30 21 1 21 22
M  V30 22 1 22 23
M  V30 23 1 23 24
M  V30 24 1 24 25
M  V30 25 1 25 26
M  V30 26 1 26 27
M  V30 27 1 27 28
M  V30 28 1 28 29
M  V30 29 1 25 30
M  V30 30 1 30 31
M  V30 31 2 21 32
M  V30 32 1 32 33
M  V30 33 2 12 34
M  V30 34 1 34 35
M  V30 35 1 35 3
M  V30 36 1 35 6
M  V30 37 1 32 14
M  V30 38 1 31 22
M  V30 39 1 29 26
M  V30 40 1 4 36
M  V30 41 1 8 37
M  V30 42 1 9 38
M  V30 43 1 9 39
M  V30 44 1 10 40
M  V30 45 1 10 41
M  V30 46 1 10 42
M  V30 47 1 13 43
M  V30 48 1 15 44
M  V30 49 1 17 45
M  V30 50 1 20 46
M  V30 51 1 23 47
M  V30 52 1 23 48
M  V30 53 1 24 49
M  V30 54 1 24 50
M  V30 55 1 26 51
M  V30 56 1 27 52
M  V30 57 1 27 53
M  V30 58 1 29 54
M  V30 59 1 29 55
M  V30 60 1 30 56
M  V30 61 1 30 57
M  V30 62 1 31 58
M  V30 63 1 31 59
M  V30 END BOND
M  V30 END CTAB
M  END
>  <Dataset>  (492) 
ChEMBL_Kinases

>  <Ligand_Instance>  (492) 
nan

>  <PDB_ID>  (492) 
nan

>  <Standardized_SMILES>  (492) 
[C-]#[N+]c1cnc2c(NCC)nc(Nc3cc(C(F)F)cc(N4CCN(C5COC5)CC4)c3Cl)nn12

>  <Name>  (492) 
nan

>  <Pocket>  (492) 
nan

>  <ATP_Site>  (492) 
nan

>  <Peripheral>  (492) 
nan

>  <Num_H_Atoms_ProtBoundConf>  (492) 
nan

>  <Num_Resolved_Atoms>  (492) 
nan

>  <Num_Not_Resolved_Atoms>  (492) 
nan

$$$$
CHEMBL2334288
     RDKit          3D

  0  0  0  0  0  0  0  0  0  0999 V3000
M  V30 BEGIN CTAB
M  V30 COUNTS 43 46 0 0 0
M  V30 BEGIN ATOM
M  V30 1 C -2.001928 -6.116874 2.020155 0
M  V30 2 O -2.079266 -5.924300 0.630233 0
M  V30 3 C -1.395888 -4.912481 -0.027730 0
M  V30 4 C -0.602674 -4.052766 0.710697 0
M  V30 5 C 0.053719 -3.068252 0.020770 0
M  V30 6 C -0.039333 -2.896107 -1.365764 0
M  V30 7 C 0.725684 -1.779672 -2.022330 0
M  V30 8 N -0.193821 -1.139791 -2.941279 0
M  V30 9 C 1.140754 -0.766721 -1.020086 0
M  V30 10 N 0.194136 0.022782 -0.467632 0
M  V30 11 C 0.542083 0.965706 0.457939 0
M  V30 12 C -0.455613 1.754372 1.001342 0
M  V30 13 C -0.099335 2.705480 1.936737 0
M  V30 14 C 1.219394 2.864222 2.319054 0
M  V30 15 C 1.554896 3.878533 3.313029 0
M  V30 16 C 2.660908 4.698669 3.567138 0
M  V30 17 N 2.405387 5.456835 4.645409 0
M  V30 18 N 1.218008 5.209072 5.131708 0
M  V30 19 C 0.672050 4.246702 4.337303 0
M  V30 20 C 2.225297 2.061184 1.763887 0
M  V30 21 C 1.865250 1.111656 0.829277 0
M  V30 22 C 2.784180 0.267278 0.221632 0
M  V30 23 O 3.992245 0.398440 0.558772 0
M  V30 24 N 2.461456 -0.666776 -0.691183 0
M  V30 25 C -0.833407 -3.759661 -2.091591 0
M  V30 26 C -1.501553 -4.763675 -1.380700 0
M  V30 27 H -0.954440 -6.388311 2.271891 0
M  V30 28 H -2.667652 -6.953059 2.313596 0
M  V30 29 H -2.327273 -5.208939 2.607569 0
M  V30 30 H -0.475153 -4.114549 1.782125 0
M  V30 31 H 0.681223 -2.379830 0.566257 0
M  V30 32 H 1.575604 -2.251185 -2.527121 0
M  V30 33 H -1.086114 -1.623345 -3.076628 0
M  V30 34 H -0.254859 -0.117428 -2.754326 0
M  V30 35 H -1.500032 1.646140 0.714857 0
M  V30 36 H -0.855239 3.341653 2.383821 0
M  V30 37 H 3.520778 4.614208 2.898501 0
M  V30 38 H 0.718013 5.616845 5.950990 0
M  V30 39 H -0.321950 3.826300 4.489396 0
M  V30 40 H 3.260795 2.165994 2.046000 0
M  V30 41 H 3.188384 -1.269101 -1.111604 0
M  V30 42 H -0.926337 -3.653631 -3.163798 0
M  V30 43 H -2.113411 -5.424996 -1.959521 0
M  V30 END ATOM
M  V30 BEGIN BOND
M  V30 1 1 1 2
M  V30 2 1 2 3
M  V30 3 2 3 4
M  V30 4 1 4 5
M  V30 5 2 5 6
M  V30 6 1 6 7
M  V30 7 1 7 8
M  V30 8 1 7 9
M  V30 9 2 9 10
M  V30 10 1 10 11
M  V30 11 2 11 12
M  V30 12 1 12 13
M  V30 13 2 13 14
M  V30 14 1 14 15
M  V30 15 1 15 16
M  V30 16 2 16 17
M  V30 17 1 17 18
M  V30 18 1 18 19
M  V30 19 1 14 20
M  V30 20 2 20 21
M  V30 21 1 21 22
M  V30 22 2 22 23
M  V30 23 1 22 24
M  V30 24 1 6 25
M  V30 25 2 25 26
M  V30 26 1 26 3
M  V30 27 1 24 9
M  V30 28 1 21 11
M  V30 29 2 19 15
M  V30 30 1 1 27
M  V30 31 1 1 28
M  V30 32 1 1 29
M  V30 33 1 4 30
M  V30 34 1 5 31
M  V30 35 1 7 32
M  V30 36 1 8 33
M  V30 37 1 8 34
M  V30 38 1 12 35
M  V30 39 1 13 36
M  V30 40 1 16 37
M  V30 41 1 18 38
M  V30 42 1 19 39
M  V30 43 1 20 40
M  V30 44 1 24 41
M  V30 45 1 25 42
M  V30 46 1 26 43
M  V30 END BOND
M  V30 END CTAB
M  END
>  <Dataset>  (493) 
ChEMBL_Kinases

>  <Ligand_Instance>  (493) 
nan

>  <PDB_ID>  (493) 
nan

>  <Standardized_SMILES>  (493) 
COc1ccc(C(N)c2nc3ccc(-c4cn[nH]c4)cc3c(=O)[nH]2)cc1

>  <Name>  (493) 
nan

>  <Pocket>  (493) 
nan

>  <ATP_Site>  (493) 
nan

>  <Peripheral>  (493) 
nan

>  <Num_H_Atoms_ProtBoundConf>  (493) 
nan

>  <Num_Resolved_Atoms>  (493) 
nan

>  <Num_Not_Resolved_Atoms>  (493) 
nan

$$$$
CHEMBL2334292
     RDKit          3D

  0  0  0  0  0  0  0  0  0  0999 V3000
M  V30 BEGIN CTAB
M  V30 COUNTS 46 50 0 0 0
M  V30 BEGIN ATOM
M  V30 1 O -1.499876 -1.799671 3.854428 0
M  V30 2 C -1.119011 -1.363424 2.738128 0
M  V30 3 N -0.400452 -0.223447 2.686224 0
M  V30 4 C 0.010326 0.248800 1.493525 0
M  V30 5 C 0.817401 1.508524 1.300162 0 CFG=2
M  V30 6 C 0.085768 2.480805 0.415600 0
M  V30 7 N 0.699910 2.482842 -0.874435 0
M  V30 8 C 1.637055 1.381384 -0.899482 0
M  V30 9 C 2.077355 1.225100 0.526855 0 CFG=1
M  V30 10 C 3.097491 2.236422 0.921975 0
M  V30 11 C 4.201317 1.688010 1.571086 0
M  V30 12 C 5.269900 2.475199 2.016148 0
M  V30 13 C 5.179731 3.837395 1.779788 0
M  V30 14 C 4.093669 4.397760 1.138118 0
M  V30 15 C 3.044295 3.589759 0.705970 0
M  V30 16 N -0.319267 -0.448025 0.389846 0
M  V30 17 C -1.033546 -1.588377 0.394532 0
M  V30 18 C -1.308266 -2.214756 -0.820262 0
M  V30 19 C -2.045174 -3.380270 -0.744046 0
M  V30 20 C -2.480401 -3.888718 0.466687 0
M  V30 21 C -3.255550 -5.134079 0.421502 0
M  V30 22 C -4.266141 -5.587057 1.250306 0
M  V30 23 N -4.675056 -6.797099 0.808001 0
M  V30 24 N -3.964309 -7.117513 -0.258808 0
M  V30 25 C -3.099185 -6.137066 -0.519370 0
M  V30 26 C -2.197399 -3.252868 1.657200 0
M  V30 27 C -1.462007 -2.085816 1.607409 0
M  V30 28 H -0.133485 0.332964 3.528216 0
M  V30 29 H 1.030405 1.970323 2.288096 0
M  V30 30 H -0.973542 2.099325 0.271861 0
M  V30 31 H -0.033611 3.479918 0.884743 0
M  V30 32 H 0.009487 2.299762 -1.652895 0
M  V30 33 H 1.174749 0.430272 -1.236894 0
M  V30 34 H 2.476300 1.554699 -1.599842 0
M  V30 35 H 2.453194 0.190921 0.733262 0
M  V30 36 H 4.331899 0.620635 1.787609 0
M  V30 37 H 6.121270 2.040017 2.518586 0
M  V30 38 H 5.990631 4.466910 2.113095 0
M  V30 39 H 3.998754 5.449136 0.942732 0
M  V30 40 H 2.191299 3.973464 0.207061 0
M  V30 41 H -0.955968 -1.794796 -1.744894 0
M  V30 42 H -2.251575 -3.858592 -1.705914 0
M  V30 43 H -4.644250 -5.026018 2.113296 0
M  V30 44 H -4.057209 -8.006689 -0.824910 0
M  V30 45 H -2.398753 -6.162058 -1.350330 0
M  V30 46 H -2.529877 -3.640476 2.587933 0
M  V30 END ATOM
M  V30 BEGIN BOND
M  V30 1 2 1 2
M  V30 2 1 2 3
M  V30 3 1 3 4
M  V30 4 1 4 5
M  V30 5 1 5 6
M  V30 6 1 6 7
M  V30 7 1 7 8
M  V30 8 1 8 9
M  V30 9 1 9 10
M  V30 10 2 10 11
M  V30 11 1 11 12
M  V30 12 2 12 13
M  V30 13 1 13 14
M  V30 14 2 14 15
M  V30 15 2 4 16
M  V30 16 1 16 17
M  V30 17 2 17 18
M  V30 18 1 18 19
M  V30 19 2 19 20
M  V30 20 1 20 21
M  V30 21 1 21 22
M  V30 22 2 22 23
M  V30 23 1 23 24
M  V30 24 1 24 25
M  V30 25 1 20 26
M  V30 26 2 26 27
M  V30 27 1 27 2
M  V30 28 1 9 5
M  V30 29 1 15 10
M  V30 30 1 27 17
M  V30 31 2 25 21
M  V30 32 1 3 28
M  V30 33 1 5 29 CFG=1
M  V30 34 1 6 30
M  V30 35 1 6 31
M  V30 36 1 7 32
M  V30 37 1 8 33
M  V30 38 1 8 34
M  V30 39 1 9 35 CFG=3
M  V30 40 1 11 36
M  V30 41 1 12 37
M  V30 42 1 13 38
M  V30 43 1 14 39
M  V30 44 1 15 40
M  V30 45 1 18 41
M  V30 46 1 19 42
M  V30 47 1 22 43
M  V30 48 1 24 44
M  V30 49 1 25 45
M  V30 50 1 26 46
M  V30 END BOND
M  V30 END CTAB
M  END
>  <Dataset>  (494) 
ChEMBL_Kinases

>  <Ligand_Instance>  (494) 
nan

>  <PDB_ID>  (494) 
nan

>  <Standardized_SMILES>  (494) 
O=c1[nH]c([C@@H]2CNC[C@H]2c2ccccc2)nc2ccc(-c3cn[nH]c3)cc12

>  <Name>  (494) 
nan

>  <Pocket>  (494) 
nan

>  <ATP_Site>  (494) 
nan

>  <Peripheral>  (494) 
nan

>  <Num_H_Atoms_ProtBoundConf>  (494) 
nan

>  <Num_Resolved_Atoms>  (494) 
nan

>  <Num_Not_Resolved_Atoms>  (494) 
nan

$$$$
CHEMBL3699287
     RDKit          3D

  0  0  0  0  0  0  0  0  0  0999 V3000
M  V30 BEGIN CTAB
M  V30 COUNTS 62 67 0 0 0
M  V30 BEGIN ATOM
M  V30 1 C 4.931158 -3.758450 3.601820 0 CHG=-1 VAL=3
M  V30 2 N 5.097163 -2.755237 3.043473 0 CHG=1 VAL=4
M  V30 3 C 5.292007 -1.562580 2.367541 0
M  V30 4 C 6.492614 -1.054362 1.917449 0
M  V30 5 N 6.207981 0.122046 1.321912 0
M  V30 6 C 4.885443 0.360654 1.385055 0
M  V30 7 C 4.117198 1.410183 0.932352 0
M  V30 8 N 4.648558 2.532150 0.243179 0
M  V30 9 C 6.037007 2.760282 -0.084736 0
M  V30 10 C 6.442491 3.983602 -0.824908 0
M  V30 11 C 6.354527 2.688976 -1.560243 0
M  V30 12 N 2.802196 1.338949 1.166025 0
M  V30 13 C 2.205202 0.324327 1.802704 0
M  V30 14 N 0.805406 0.292294 2.038095 0
M  V30 15 C -0.216253 0.263917 1.058386 0
M  V30 16 C 0.147785 0.326500 -0.261676 0
M  V30 17 C -0.849102 0.315245 -1.231950 0
M  V30 18 C -0.527332 0.379249 -2.634222 0
M  V30 19 N -0.285490 0.423263 -3.765601 0
M  V30 20 C -2.205487 0.242763 -0.911446 0
M  V30 21 C -2.473904 0.182758 0.446508 0
M  V30 22 N -3.863674 0.090900 0.772715 0
M  V30 23 C -5.181360 0.096361 0.106533 0
M  V30 24 C -5.518813 -1.013008 1.095866 0
M  V30 25 N -4.910219 -2.223816 0.748595 0
M  V30 26 C -5.365923 -2.799886 -0.445843 0
M  V30 27 C -4.448544 -3.890312 -0.980662 0
M  V30 28 N -3.204496 -3.815770 -0.209672 0
M  V30 29 C -2.220666 -4.658290 -0.827924 0
M  V30 30 C -3.520893 -4.165193 1.149477 0
M  V30 31 C -4.368845 -3.056735 1.751831 0
M  V30 32 C -4.676235 -0.080330 1.993029 0
M  V30 33 C -1.542970 0.189554 1.460324 0
M  V30 34 F -1.920646 0.127788 2.764779 0
M  V30 35 N 2.990992 -0.697748 2.238156 0
M  V30 36 N 4.314031 -0.677383 2.030589 0
M  V30 37 H 7.443779 -1.559962 2.052176 0
M  V30 38 H 3.992862 3.286780 -0.072098 0
M  V30 39 H 6.781678 2.322405 0.638528 0
M  V30 40 H 7.455526 4.376547 -0.594781 0
M  V30 41 H 5.687182 4.775520 -1.037278 0
M  V30 42 H 5.546105 2.526186 -2.285860 0
M  V30 43 H 7.292429 2.126852 -1.808914 0
M  V30 44 H 0.623189 0.290497 3.067076 0
M  V30 45 H 1.190474 0.383446 -0.576710 0
M  V30 46 H -2.982068 0.234004 -1.654275 0
M  V30 47 H -5.188393 -0.134275 -0.946057 0
M  V30 48 H -5.715426 1.018725 0.423458 0
M  V30 49 H -6.586942 -1.027883 1.400461 0
M  V30 50 H -5.441294 -2.056879 -1.255136 0
M  V30 51 H -6.400003 -3.201122 -0.291851 0
M  V30 52 H -4.226448 -3.784541 -2.055363 0
M  V30 53 H -4.940767 -4.863571 -0.782747 0
M  V30 54 H -2.035126 -5.577158 -0.230164 0
M  V30 55 H -1.274392 -4.059676 -0.901565 0
M  V30 56 H -2.497935 -4.900351 -1.893261 0
M  V30 57 H -4.090780 -5.117527 1.163347 0
M  V30 58 H -2.582796 -4.326188 1.746247 0
M  V30 59 H -5.138218 -3.544134 2.407136 0
M  V30 60 H -3.694018 -2.494603 2.429765 0
M  V30 61 H -4.181225 -0.569395 2.827692 0
M  V30 62 H -5.309482 0.811408 2.216370 0
M  V30 END ATOM
M  V30 BEGIN BOND
M  V30 1 3 1 2
M  V30 2 1 2 3
M  V30 3 2 3 4
M  V30 4 1 4 5
M  V30 5 2 5 6
M  V30 6 1 6 7
M  V30 7 1 7 8
M  V30 8 1 8 9
M  V30 9 1 9 10
M  V30 10 1 10 11
M  V30 11 2 7 12
M  V30 12 1 12 13
M  V30 13 1 13 14
M  V30 14 1 14 15
M  V30 15 2 15 16
M  V30 16 1 16 17
M  V30 17 1 17 18
M  V30 18 3 18 19
M  V30 19 2 17 20
M  V30 20 1 20 21
M  V30 21 1 21 22
M  V30 22 1 22 23
M  V30 23 1 23 24
M  V30 24 1 24 25
M  V30 25 1 25 26
M  V30 26 1 26 27
M  V30 27 1 27 28
M  V30 28 1 28 29
M  V30 29 1 28 30
M  V30 30 1 30 31
M  V30 31 1 24 32
M  V30 32 2 21 33
M  V30 33 1 33 34
M  V30 34 2 13 35
M  V30 35 1 35 36
M  V30 36 1 36 3
M  V30 37 1 36 6
M  V30 38 1 11 9
M  V30 39 1 33 15
M  V30 40 1 32 22
M  V30 41 1 31 25
M  V30 42 1 4 37
M  V30 43 1 8 38
M  V30 44 1 9 39
M  V30 45 1 10 40
M  V30 46 1 10 41
M  V30 47 1 11 42
M  V30 48 1 11 43
M  V30 49 1 14 44
M  V30 50 1 16 45
M  V30 51 1 20 46
M  V30 52 1 23 47
M  V30 53 1 23 48
M  V30 54 1 24 49
M  V30 55 1 26 50
M  V30 56 1 26 51
M  V30 57 1 27 52
M  V30 58 1 27 53
M  V30 59 1 29 54
M  V30 60 1 29 55
M  V30 61 1 29 56
M  V30 62 1 30 57
M  V30 63 1 30 58
M  V30 64 1 31 59
M  V30 65 1 31 60
M  V30 66 1 32 61
M  V30 67 1 32 62
M  V30 END BOND
M  V30 END CTAB
M  END
>  <Dataset>  (495) 
ChEMBL_Kinases

>  <Ligand_Instance>  (495) 
nan

>  <PDB_ID>  (495) 
nan

>  <Standardized_SMILES>  (495) 
[C-]#[N+]c1cnc2c(NC3CC3)nc(Nc3cc(C#N)cc(N4CC(N5CCN(C)CC5)C4)c3F)nn12

>  <Name>  (495) 
nan

>  <Pocket>  (495) 
nan

>  <ATP_Site>  (495) 
nan

>  <Peripheral>  (495) 
nan

>  <Num_H_Atoms_ProtBoundConf>  (495) 
nan

>  <Num_Resolved_Atoms>  (495) 
nan

>  <Num_Not_Resolved_Atoms>  (495) 
nan

$$$$
CHEMBL3699286
     RDKit          3D

  0  0  0  0  0  0  0  0  0  0999 V3000
M  V30 BEGIN CTAB
M  V30 COUNTS 65 70 0 0 0
M  V30 BEGIN ATOM
M  V30 1 C 3.667687 -1.103803 4.498979 0
M  V30 2 C 2.131049 -0.870715 4.413433 0
M  V30 3 N 1.882219 0.384210 5.186582 0
M  V30 4 C 2.095850 1.705755 4.836536 0
M  V30 5 N 1.602952 1.441608 3.585411 0
M  V30 6 C 1.420040 2.329839 2.549593 0
M  V30 7 N 0.831924 2.110564 1.291089 0
M  V30 8 C 0.250937 1.901623 0.032587 0
M  V30 9 C 0.952706 2.660117 -0.864638 0
M  V30 10 C 0.718578 2.604671 -2.195399 0
M  V30 11 C 1.308241 3.303477 -3.283078 0
M  V30 12 N 1.801382 3.875929 -4.145681 0
M  V30 13 C -0.289563 1.714133 -2.615981 0
M  V30 14 C -1.023806 0.937877 -1.759395 0
M  V30 15 N -1.997696 -0.028664 -2.067237 0
M  V30 16 C -2.187767 -0.703244 -3.363692 0
M  V30 17 C -1.930589 -2.172395 -3.254191 0
M  V30 18 C -2.542326 -2.859087 -2.028939 0 CFG=2
M  V30 19 C -2.358041 -1.906528 -0.801741 0 CFG=1
M  V30 20 C -2.962912 -0.597901 -1.199969 0
M  V30 21 O -2.833978 -2.570943 0.271133 0
M  V30 22 C -1.856443 -3.483381 0.680313 0
M  V30 23 C -1.034620 -3.938889 -0.510946 0
M  V30 24 N -1.769138 -3.982253 -1.711742 0
M  V30 25 C -1.880900 -5.198576 -2.392898 0
M  V30 26 C -2.096855 -6.450949 -1.547827 0
M  V30 27 O -2.875729 -6.932641 -2.608800 0
M  V30 28 C -3.296310 -5.619618 -2.797879 0
M  V30 29 C -0.754476 1.026233 -0.430829 0
M  V30 30 Cl -1.470258 0.317569 0.995137 0
M  V30 31 N 1.722582 3.642493 2.640933 0
M  V30 32 N 2.232058 4.074338 3.836855 0
M  V30 33 C 2.737132 5.038911 4.622282 0
M  V30 34 C 2.822611 6.345683 4.002042 0
M  V30 35 N 2.872801 7.410180 3.508103 0
M  V30 36 C 3.118509 4.628309 5.868839 0
M  V30 37 N 2.824909 3.313903 5.860034 0
M  V30 38 C 2.279639 3.025305 4.588054 0
M  V30 39 H 4.006179 -0.905327 5.568402 0
M  V30 40 H 4.207721 -0.425896 3.833844 0
M  V30 41 H 3.856410 -2.141012 4.222417 0
M  V30 42 H 1.954373 -0.691240 3.342224 0
M  V30 43 H 1.549380 -1.660705 4.799484 0
M  V30 44 H 1.462032 0.165417 6.121362 0
M  V30 45 H 0.391676 1.218588 1.670041 0
M  V30 46 H 1.772428 3.373802 -0.731517 0
M  V30 47 H -0.590987 1.532587 -3.627939 0
M  V30 48 H -1.548747 -0.293277 -4.161533 0
M  V30 49 H -3.256641 -0.585622 -3.674516 0
M  V30 50 H -2.450780 -2.665767 -4.136179 0
M  V30 51 H -0.835773 -2.401385 -3.308818 0
M  V30 52 H -3.610792 -3.043394 -2.196423 0
M  V30 53 H -1.238505 -1.863088 -0.760162 0
M  V30 54 H -3.886515 -0.852972 -1.810487 0
M  V30 55 H -3.383049 0.033275 -0.419482 0
M  V30 56 H -2.273655 -4.321961 1.235744 0
M  V30 57 H -1.147300 -2.978553 1.371859 0
M  V30 58 H -0.075686 -3.409356 -0.650673 0
M  V30 59 H -0.683980 -5.012691 -0.264046 0
M  V30 60 H -1.136949 -5.385808 -3.165821 0
M  V30 61 H -1.099869 -6.947504 -1.414642 0
M  V30 62 H -2.707140 -6.305219 -0.651741 0
M  V30 63 H -3.588301 -5.423105 -3.830022 0
M  V30 64 H -4.045295 -5.282919 -2.033640 0
M  V30 65 H 3.566306 5.292190 6.589982 0
M  V30 END ATOM
M  V30 BEGIN BOND
M  V30 1 1 1 2
M  V30 2 1 2 3
M  V30 3 1 3 4
M  V30 4 2 4 5
M  V30 5 1 5 6
M  V30 6 1 6 7
M  V30 7 1 7 8
M  V30 8 2 8 9
M  V30 9 1 9 10
M  V30 10 1 10 11
M  V30 11 3 11 12
M  V30 12 2 10 13
M  V30 13 1 13 14
M  V30 14 1 14 15
M  V30 15 1 15 16
M  V30 16 1 16 17
M  V30 17 1 17 18
M  V30 18 1 18 19
M  V30 19 1 19 20
M  V30 20 1 19 21
M  V30 21 1 21 22
M  V30 22 1 22 23
M  V30 23 1 23 24
M  V30 24 1 24 25
M  V30 25 1 25 26
M  V30 26 1 26 27
M  V30 27 1 27 28
M  V30 28 2 14 29
M  V30 29 1 29 30
M  V30 30 2 6 31
M  V30 31 1 31 32
M  V30 32 1 32 33
M  V30 33 1 33 34
M  V30 34 3 34 35
M  V30 35 2 33 36
M  V30 36 1 36 37
M  V30 37 2 37 38
M  V30 38 1 38 4
M  V30 39 1 29 8
M  V30 40 1 38 32
M  V30 41 1 20 15
M  V30 42 1 28 25
M  V30 43 1 24 18
M  V30 44 1 1 39
M  V30 45 1 1 40
M  V30 46 1 1 41
M  V30 47 1 2 42
M  V30 48 1 2 43
M  V30 49 1 3 44
M  V30 50 1 7 45
M  V30 51 1 9 46
M  V30 52 1 13 47
M  V30 53 1 16 48
M  V30 54 1 16 49
M  V30 55 1 17 50
M  V30 56 1 17 51
M  V30 57 1 18 52 CFG=3
M  V30 58 1 19 53 CFG=1
M  V30 59 1 20 54
M  V30 60 1 20 55
M  V30 61 1 22 56
M  V30 62 1 22 57
M  V30 63 1 23 58
M  V30 64 1 23 59
M  V30 65 1 25 60
M  V30 66 1 26 61
M  V30 67 1 26 62
M  V30 68 1 28 63
M  V30 69 1 28 64
M  V30 70 1 36 65
M  V30 END BOND
M  V30 END CTAB
M  END
>  <Dataset>  (496) 
ChEMBL_Kinases

>  <Ligand_Instance>  (496) 
nan

>  <PDB_ID>  (496) 
nan

>  <Standardized_SMILES>  (496) 
CCNc1nc(Nc2cc(C#N)cc(N3CC[C@@H]4[C@@H](C3)OCCN4C3COC3)c2Cl)nn2c(C#N)cnc12

>  <Name>  (496) 
nan

>  <Pocket>  (496) 
nan

>  <ATP_Site>  (496) 
nan

>  <Peripheral>  (496) 
nan

>  <Num_H_Atoms_ProtBoundConf>  (496) 
nan

>  <Num_Resolved_Atoms>  (496) 
nan

>  <Num_Not_Resolved_Atoms>  (496) 
nan

$$$$
CHEMBL3699285
     RDKit          3D

  0  0  0  0  0  0  0  0  0  0999 V3000
M  V30 BEGIN CTAB
M  V30 COUNTS 62 65 0 0 0
M  V30 BEGIN ATOM
M  V30 1 C 2.150391 1.346144 7.384552 0 CHG=-1 VAL=3
M  V30 2 N 2.813710 1.754359 6.523057 0 CHG=1 VAL=4
M  V30 3 C 3.597608 2.264026 5.481629 0
M  V30 4 C 4.915988 2.680921 5.524816 0
M  V30 5 N 5.231472 3.084414 4.298219 0
M  V30 6 C 4.136739 2.920657 3.518602 0
M  V30 7 C 3.960017 3.197691 2.159028 0
M  V30 8 N 4.983488 3.731271 1.331371 0
M  V30 9 C 4.823017 4.026397 -0.082642 0
M  V30 10 C 4.460079 2.781406 -0.861620 0
M  V30 11 N 2.761302 2.952714 1.577853 0
M  V30 12 C 1.738760 2.439434 2.318426 0
M  V30 13 N 0.415675 2.109510 1.918484 0
M  V30 14 C 0.056069 0.824953 1.421424 0
M  V30 15 C 1.022685 -0.152294 1.313542 0
M  V30 16 C 0.692951 -1.413663 0.829403 0
M  V30 17 C 1.680618 -2.441104 0.711963 0
M  V30 18 N 2.467765 -3.286684 0.615766 0
M  V30 19 C -0.636793 -1.619803 0.471269 0
M  V30 20 C -1.593408 -0.633579 0.584417 0
M  V30 21 N -2.913981 -1.038001 0.168463 0
M  V30 22 C -3.692197 -0.391151 -0.888866 0
M  V30 23 C -4.424996 -1.354160 -1.769902 0
M  V30 24 C -3.759133 -2.733021 -1.488689 0
M  V30 25 N -4.166193 -3.687810 -2.445007 0
M  V30 26 C -3.285673 -4.733819 -2.818692 0
M  V30 27 C -2.921944 -5.767671 -1.818741 0 CFG=1
M  V30 28 C -2.133307 -6.916175 -2.424277 0
M  V30 29 O -2.237805 -5.332021 -0.713818 0
M  V30 30 C -4.279659 -3.048937 -0.083226 0
M  V30 31 C -3.486489 -2.189669 0.878666 0
M  V30 32 C -1.256870 0.609730 1.064211 0
M  V30 33 Cl -2.522607 1.806715 1.178128 0
M  V30 34 N 1.952384 2.188183 3.621188 0
M  V30 35 N 3.102533 2.410465 4.230777 0
M  V30 36 H 5.459866 2.628393 6.456947 0
M  V30 37 H 5.899041 3.912345 1.810657 0
M  V30 38 H 4.047769 4.775668 -0.301401 0
M  V30 39 H 5.795282 4.403566 -0.478321 0
M  V30 40 H 5.089000 2.703212 -1.777859 0
M  V30 41 H 4.629728 1.850679 -0.267188 0
M  V30 42 H 3.402671 2.794911 -1.191676 0
M  V30 43 H -0.284430 2.877632 2.014107 0
M  V30 44 H 2.038585 0.089238 1.616133 0
M  V30 45 H -0.839605 -2.614802 0.102942 0
M  V30 46 H -4.362962 0.316120 -0.362760 0
M  V30 47 H -3.035520 0.236220 -1.526073 0
M  V30 48 H -4.311895 -1.108345 -2.835173 0
M  V30 49 H -5.477708 -1.444878 -1.466689 0
M  V30 50 H -2.684717 -2.565217 -1.534219 0
M  V30 51 H -5.145181 -4.040036 -2.312170 0
M  V30 52 H -3.809581 -5.277186 -3.677292 0
M  V30 53 H -2.376109 -4.313692 -3.329465 0
M  V30 54 H -3.866721 -6.254515 -1.428851 0
M  V30 55 H -2.826414 -7.739289 -2.758176 0
M  V30 56 H -1.457441 -7.399414 -1.690233 0
M  V30 57 H -1.508801 -6.612455 -3.281608 0
M  V30 58 H -1.314415 -5.001269 -0.926759 0
M  V30 59 H -4.355909 -4.089577 0.165843 0
M  V30 60 H -5.344296 -2.660152 -0.068163 0
M  V30 61 H -4.135128 -1.869601 1.712590 0
M  V30 62 H -2.678487 -2.809225 1.288788 0
M  V30 END ATOM
M  V30 BEGIN BOND
M  V30 1 3 1 2
M  V30 2 1 2 3
M  V30 3 2 3 4
M  V30 4 1 4 5
M  V30 5 2 5 6
M  V30 6 1 6 7
M  V30 7 1 7 8
M  V30 8 1 8 9
M  V30 9 1 9 10
M  V30 10 2 7 11
M  V30 11 1 11 12
M  V30 12 1 12 13
M  V30 13 1 13 14
M  V30 14 2 14 15
M  V30 15 1 15 16
M  V30 16 1 16 17
M  V30 17 3 17 18
M  V30 18 2 16 19
M  V30 19 1 19 20
M  V30 20 1 20 21
M  V30 21 1 21 22
M  V30 22 1 22 23
M  V30 23 1 23 24
M  V30 24 1 24 25
M  V30 25 1 25 26
M  V30 26 1 26 27
M  V30 27 1 27 28
M  V30 28 1 27 29
M  V30 29 1 24 30
M  V30 30 1 30 31
M  V30 31 2 20 32
M  V30 32 1 32 33
M  V30 33 2 12 34
M  V30 34 1 34 35
M  V30 35 1 35 3
M  V30 36 1 35 6
M  V30 37 1 32 14
M  V30 38 1 31 21
M  V30 39 1 4 36
M  V30 40 1 8 37
M  V30 41 1 9 38
M  V30 42 1 9 39
M  V30 43 1 10 40
M  V30 44 1 10 41
M  V30 45 1 10 42
M  V30 46 1 13 43
M  V30 47 1 15 44
M  V30 48 1 19 45
M  V30 49 1 22 46
M  V30 50 1 22 47
M  V30 51 1 23 48
M  V30 52 1 23 49
M  V30 53 1 24 50
M  V30 54 1 25 51
M  V30 55 1 26 52
M  V30 56 1 26 53
M  V30 57 1 27 54 CFG=1
M  V30 58 1 28 55
M  V30 59 1 28 56
M  V30 60 1 28 57
M  V30 61 1 29 58
M  V30 62 1 30 59
M  V30 63 1 30 60
M  V30 64 1 31 61
M  V30 65 1 31 62
M  V30 END BOND
M  V30 END CTAB
M  END
>  <Dataset>  (497) 
ChEMBL_Kinases

>  <Ligand_Instance>  (497) 
nan

>  <PDB_ID>  (497) 
nan

>  <Standardized_SMILES>  (497) 
[C-]#[N+]c1cnc2c(NCC)nc(Nc3cc(C#N)cc(N4CCC(NC[C@@H](C)O)CC4)c3Cl)nn12

>  <Name>  (497) 
nan

>  <Pocket>  (497) 
nan

>  <ATP_Site>  (497) 
nan

>  <Peripheral>  (497) 
nan

>  <Num_H_Atoms_ProtBoundConf>  (497) 
nan

>  <Num_Resolved_Atoms>  (497) 
nan

>  <Num_Not_Resolved_Atoms>  (497) 
nan

$$$$
CHEMBL4514782
     RDKit          3D

  0  0  0  0  0  0  0  0  0  0999 V3000
M  V30 BEGIN CTAB
M  V30 COUNTS 45 48 0 0 0
M  V30 BEGIN ATOM
M  V30 1 C -0.229893 -5.126100 0.735441 0
M  V30 2 C 0.316739 -3.843562 0.245076 0
M  V30 3 N 1.180028 -3.820662 -0.773833 0
M  V30 4 C 1.654088 -2.638761 -1.190626 0
M  V30 5 C 2.541893 -2.721660 -2.251460 0
M  V30 6 C 3.079425 -1.550345 -2.744677 0
M  V30 7 C 2.713076 -0.355870 -2.165328 0
M  V30 8 C 1.827096 -0.299416 -1.109883 0
M  V30 9 C 1.461214 0.949814 -0.524601 0
M  V30 10 C 1.912271 2.255521 -0.898825 0
M  V30 11 C 1.388263 3.281382 -0.153746 0
M  V30 12 C 0.527283 3.058849 0.837596 0
M  V30 13 S 0.382834 1.253861 0.788182 0
M  V30 14 C 0.041827 4.229773 1.554774 0
M  V30 15 N 0.724894 5.309670 0.878526 0
M  V30 16 C 1.523204 4.732598 -0.136266 0
M  V30 17 O 2.221780 5.515335 -0.867127 0
M  V30 18 C 1.272154 -1.448191 -0.593297 0
M  V30 19 N 0.389065 -1.474765 0.448607 0
M  V30 20 C -0.101953 -2.670773 0.883749 0
M  V30 21 N -1.022194 -2.744062 1.963620 0
M  V30 22 C -1.556797 -1.656908 2.729257 0
M  V30 23 C -2.519742 -2.086345 3.813070 0
M  V30 24 C -0.380005 -0.955044 3.380847 0
M  V30 25 C -2.295320 -0.753146 1.781709 0
M  V30 26 H -1.336861 -5.197979 0.617742 0
M  V30 27 H 0.177582 -5.969015 0.141300 0
M  V30 28 H 0.052549 -5.308523 1.804356 0
M  V30 29 H 2.828567 -3.654624 -2.704596 0
M  V30 30 H 3.781105 -1.562884 -3.576636 0
M  V30 31 H 3.154628 0.540463 -2.578515 0
M  V30 32 H 2.613109 2.314366 -1.720697 0
M  V30 33 H -1.050265 4.368680 1.413628 0
M  V30 34 H 0.324693 4.285263 2.623268 0
M  V30 35 H 0.589254 6.304079 1.160337 0
M  V30 36 H -1.363867 -3.682150 2.253065 0
M  V30 37 H -3.430965 -2.515748 3.398260 0
M  V30 38 H -2.779764 -1.161580 4.371385 0
M  V30 39 H -2.017886 -2.750750 4.561092 0
M  V30 40 H -0.588158 0.123059 3.508352 0
M  V30 41 H 0.547986 -1.026461 2.780475 0
M  V30 42 H -0.179776 -1.342596 4.405281 0
M  V30 43 H -3.394360 -0.979040 1.782778 0
M  V30 44 H -1.967109 -0.878551 0.721510 0
M  V30 45 H -2.182859 0.279796 2.126977 0
M  V30 END ATOM
M  V30 BEGIN BOND
M  V30 1 1 1 2
M  V30 2 2 2 3
M  V30 3 1 3 4
M  V30 4 2 4 5
M  V30 5 1 5 6
M  V30 6 2 6 7
M  V30 7 1 7 8
M  V30 8 1 8 9
M  V30 9 2 9 10
M  V30 10 1 10 11
M  V30 11 2 11 12
M  V30 12 1 12 13
M  V30 13 1 12 14
M  V30 14 1 14 15
M  V30 15 1 15 16
M  V30 16 2 16 17
M  V30 17 2 8 18
M  V30 18 1 18 19
M  V30 19 2 19 20
M  V30 20 1 20 21
M  V30 21 1 21 22
M  V30 22 1 22 23
M  V30 23 1 22 24
M  V30 24 1 22 25
M  V30 25 1 20 2
M  V30 26 1 18 4
M  V30 27 1 13 9
M  V30 28 1 16 11
M  V30 29 1 1 26
M  V30 30 1 1 27
M  V30 31 1 1 28
M  V30 32 1 5 29
M  V30 33 1 6 30
M  V30 34 1 7 31
M  V30 35 1 10 32
M  V30 36 1 14 33
M  V30 37 1 14 34
M  V30 38 1 15 35
M  V30 39 1 21 36
M  V30 40 1 23 37
M  V30 41 1 23 38
M  V30 42 1 23 39
M  V30 43 1 24 40
M  V30 44 1 24 41
M  V30 45 1 24 42
M  V30 46 1 25 43
M  V30 47 1 25 44
M  V30 48 1 25 45
M  V30 END BOND
M  V30 END CTAB
M  END
>  <Dataset>  (498) 
ChEMBL_Kinases

>  <Ligand_Instance>  (498) 
nan

>  <PDB_ID>  (498) 
nan

>  <Standardized_SMILES>  (498) 
Cc1nc2cccc(-c3cc4c(s3)CNC4=O)c2nc1NC(C)(C)C

>  <Name>  (498) 
nan

>  <Pocket>  (498) 
nan

>  <ATP_Site>  (498) 
nan

>  <Peripheral>  (498) 
nan

>  <Num_H_Atoms_ProtBoundConf>  (498) 
nan

>  <Num_Resolved_Atoms>  (498) 
nan

>  <Num_Not_Resolved_Atoms>  (498) 
nan

$$$$
CHEMBL3699284
     RDKit          3D

  0  0  0  0  0  0  0  0  0  0999 V3000
M  V30 BEGIN CTAB
M  V30 COUNTS 50 53 0 0 0
M  V30 BEGIN ATOM
M  V30 1 C 5.515083 -1.888740 5.852989 0 CHG=-1 VAL=3
M  V30 2 N 5.555040 -1.511550 4.752084 0 CHG=1 VAL=4
M  V30 3 C 5.621984 -1.048913 3.446079 0
M  V30 4 C 6.780787 -0.694894 2.803137 0
M  V30 5 N 6.444094 -0.295102 1.547500 0
M  V30 6 C 5.121134 -0.402194 1.429009 0
M  V30 7 C 4.263299 -0.135953 0.388872 0
M  V30 8 N 4.703395 0.353418 -0.873715 0
M  V30 9 C 3.817809 0.640310 -1.982169 0
M  V30 10 C 4.578171 1.149349 -3.197553 0
M  V30 11 N 2.967255 -0.358652 0.610760 0
M  V30 12 C 2.418520 -0.814515 1.742329 0
M  V30 13 N 1.045569 -1.058106 1.999783 0
M  V30 14 C -0.050116 -0.874395 1.121408 0
M  V30 15 C 0.032688 -0.414467 -0.169442 0
M  V30 16 C -1.022955 -0.230737 -1.034760 0
M  V30 17 C -0.851863 0.255986 -2.373887 0
M  V30 18 N -0.704647 0.640342 -3.457649 0
M  V30 19 C -2.291259 -0.530257 -0.584126 0
M  V30 20 C -2.438591 -0.996454 0.703957 0
M  V30 21 C -3.777883 -1.324058 1.212402 0
M  V30 22 C -4.367516 -0.088949 1.844984 0
M  V30 23 C -5.827150 -0.055698 1.456555 0
M  V30 24 N -6.480287 -1.334491 1.665039 0
M  V30 25 C -5.989369 -2.344376 0.746747 0
M  V30 26 C -4.679870 -1.911008 0.154168 0
M  V30 27 C -1.343882 -1.158808 1.520606 0
M  V30 28 Cl -1.610126 -1.760000 3.157173 0
M  V30 29 N 3.317382 -1.048812 2.704004 0
M  V30 30 N 4.610374 -0.860141 2.578769 0
M  V30 31 H 7.781583 -0.724338 3.209698 0
M  V30 32 H 5.729732 0.507341 -0.984961 0
M  V30 33 H 3.069765 1.429909 -1.724218 0
M  V30 34 H 3.242720 -0.245214 -2.322039 0
M  V30 35 H 4.650108 2.261771 -3.204153 0
M  V30 36 H 4.039804 0.851976 -4.139034 0
M  V30 37 H 5.616532 0.725179 -3.176868 0
M  V30 38 H 0.797647 -1.420114 2.957973 0
M  V30 39 H 0.987104 -0.159881 -0.592155 0
M  V30 40 H -3.136163 -0.398135 -1.233821 0
M  V30 41 H -3.677609 -2.119383 1.993987 0
M  V30 42 H -3.912156 0.846386 1.407812 0
M  V30 43 H -4.186946 -0.067703 2.923928 0
M  V30 44 H -6.339080 0.683024 2.097768 0
M  V30 45 H -5.888191 0.236243 0.391765 0
M  V30 46 H -7.503589 -1.144506 1.517431 0
M  V30 47 H -5.900621 -3.321778 1.271530 0
M  V30 48 H -6.732597 -2.427651 -0.073149 0
M  V30 49 H -4.182341 -2.819422 -0.238281 0
M  V30 50 H -4.911251 -1.233275 -0.678999 0
M  V30 END ATOM
M  V30 BEGIN BOND
M  V30 1 3 1 2
M  V30 2 1 2 3
M  V30 3 2 3 4
M  V30 4 1 4 5
M  V30 5 2 5 6
M  V30 6 1 6 7
M  V30 7 1 7 8
M  V30 8 1 8 9
M  V30 9 1 9 10
M  V30 10 2 7 11
M  V30 11 1 11 12
M  V30 12 1 12 13
M  V30 13 1 13 14
M  V30 14 2 14 15
M  V30 15 1 15 16
M  V30 16 1 16 17
M  V30 17 3 17 18
M  V30 18 2 16 19
M  V30 19 1 19 20
M  V30 20 1 20 21
M  V30 21 1 21 22
M  V30 22 1 22 23
M  V30 23 1 23 24
M  V30 24 1 24 25
M  V30 25 1 25 26
M  V30 26 2 20 27
M  V30 27 1 27 28
M  V30 28 2 12 29
M  V30 29 1 29 30
M  V30 30 1 30 3
M  V30 31 1 30 6
M  V30 32 1 27 14
M  V30 33 1 26 21
M  V30 34 1 4 31
M  V30 35 1 8 32
M  V30 36 1 9 33
M  V30 37 1 9 34
M  V30 38 1 10 35
M  V30 39 1 10 36
M  V30 40 1 10 37
M  V30 41 1 13 38
M  V30 42 1 15 39
M  V30 43 1 19 40
M  V30 44 1 21 41
M  V30 45 1 22 42
M  V30 46 1 22 43
M  V30 47 1 23 44
M  V30 48 1 23 45
M  V30 49 1 24 46
M  V30 50 1 25 47
M  V30 51 1 25 48
M  V30 52 1 26 49
M  V30 53 1 26 50
M  V30 END BOND
M  V30 END CTAB
M  END
>  <Dataset>  (499) 
ChEMBL_Kinases

>  <Ligand_Instance>  (499) 
nan

>  <PDB_ID>  (499) 
nan

>  <Standardized_SMILES>  (499) 
[C-]#[N+]c1cnc2c(NCC)nc(Nc3cc(C#N)cc(C4CCNCC4)c3Cl)nn12

>  <Name>  (499) 
nan

>  <Pocket>  (499) 
nan

>  <ATP_Site>  (499) 
nan

>  <Peripheral>  (499) 
nan

>  <Num_H_Atoms_ProtBoundConf>  (499) 
nan

>  <Num_Resolved_Atoms>  (499) 
nan

>  <Num_Not_Resolved_Atoms>  (499) 
nan

$$$$
CHEMBL4476513
     RDKit          3D

  0  0  0  0  0  0  0  0  0  0999 V3000
M  V30 BEGIN CTAB
M  V30 COUNTS 66 70 0 0 0
M  V30 BEGIN ATOM
M  V30 1 C 4.197925 -2.712849 3.733723 0
M  V30 2 C 4.264579 -1.291712 4.186718 0 CFG=1
M  V30 3 N 5.626427 -0.921742 4.507168 0
M  V30 4 C 6.141409 0.099191 3.660330 0
M  V30 5 O 7.288817 0.611826 3.709228 0
M  V30 6 C 5.043395 0.396442 2.748043 0
M  V30 7 C 4.649946 1.175719 1.682326 0
M  V30 8 C 3.353150 0.880006 1.315574 0
M  V30 9 C 2.680169 1.555527 0.215292 0
M  V30 10 C 3.288507 2.536778 -0.539816 0
M  V30 11 C 2.661551 3.182681 -1.582684 0
M  V30 12 C 1.363979 2.865005 -1.923033 0
M  V30 13 C 0.710095 1.890173 -1.199183 0
M  V30 14 C -0.585941 1.558075 -1.523026 0
M  V30 15 O -1.125343 2.167863 -2.480306 0
M  V30 16 N -1.268485 0.599320 -0.831698 0
M  V30 17 C -2.618371 0.342107 -1.259277 0
M  V30 18 C -2.706401 -0.695450 -2.369823 0 CFG=2
M  V30 19 C -4.194035 -0.823935 -2.680094 0
M  V30 20 N -4.577503 -2.144950 -3.073432 0
M  V30 21 C -5.155331 -2.905056 -1.981024 0
M  V30 22 C -3.480359 -2.858226 -3.697925 0
M  V30 23 C -2.240985 -2.907048 -2.833257 0
M  V30 24 O -2.169323 -1.874902 -1.934678 0
M  V30 25 C -0.598087 0.017735 0.165480 0
M  V30 26 N -1.156063 -0.975327 1.014949 0
M  V30 27 C -1.864993 -1.232386 2.231892 0
M  V30 28 C -2.104890 -2.740383 2.345696 0
M  V30 29 C -3.197057 -0.535426 2.318666 0
M  V30 30 C -1.003534 -0.775483 3.411608 0
M  V30 31 N 0.668438 0.344872 0.478071 0
M  V30 32 C 1.385867 1.277205 -0.166506 0
M  V30 33 N 2.982280 -0.077035 2.168930 0
M  V30 34 C 3.954433 -0.397396 3.039210 0
M  V30 35 H 5.050623 -2.993506 3.106600 0
M  V30 36 H 3.228910 -2.898772 3.210913 0
M  V30 37 H 4.147329 -3.358209 4.654854 0
M  V30 38 H 3.565731 -1.120771 5.027429 0
M  V30 39 H 6.101687 -1.412801 5.300473 0
M  V30 40 H 5.298335 1.908454 1.223310 0
M  V30 41 H 4.321027 2.832339 -0.316026 0
M  V30 42 H 3.207129 3.943912 -2.129271 0
M  V30 43 H 0.909020 3.395148 -2.747373 0
M  V30 44 H -3.050871 1.307985 -1.671395 0
M  V30 45 H -3.285479 0.095767 -0.422878 0
M  V30 46 H -2.220174 -0.312300 -3.295052 0
M  V30 47 H -4.446751 -0.088895 -3.466010 0
M  V30 48 H -4.807619 -0.545092 -1.781140 0
M  V30 49 H -4.405122 -3.646180 -1.609728 0
M  V30 50 H -6.091300 -3.431067 -2.254426 0
M  V30 51 H -5.366439 -2.198908 -1.149640 0
M  V30 52 H -3.818929 -3.921804 -3.791058 0
M  V30 53 H -3.275990 -2.462641 -4.696623 0
M  V30 54 H -2.067638 -3.862672 -2.340531 0
M  V30 55 H -1.368132 -2.771074 -3.536376 0
M  V30 56 H -0.865323 -1.800669 0.415701 0
M  V30 57 H -3.088597 -2.930594 1.861182 0
M  V30 58 H -1.307301 -3.241085 1.762649 0
M  V30 59 H -2.080247 -3.057015 3.409461 0
M  V30 60 H -3.080864 0.511935 1.932078 0
M  V30 61 H -3.971245 -1.029622 1.690712 0
M  V30 62 H -3.533989 -0.471501 3.365477 0
M  V30 63 H -0.351721 0.068061 3.140934 0
M  V30 64 H -0.406774 -1.671330 3.719325 0
M  V30 65 H -1.641524 -0.512974 4.280410 0
M  V30 66 H 2.044754 -0.529638 2.166112 0
M  V30 END ATOM
M  V30 BEGIN BOND
M  V30 1 1 1 2
M  V30 2 1 2 3
M  V30 3 1 3 4
M  V30 4 2 4 5
M  V30 5 1 4 6
M  V30 6 1 6 7
M  V30 7 2 7 8
M  V30 8 1 8 9
M  V30 9 2 9 10
M  V30 10 1 10 11
M  V30 11 2 11 12
M  V30 12 1 12 13
M  V30 13 1 13 14
M  V30 14 2 14 15
M  V30 15 1 14 16
M  V30 16 1 16 17
M  V30 17 1 17 18
M  V30 18 1 18 19
M  V30 19 1 19 20
M  V30 20 1 20 21
M  V30 21 1 20 22
M  V30 22 1 22 23
M  V30 23 1 23 24
M  V30 24 1 16 25
M  V30 25 1 25 26
M  V30 26 1 26 27
M  V30 27 1 27 28
M  V30 28 1 27 29
M  V30 29 1 27 30
M  V30 30 2 25 31
M  V30 31 1 31 32
M  V30 32 1 8 33
M  V30 33 1 33 34
M  V30 34 1 34 2
M  V30 35 2 34 6
M  V30 36 1 32 9
M  V30 37 2 32 13
M  V30 38 1 24 18
M  V30 39 1 1 35
M  V30 40 1 1 36
M  V30 41 1 1 37
M  V30 42 1 2 38 CFG=1
M  V30 43 1 3 39
M  V30 44 1 7 40
M  V30 45 1 10 41
M  V30 46 1 11 42
M  V30 47 1 12 43
M  V30 48 1 17 44
M  V30 49 1 17 45
M  V30 50 1 18 46 CFG=3
M  V30 51 1 19 47
M  V30 52 1 19 48
M  V30 53 1 21 49
M  V30 54 1 21 50
M  V30 55 1 21 51
M  V30 56 1 22 52
M  V30 57 1 22 53
M  V30 58 1 23 54
M  V30 59 1 23 55
M  V30 60 1 26 56
M  V30 61 1 28 57
M  V30 62 1 28 58
M  V30 63 1 28 59
M  V30 64 1 29 60
M  V30 65 1 29 61
M  V30 66 1 29 62
M  V30 67 1 30 63
M  V30 68 1 30 64
M  V30 69 1 30 65
M  V30 70 1 33 66
M  V30 END BOND
M  V30 END CTAB
M  END
>  <Dataset>  (500) 
ChEMBL_Kinases

>  <Ligand_Instance>  (500) 
nan

>  <PDB_ID>  (500) 
nan

>  <Standardized_SMILES>  (500) 
C[C@H]1NC(=O)c2cc(-c3cccc4c(=O)n(C[C@@H]5CN(C)CCO5)c(NC(C)(C)C)nc34)[nH]c21

>  <Name>  (500) 
nan

>  <Pocket>  (500) 
nan

>  <ATP_Site>  (500) 
nan

>  <Peripheral>  (500) 
nan

>  <Num_H_Atoms_ProtBoundConf>  (500) 
nan

>  <Num_Resolved_Atoms>  (500) 
nan

>  <Num_Not_Resolved_Atoms>  (500) 
nan

$$$$
CHEMBL4514379
     RDKit          3D

  0  0  0  0  0  0  0  0  0  0999 V3000
M  V30 BEGIN CTAB
M  V30 COUNTS 39 42 0 0 0
M  V30 BEGIN ATOM
M  V30 1 N -0.174161 -5.162511 3.421877 0
M  V30 2 C 0.175594 -4.817412 2.374584 0
M  V30 3 C 0.621767 -4.373789 1.082775 0
M  V30 4 C 0.954810 -5.232860 0.038065 0
M  V30 5 N 1.328871 -4.482178 -1.019328 0
M  V30 6 C 1.244152 -3.182259 -0.680410 0
M  V30 7 C 1.461593 -1.935564 -1.241096 0
M  V30 8 C 1.244659 -0.764678 -0.519843 0
M  V30 9 C 0.796048 -0.790498 0.807477 0
M  V30 10 C 0.653927 0.567008 1.308036 0
M  V30 11 C -0.226529 1.497018 0.833665 0
M  V30 12 C -1.211847 1.375797 -0.237848 0
M  V30 13 C -1.075396 2.218603 -1.330626 0
M  V30 14 C -1.912577 2.244071 -2.434223 0
M  V30 15 C -2.968349 1.351898 -2.437307 0
M  V30 16 F -3.829140 1.325472 -3.493045 0
M  V30 17 C -3.137573 0.495408 -1.365740 0
M  V30 18 Cl -4.479599 -0.658138 -1.340396 0
M  V30 19 C -2.288997 0.484188 -0.268856 0
M  V30 20 N -0.035584 2.629770 1.557205 0
M  V30 21 C 0.933862 2.414325 2.455803 0
M  V30 22 N 1.355123 1.144705 2.299502 0
M  V30 23 C 2.402432 0.613302 3.144324 0
M  V30 24 C 1.848968 0.020620 4.411025 0
M  V30 25 O 0.967989 -1.014814 4.226170 0
M  V30 26 N 0.603119 -2.019475 1.296632 0
M  V30 27 N 0.810681 -3.127253 0.607548 0
M  V30 28 H 0.917981 -6.329683 0.073207 0
M  V30 29 H 1.809373 -1.943191 -2.272512 0
M  V30 30 H 1.468604 0.128745 -1.123329 0
M  V30 31 H -0.250914 2.929604 -1.349709 0
M  V30 32 H -1.729179 2.938180 -3.244008 0
M  V30 33 H -2.379582 -0.158447 0.581317 0
M  V30 34 H 1.235039 3.212368 3.137003 0
M  V30 35 H 2.954392 -0.223144 2.622192 0
M  V30 36 H 3.187357 1.353698 3.364925 0
M  V30 37 H 1.302117 0.830494 4.974143 0
M  V30 38 H 2.662785 -0.290761 5.086902 0
M  V30 39 H 1.345148 -1.909425 4.400013 0
M  V30 END ATOM
M  V30 BEGIN BOND
M  V30 1 3 1 2
M  V30 2 1 2 3
M  V30 3 2 3 4
M  V30 4 1 4 5
M  V30 5 2 5 6
M  V30 6 1 6 7
M  V30 7 2 7 8
M  V30 8 1 8 9
M  V30 9 1 9 10
M  V30 10 2 10 11
M  V30 11 1 11 12
M  V30 12 2 12 13
M  V30 13 1 13 14
M  V30 14 2 14 15
M  V30 15 1 15 16
M  V30 16 1 15 17
M  V30 17 1 17 18
M  V30 18 2 17 19
M  V30 19 1 11 20
M  V30 20 2 20 21
M  V30 21 1 21 22
M  V30 22 1 22 23
M  V30 23 1 23 24
M  V30 24 1 24 25
M  V30 25 2 9 26
M  V30 26 1 26 27
M  V30 27 1 27 3
M  V30 28 1 27 6
M  V30 29 1 22 10
M  V30 30 1 19 12
M  V30 31 1 4 28
M  V30 32 1 7 29
M  V30 33 1 8 30
M  V30 34 1 13 31
M  V30 35 1 14 32
M  V30 36 1 19 33
M  V30 37 1 21 34
M  V30 38 1 23 35
M  V30 39 1 23 36
M  V30 40 1 24 37
M  V30 41 1 24 38
M  V30 42 1 25 39
M  V30 END BOND
M  V30 END CTAB
M  END
>  <Dataset>  (501) 
ChEMBL_Kinases

>  <Ligand_Instance>  (501) 
nan

>  <PDB_ID>  (501) 
nan

>  <Standardized_SMILES>  (501) 
N#Cc1cnc2ccc(-c3c(-c4ccc(F)c(Cl)c4)ncn3CCO)nn12

>  <Name>  (501) 
nan

>  <Pocket>  (501) 
nan

>  <ATP_Site>  (501) 
nan

>  <Peripheral>  (501) 
nan

>  <Num_H_Atoms_ProtBoundConf>  (501) 
nan

>  <Num_Resolved_Atoms>  (501) 
nan

>  <Num_Not_Resolved_Atoms>  (501) 
nan

$$$$
CHEMBL4565580
     RDKit          3D

  0  0  0  0  0  0  0  0  0  0999 V3000
M  V30 BEGIN CTAB
M  V30 COUNTS 36 38 0 0 0
M  V30 BEGIN ATOM
M  V30 1 C 3.043142 1.169598 2.877474 0
M  V30 2 C 3.632643 -0.164182 2.418352 0
M  V30 3 C 2.543932 -1.237454 2.545752 0
M  V30 4 N 1.389032 -1.034861 1.771710 0
M  V30 5 C 0.237792 -0.832950 0.992214 0
M  V30 6 N 0.063483 -0.851596 -0.334354 0
M  V30 7 C -1.113542 -0.666905 -0.931276 0
M  V30 8 C -1.134298 -0.731265 -2.382317 0
M  V30 9 C -2.252648 -0.532389 -3.159224 0
M  V30 10 N -1.887480 -0.686299 -4.446487 0
M  V30 11 N -0.576808 -0.976945 -4.538361 0
M  V30 12 C -0.110579 -1.004208 -3.254599 0
M  V30 13 C 1.312347 -1.289646 -2.882192 0
M  V30 14 F 2.076889 -1.533548 -4.005892 0
M  V30 15 F 1.875526 -0.181561 -2.245225 0
M  V30 16 F 1.380638 -2.366677 -2.028791 0
M  V30 17 N -2.148292 -0.454600 -0.131194 0
M  V30 18 C -2.117486 -0.410063 1.200128 0
M  V30 19 C -3.343548 -0.163791 1.830301 0
M  V30 20 N -3.270268 -0.117786 3.191794 0
M  V30 21 C -2.101897 -0.299271 3.824388 0
M  V30 22 C -0.899510 -0.541265 3.209064 0
M  V30 23 C -0.881103 -0.605314 1.805876 0
M  V30 24 H 2.900769 1.842929 2.014566 0
M  V30 25 H 2.070984 0.962305 3.418127 0
M  V30 26 H 3.713484 1.578885 3.661733 0
M  V30 27 H 4.479550 -0.422083 3.081902 0
M  V30 28 H 4.035168 -0.114331 1.402412 0
M  V30 29 H 2.316328 -1.192991 3.670597 0
M  V30 30 H 2.960429 -2.271370 2.459982 0
M  V30 31 H 2.078788 -1.137854 0.950790 0
M  V30 32 H -3.218548 -0.297245 -2.739384 0
M  V30 33 H -2.530464 -0.594677 -5.286326 0
M  V30 34 H -4.235574 -0.030422 1.236875 0
M  V30 35 H -2.123201 -0.249029 4.902966 0
M  V30 36 H 0.047988 -0.688010 3.693600 0
M  V30 END ATOM
M  V30 BEGIN BOND
M  V30 1 1 1 2
M  V30 2 1 2 3
M  V30 3 1 3 4
M  V30 4 1 4 5
M  V30 5 2 5 6
M  V30 6 1 6 7
M  V30 7 1 7 8
M  V30 8 2 8 9
M  V30 9 1 9 10
M  V30 10 1 10 11
M  V30 11 2 11 12
M  V30 12 1 12 13
M  V30 13 1 13 14
M  V30 14 1 13 15
M  V30 15 1 13 16
M  V30 16 2 7 17
M  V30 17 1 17 18
M  V30 18 2 18 19
M  V30 19 1 19 20
M  V30 20 2 20 21
M  V30 21 1 21 22
M  V30 22 2 22 23
M  V30 23 1 23 5
M  V30 24 1 12 8
M  V30 25 1 23 18
M  V30 26 1 1 24
M  V30 27 1 1 25
M  V30 28 1 1 26
M  V30 29 1 2 27
M  V30 30 1 2 28
M  V30 31 1 3 29
M  V30 32 1 3 30
M  V30 33 1 4 31
M  V30 34 1 9 32
M  V30 35 1 10 33
M  V30 36 1 19 34
M  V30 37 1 21 35
M  V30 38 1 22 36
M  V30 END BOND
M  V30 END CTAB
M  END
>  <Dataset>  (502) 
ChEMBL_Kinases

>  <Ligand_Instance>  (502) 
nan

>  <PDB_ID>  (502) 
nan

>  <Standardized_SMILES>  (502) 
CCCNc1nc(-c2c[nH]nc2C(F)(F)F)nc2cnccc12

>  <Name>  (502) 
nan

>  <Pocket>  (502) 
nan

>  <ATP_Site>  (502) 
nan

>  <Peripheral>  (502) 
nan

>  <Num_H_Atoms_ProtBoundConf>  (502) 
nan

>  <Num_Resolved_Atoms>  (502) 
nan

>  <Num_Not_Resolved_Atoms>  (502) 
nan

$$$$
CHEMBL4514346
     RDKit          3D

  0  0  0  0  0  0  0  0  0  0999 V3000
M  V30 BEGIN CTAB
M  V30 COUNTS 43 46 0 0 0
M  V30 BEGIN ATOM
M  V30 1 C -4.100202 -2.778770 -0.121986 0
M  V30 2 C -2.817114 -2.049471 -0.332728 0
M  V30 3 N -2.085076 -2.236799 -1.465293 0
M  V30 4 C -0.978002 -1.458588 -1.398070 0
M  V30 5 C 0.164939 -1.213645 -2.269202 0
M  V30 6 C 1.443167 -1.505584 -1.834321 0
M  V30 7 C 2.462992 -1.241667 -2.734583 0
M  V30 8 C 2.224158 -0.722150 -3.983260 0
M  V30 9 C 0.916272 -0.441146 -4.383526 0
M  V30 10 O 0.722915 0.082063 -5.651640 0
M  V30 11 C -0.131700 -0.691927 -3.509518 0
M  V30 12 C -1.020633 -0.778397 -0.209863 0
M  V30 13 C -0.225196 0.196984 0.536699 0
M  V30 14 C -0.015816 1.478186 0.010706 0
M  V30 15 C 0.746731 2.303766 0.810955 0
M  V30 16 N 1.265847 1.955370 1.999085 0
M  V30 17 C 1.074633 0.731137 2.517168 0
M  V30 18 N 1.658914 0.457184 3.781122 0
M  V30 19 C 1.640744 -0.738757 4.538477 0
M  V30 20 O 1.039022 -1.740365 4.080068 0
M  V30 21 C 2.273329 -0.929565 5.843515 0
M  V30 22 C 1.830175 0.151447 6.877841 0
M  V30 23 C 3.253127 -0.029213 6.448803 0
M  V30 24 C 0.330258 -0.109853 1.760943 0
M  V30 25 N -2.161151 -1.153924 0.435653 0
M  V30 26 H -4.621123 -2.946447 -1.084759 0
M  V30 27 H -3.939604 -3.711979 0.451735 0
M  V30 28 H -4.728472 -2.126781 0.553468 0
M  V30 29 H 1.587570 -1.916816 -0.835966 0
M  V30 30 H 3.463243 -1.475785 -2.379839 0
M  V30 31 H 3.080322 -0.546658 -4.623104 0
M  V30 32 H -0.116429 -0.227430 -6.142644 0
M  V30 33 H -1.119852 -0.462268 -3.856202 0
M  V30 34 H -0.422586 1.782210 -0.941953 0
M  V30 35 H 0.964208 3.316134 0.489960 0
M  V30 36 H 2.194460 1.198751 4.283979 0
M  V30 37 H 2.158916 -1.962715 6.274753 0
M  V30 38 H 1.345584 1.063158 6.475671 0
M  V30 39 H 1.466966 -0.197288 7.852711 0
M  V30 40 H 3.754456 0.774425 5.907709 0
M  V30 41 H 3.890183 -0.467057 7.257552 0
M  V30 42 H 0.132368 -1.095135 2.099102 0
M  V30 43 H -2.627579 -0.914015 1.359573 0
M  V30 END ATOM
M  V30 BEGIN BOND
M  V30 1 1 1 2
M  V30 2 2 2 3
M  V30 3 1 3 4
M  V30 4 1 4 5
M  V30 5 2 5 6
M  V30 6 1 6 7
M  V30 7 2 7 8
M  V30 8 1 8 9
M  V30 9 1 9 10
M  V30 10 2 9 11
M  V30 11 2 4 12
M  V30 12 1 12 13
M  V30 13 2 13 14
M  V30 14 1 14 15
M  V30 15 2 15 16
M  V30 16 1 16 17
M  V30 17 1 17 18
M  V30 18 1 18 19
M  V30 19 2 19 20
M  V30 20 1 19 21
M  V30 21 1 21 22
M  V30 22 1 22 23
M  V30 23 2 17 24
M  V30 24 1 12 25
M  V30 25 1 25 2
M  V30 26 1 11 5
M  V30 27 1 24 13
M  V30 28 1 23 21
M  V30 29 1 1 26
M  V30 30 1 1 27
M  V30 31 1 1 28
M  V30 32 1 6 29
M  V30 33 1 7 30
M  V30 34 1 8 31
M  V30 35 1 10 32
M  V30 36 1 11 33
M  V30 37 1 14 34
M  V30 38 1 15 35
M  V30 39 1 18 36
M  V30 40 1 21 37
M  V30 41 1 22 38
M  V30 42 1 22 39
M  V30 43 1 23 40
M  V30 44 1 23 41
M  V30 45 1 24 42
M  V30 46 1 25 43
M  V30 END BOND
M  V30 END CTAB
M  END
>  <Dataset>  (503) 
ChEMBL_Kinases

>  <Ligand_Instance>  (503) 
nan

>  <PDB_ID>  (503) 
nan

>  <Standardized_SMILES>  (503) 
Cc1nc(-c2cccc(O)c2)c(-c2ccnc(NC(=O)C3CC3)c2)[nH]1

>  <Name>  (503) 
nan

>  <Pocket>  (503) 
nan

>  <ATP_Site>  (503) 
nan

>  <Peripheral>  (503) 
nan

>  <Num_H_Atoms_ProtBoundConf>  (503) 
nan

>  <Num_Resolved_Atoms>  (503) 
nan

>  <Num_Not_Resolved_Atoms>  (503) 
nan

$$$$
CHEMBL3699282
     RDKit          3D

  0  0  0  0  0  0  0  0  0  0999 V3000
M  V30 BEGIN CTAB
M  V30 COUNTS 59 62 0 0 0
M  V30 BEGIN ATOM
M  V30 1 C 1.646707 -0.287972 7.455030 0 CHG=-1 VAL=3
M  V30 2 N 2.335050 0.424590 6.855852 0 CHG=1 VAL=4
M  V30 3 C 3.155745 1.254464 6.136994 0
M  V30 4 C 4.207068 2.035621 6.602605 0
M  V30 5 N 4.732057 2.686994 5.549629 0
M  V30 6 C 4.027261 2.322119 4.456283 0
M  V30 7 C 4.134632 2.680695 3.132562 0
M  V30 8 N 5.133332 3.599509 2.706247 0
M  V30 9 C 5.254755 3.983552 1.314863 0
M  V30 10 C 5.531302 2.819768 0.402986 0
M  V30 11 N 3.288223 2.157410 2.238470 0
M  V30 12 C 2.320484 1.284682 2.565812 0
M  V30 13 N 1.463859 0.776605 1.554579 0
M  V30 14 C 0.389480 -0.143296 1.676189 0
M  V30 15 C -0.011881 -0.718834 2.860877 0
M  V30 16 C -1.047675 -1.614082 3.018896 0
M  V30 17 C -1.406624 -2.172243 4.291791 0
M  V30 18 N -1.711487 -2.615442 5.325911 0
M  V30 19 C -1.755352 -1.974304 1.891277 0
M  V30 20 C -1.394179 -1.425860 0.675290 0
M  V30 21 N -2.104660 -1.780019 -0.493016 0
M  V30 22 C -1.309215 -2.387502 -1.496194 0
M  V30 23 C -1.810137 -3.812499 -1.656881 0
M  V30 24 C -3.117994 -3.738280 -2.323416 0 CFG=2
M  V30 25 N -3.210723 -3.044080 -3.569006 0
M  V30 26 C -3.706521 -3.748969 -4.680228 0
M  V30 27 O -4.085190 -4.944429 -4.703523 0
M  V30 28 O -3.874594 -3.258134 -5.973669 0
M  V30 29 C -4.392956 -4.090850 -7.015423 0
M  V30 30 C -4.049196 -3.020763 -1.363733 0 CFG=1
M  V30 31 O -4.150857 -3.780987 -0.197111 0
M  V30 32 C -3.489060 -1.675493 -0.940947 0
M  V30 33 C -0.350589 -0.536824 0.579771 0
M  V30 34 Cl 0.052512 0.118900 -0.991329 0
M  V30 35 N 2.287018 0.995019 3.853336 0
M  V30 36 N 3.067019 1.450722 4.807912 0
M  V30 37 H 4.474017 2.045218 7.649475 0
M  V30 38 H 5.789251 4.003009 3.409809 0
M  V30 39 H 6.071698 4.703522 1.186168 0
M  V30 40 H 4.324262 4.507800 0.998078 0
M  V30 41 H 6.608092 2.783470 0.133892 0
M  V30 42 H 5.009163 2.997819 -0.574903 0
M  V30 43 H 5.171369 1.861036 0.815403 0
M  V30 44 H 1.639270 1.124084 0.564616 0
M  V30 45 H 0.494802 -0.484118 3.782381 0
M  V30 46 H -2.575656 -2.675497 1.977959 0
M  V30 47 H -1.422010 -1.808081 -2.434706 0
M  V30 48 H -0.247433 -2.502229 -1.318434 0
M  V30 49 H -1.988852 -4.264075 -0.655220 0
M  V30 50 H -1.063065 -4.478950 -2.112674 0
M  V30 51 H -3.488908 -4.787190 -2.467040 0
M  V30 52 H -2.948372 -2.052602 -3.755088 0
M  V30 53 H -4.011774 -3.665444 -7.976488 0
M  V30 54 H -5.479849 -4.174416 -6.981553 0
M  V30 55 H -3.906698 -5.108088 -6.960909 0
M  V30 56 H -5.038505 -2.823884 -1.794975 0
M  V30 57 H -5.108457 -3.794738 0.105122 0
M  V30 58 H -4.124289 -1.155111 -0.230206 0
M  V30 59 H -3.556804 -1.086259 -1.899845 0
M  V30 END ATOM
M  V30 BEGIN BOND
M  V30 1 3 1 2
M  V30 2 1 2 3
M  V30 3 2 3 4
M  V30 4 1 4 5
M  V30 5 2 5 6
M  V30 6 1 6 7
M  V30 7 1 7 8
M  V30 8 1 8 9
M  V30 9 1 9 10
M  V30 10 2 7 11
M  V30 11 1 11 12
M  V30 12 1 12 13
M  V30 13 1 13 14
M  V30 14 2 14 15
M  V30 15 1 15 16
M  V30 16 1 16 17
M  V30 17 3 17 18
M  V30 18 2 16 19
M  V30 19 1 19 20
M  V30 20 1 20 21
M  V30 21 1 21 22
M  V30 22 1 22 23
M  V30 23 1 23 24
M  V30 24 1 24 25
M  V30 25 1 25 26
M  V30 26 2 26 27
M  V30 27 1 26 28
M  V30 28 1 28 29
M  V30 29 1 24 30
M  V30 30 1 30 31
M  V30 31 1 30 32
M  V30 32 2 20 33
M  V30 33 1 33 34
M  V30 34 2 12 35
M  V30 35 1 35 36
M  V30 36 1 36 3
M  V30 37 1 36 6
M  V30 38 1 33 14
M  V30 39 1 32 21
M  V30 40 1 4 37
M  V30 41 1 8 38
M  V30 42 1 9 39
M  V30 43 1 9 40
M  V30 44 1 10 41
M  V30 45 1 10 42
M  V30 46 1 10 43
M  V30 47 1 13 44
M  V30 48 1 15 45
M  V30 49 1 19 46
M  V30 50 1 22 47
M  V30 51 1 22 48
M  V30 52 1 23 49
M  V30 53 1 23 50
M  V30 54 1 24 51 CFG=3
M  V30 55 1 25 52
M  V30 56 1 29 53
M  V30 57 1 29 54
M  V30 58 1 29 55
M  V30 59 1 30 56 CFG=3
M  V30 60 1 31 57
M  V30 61 1 32 58
M  V30 62 1 32 59
M  V30 END BOND
M  V30 END CTAB
M  END
>  <Dataset>  (504) 
ChEMBL_Kinases

>  <Ligand_Instance>  (504) 
nan

>  <PDB_ID>  (504) 
nan

>  <Standardized_SMILES>  (504) 
[C-]#[N+]c1cnc2c(NCC)nc(Nc3cc(C#N)cc(N4CC[C@H](NC(=O)OC)[C@@H](O)C4)c3Cl)nn12

>  <Name>  (504) 
nan

>  <Pocket>  (504) 
nan

>  <ATP_Site>  (504) 
nan

>  <Peripheral>  (504) 
nan

>  <Num_H_Atoms_ProtBoundConf>  (504) 
nan

>  <Num_Resolved_Atoms>  (504) 
nan

>  <Num_Not_Resolved_Atoms>  (504) 
nan

$$$$
CHEMBL3699281
     RDKit          3D

  0  0  0  0  0  0  0  0  0  0999 V3000
M  V30 BEGIN CTAB
M  V30 COUNTS 59 62 0 0 0
M  V30 BEGIN ATOM
M  V30 1 C 1.809405 1.155128 7.334632 0 CHG=-1 VAL=3
M  V30 2 N 2.307649 1.802089 6.518190 0 CHG=1 VAL=4
M  V30 3 C 2.879451 2.572404 5.537289 0
M  V30 4 C 3.776371 3.594003 5.733085 0
M  V30 5 N 4.086195 4.085663 4.507118 0
M  V30 6 C 3.395931 3.381151 3.594816 0
M  V30 7 C 3.311237 3.429448 2.225137 0
M  V30 8 N 4.068671 4.390236 1.476887 0
M  V30 9 C 3.987823 4.451022 0.030332 0
M  V30 10 C 4.412141 3.178833 -0.632638 0
M  V30 11 N 2.521981 2.584246 1.550848 0
M  V30 12 C 1.780328 1.656812 2.160225 0
M  V30 13 N 0.955265 0.778277 1.410683 0
M  V30 14 C 0.099864 -0.263002 1.854467 0
M  V30 15 C -0.088148 -0.621613 3.170658 0
M  V30 16 C -0.912961 -1.628057 3.618035 0
M  V30 17 C -1.050932 -1.937804 5.020546 0
M  V30 18 N -1.174043 -2.174735 6.141121 0
M  V30 19 C -1.613141 -2.342211 2.679281 0
M  V30 20 C -1.458056 -2.020231 1.348018 0
M  V30 21 N -2.194523 -2.772646 0.393521 0
M  V30 22 C -3.185504 -2.286701 -0.544061 0
M  V30 23 C -3.867196 -3.491918 -1.181828 0
M  V30 24 C -2.875692 -4.316222 -1.972539 0 CFG=1
M  V30 25 N -2.426540 -3.529122 -3.101391 0
M  V30 26 C -2.604468 -3.874543 -4.456619 0
M  V30 27 O -3.185242 -4.926692 -4.835814 0
M  V30 28 O -2.188323 -3.145756 -5.540667 0
M  V30 29 C -2.436073 -3.616238 -6.874290 0
M  V30 30 C -1.724106 -4.704901 -1.066978 0 CFG=2
M  V30 31 O -1.583623 -6.085926 -0.992451 0
M  V30 32 C -1.948535 -4.201860 0.323638 0
M  V30 33 C -0.631876 -1.018954 0.964081 0
M  V30 34 Cl -0.492921 -0.678221 -0.747192 0
M  V30 35 N 1.898930 1.651657 3.494916 0
M  V30 36 N 2.652571 2.451173 4.208903 0
M  V30 37 H 4.199433 3.989286 6.632777 0
M  V30 38 H 4.686676 5.052937 1.998017 0
M  V30 39 H 4.592938 5.280192 -0.333678 0
M  V30 40 H 2.930778 4.639191 -0.252096 0
M  V30 41 H 5.446389 3.302258 -1.000388 0
M  V30 42 H 3.768181 2.904484 -1.490439 0
M  V30 43 H 4.463737 2.324978 0.087876 0
M  V30 44 H 0.978205 0.917697 0.357319 0
M  V30 45 H 0.435683 -0.096073 3.954003 0
M  V30 46 H -2.266920 -3.133320 2.970871 0
M  V30 47 H -3.998681 -1.783047 0.036807 0
M  V30 48 H -2.773494 -1.645366 -1.321248 0
M  V30 49 H -4.638848 -3.121854 -1.900707 0
M  V30 50 H -4.334955 -4.124515 -0.398339 0
M  V30 51 H -3.386666 -5.239265 -2.277364 0
M  V30 52 H -1.930754 -2.633300 -2.892603 0
M  V30 53 H -1.744379 -3.055981 -7.540689 0
M  V30 54 H -3.483389 -3.452178 -7.140020 0
M  V30 55 H -2.127468 -4.687062 -6.956670 0
M  V30 56 H -0.749079 -4.262960 -1.402763 0
M  V30 57 H -1.884047 -6.437094 -0.132027 0
M  V30 58 H -1.024192 -4.480881 0.908350 0
M  V30 59 H -2.792185 -4.797852 0.752600 0
M  V30 END ATOM
M  V30 BEGIN BOND
M  V30 1 3 1 2
M  V30 2 1 2 3
M  V30 3 2 3 4
M  V30 4 1 4 5
M  V30 5 2 5 6
M  V30 6 1 6 7
M  V30 7 1 7 8
M  V30 8 1 8 9
M  V30 9 1 9 10
M  V30 10 2 7 11
M  V30 11 1 11 12
M  V30 12 1 12 13
M  V30 13 1 13 14
M  V30 14 2 14 15
M  V30 15 1 15 16
M  V30 16 1 16 17
M  V30 17 3 17 18
M  V30 18 2 16 19
M  V30 19 1 19 20
M  V30 20 1 20 21
M  V30 21 1 21 22
M  V30 22 1 22 23
M  V30 23 1 23 24
M  V30 24 1 24 25
M  V30 25 1 25 26
M  V30 26 2 26 27
M  V30 27 1 26 28
M  V30 28 1 28 29
M  V30 29 1 24 30
M  V30 30 1 30 31
M  V30 31 1 30 32
M  V30 32 2 20 33
M  V30 33 1 33 34
M  V30 34 2 12 35
M  V30 35 1 35 36
M  V30 36 1 36 3
M  V30 37 1 36 6
M  V30 38 1 33 14
M  V30 39 1 32 21
M  V30 40 1 4 37
M  V30 41 1 8 38
M  V30 42 1 9 39
M  V30 43 1 9 40
M  V30 44 1 10 41
M  V30 45 1 10 42
M  V30 46 1 10 43
M  V30 47 1 13 44
M  V30 48 1 15 45
M  V30 49 1 19 46
M  V30 50 1 22 47
M  V30 51 1 22 48
M  V30 52 1 23 49
M  V30 53 1 23 50
M  V30 54 1 24 51 CFG=3
M  V30 55 1 25 52
M  V30 56 1 29 53
M  V30 57 1 29 54
M  V30 58 1 29 55
M  V30 59 1 30 56 CFG=3
M  V30 60 1 31 57
M  V30 61 1 32 58
M  V30 62 1 32 59
M  V30 END BOND
M  V30 END CTAB
M  END
>  <Dataset>  (505) 
ChEMBL_Kinases

>  <Ligand_Instance>  (505) 
nan

>  <PDB_ID>  (505) 
nan

>  <Standardized_SMILES>  (505) 
[C-]#[N+]c1cnc2c(NCC)nc(Nc3cc(C#N)cc(N4CC[C@@H](NC(=O)OC)[C@H](O)C4)c3Cl)nn12

>  <Name>  (505) 
nan

>  <Pocket>  (505) 
nan

>  <ATP_Site>  (505) 
nan

>  <Peripheral>  (505) 
nan

>  <Num_H_Atoms_ProtBoundConf>  (505) 
nan

>  <Num_Resolved_Atoms>  (505) 
nan

>  <Num_Not_Resolved_Atoms>  (505) 
nan

$$$$
CHEMBL4513885
     RDKit          3D

  0  0  0  0  0  0  0  0  0  0999 V3000
M  V30 BEGIN CTAB
M  V30 COUNTS 51 55 0 0 0
M  V30 BEGIN ATOM
M  V30 1 C 4.239563 -3.492531 4.365180 0
M  V30 2 C 2.957855 -2.806427 4.035950 0
M  V30 3 C 1.786892 -3.003513 4.742039 0
M  V30 4 C 0.617320 -2.340537 4.397624 0
M  V30 5 C 0.589960 -1.452377 3.324245 0
M  V30 6 C 1.791201 -1.291791 2.650569 0
M  V30 7 C 1.730838 -0.356356 1.534456 0
M  V30 8 N 2.389318 0.790131 1.305594 0
M  V30 9 N 2.039018 1.327355 0.168137 0
M  V30 10 C 2.458726 2.524989 -0.528439 0
M  V30 11 C 1.712867 3.733110 -0.195659 0
M  V30 12 S 2.545558 5.043097 0.344634 0
M  V30 13 N 0.329126 3.904103 -0.288344 0
M  V30 14 C -0.853497 3.211702 -0.647964 0
M  V30 15 C -1.551829 2.567039 0.381177 0
M  V30 16 C -2.733088 1.835821 0.221827 0
M  V30 17 C -3.179422 1.790865 -1.066940 0
M  V30 18 C -2.548601 2.398073 -2.127977 0
M  V30 19 C -3.130099 2.265640 -3.426663 0
M  V30 20 N -3.590608 2.159545 -4.485048 0
M  V30 21 C -1.392943 3.100973 -1.903197 0
M  V30 22 C 1.104976 0.497212 -0.380901 0
M  V30 23 C 0.893288 -0.581374 0.471914 0
M  V30 24 C -0.079412 -1.683498 0.163113 0
M  V30 25 C 0.178626 -2.975331 0.043713 0
M  V30 26 C -0.817984 -3.869979 -0.248558 0
M  V30 27 C -0.845222 -5.234350 -0.428364 0
M  V30 28 N -1.959496 -5.876250 -0.709998 0
M  V30 29 C -3.181616 -5.347491 -0.861140 0
M  V30 30 C -3.293145 -3.982205 -0.705551 0
M  V30 31 C -2.087496 -3.322407 -0.405659 0
M  V30 32 S -1.798886 -1.503801 -0.120882 0
M  V30 33 N 2.910490 -1.947499 3.005665 0
M  V30 34 H 5.073732 -2.855712 3.974333 0
M  V30 35 H 4.342898 -3.535924 5.460243 0
M  V30 36 H 4.290932 -4.482144 3.871315 0
M  V30 37 H 1.862700 -3.702995 5.566114 0
M  V30 38 H -0.240961 -2.571292 5.020453 0
M  V30 39 H -0.342887 -0.978056 3.114159 0
M  V30 40 H 3.559718 2.693367 -0.389795 0
M  V30 41 H 2.363599 2.393264 -1.645529 0
M  V30 42 H -0.172794 4.783572 -0.051625 0
M  V30 43 H -1.154120 2.629985 1.404980 0
M  V30 44 H -3.185932 1.380109 1.090649 0
M  V30 45 H -4.096612 1.236788 -1.261814 0
M  V30 46 H -0.874975 3.583435 -2.692565 0
M  V30 47 H 0.585961 0.620331 -1.326039 0
M  V30 48 H 1.209112 -3.345248 0.181148 0
M  V30 49 H 0.074297 -5.821706 -0.337774 0
M  V30 50 H -4.099178 -5.865801 -1.090267 0
M  V30 51 H -4.180068 -3.370616 -0.787881 0
M  V30 END ATOM
M  V30 BEGIN BOND
M  V30 1 1 1 2
M  V30 2 2 2 3
M  V30 3 1 3 4
M  V30 4 2 4 5
M  V30 5 1 5 6
M  V30 6 1 6 7
M  V30 7 2 7 8
M  V30 8 1 8 9
M  V30 9 1 9 10
M  V30 10 1 10 11
M  V30 11 2 11 12
M  V30 12 1 11 13
M  V30 13 1 13 14
M  V30 14 2 14 15
M  V30 15 1 15 16
M  V30 16 2 16 17
M  V30 17 1 17 18
M  V30 18 1 18 19
M  V30 19 3 19 20
M  V30 20 2 18 21
M  V30 21 1 9 22
M  V30 22 2 22 23
M  V30 23 1 23 24
M  V30 24 2 24 25
M  V30 25 1 25 26
M  V30 26 2 26 27
M  V30 27 1 27 28
M  V30 28 2 28 29
M  V30 29 1 29 30
M  V30 30 2 30 31
M  V30 31 1 31 32
M  V30 32 2 6 33
M  V30 33 1 33 2
M  V30 34 1 23 7
M  V30 35 1 32 24
M  V30 36 1 21 14
M  V30 37 1 31 26
M  V30 38 1 1 34
M  V30 39 1 1 35
M  V30 40 1 1 36
M  V30 41 1 3 37
M  V30 42 1 4 38
M  V30 43 1 5 39
M  V30 44 1 10 40
M  V30 45 1 10 41
M  V30 46 1 13 42
M  V30 47 1 15 43
M  V30 48 1 16 44
M  V30 49 1 17 45
M  V30 50 1 21 46
M  V30 51 1 22 47
M  V30 52 1 25 48
M  V30 53 1 27 49
M  V30 54 1 29 50
M  V30 55 1 30 51
M  V30 END BOND
M  V30 END CTAB
M  END
>  <Dataset>  (506) 
ChEMBL_Kinases

>  <Ligand_Instance>  (506) 
nan

>  <PDB_ID>  (506) 
nan

>  <Standardized_SMILES>  (506) 
Cc1cccc(-c2nn(CC(=S)Nc3cccc(C#N)c3)cc2-c2cc3cnccc3s2)n1

>  <Name>  (506) 
nan

>  <Pocket>  (506) 
nan

>  <ATP_Site>  (506) 
nan

>  <Peripheral>  (506) 
nan

>  <Num_H_Atoms_ProtBoundConf>  (506) 
nan

>  <Num_Resolved_Atoms>  (506) 
nan

>  <Num_Not_Resolved_Atoms>  (506) 
nan

$$$$
CHEMBL3699280
     RDKit          3D

  0  0  0  0  0  0  0  0  0  0999 V3000
M  V30 BEGIN CTAB
M  V30 COUNTS 65 70 0 0 0
M  V30 BEGIN ATOM
M  V30 1 C -0.975490 2.708894 7.525515 0
M  V30 2 C -0.505070 2.325326 6.171983 0
M  V30 3 O 0.550910 1.670416 5.967782 0
M  V30 4 N -0.953215 2.500054 4.842750 0
M  V30 5 C -0.273331 2.001686 3.683007 0
M  V30 6 C -1.568041 2.079503 2.908639 0
M  V30 7 N -1.383053 2.606903 1.608918 0
M  V30 8 C -0.920229 3.941890 1.488403 0
M  V30 9 C -0.181160 4.066261 0.152923 0
M  V30 10 C -0.601999 2.968158 -0.808644 0
M  V30 11 C 0.034370 1.682228 -0.522741 0
M  V30 12 C 1.005127 1.641421 0.479736 0
M  V30 13 C 1.622257 0.427374 0.775420 0
M  V30 14 C 2.630460 0.356137 1.808673 0
M  V30 15 N 3.438903 0.305198 2.635988 0
M  V30 16 C 1.240887 -0.685174 0.057258 0
M  V30 17 C 0.289430 -0.695543 -0.939988 0
M  V30 18 N -0.095612 -1.843744 -1.672644 0
M  V30 19 C 0.392850 -3.168754 -1.550282 0
M  V30 20 N -0.088289 -4.143730 -2.329700 0
M  V30 21 C 0.345228 -5.404101 -2.248473 0
M  V30 22 N -0.206876 -6.409812 -3.110445 0
M  V30 23 C -1.224033 -6.193117 -4.090161 0
M  V30 24 C -1.082067 -5.258355 -5.206928 0
M  V30 25 C -0.881394 -6.702292 -5.514605 0
M  V30 26 C 1.318158 -5.779879 -1.353861 0
M  V30 27 N 1.935933 -6.909937 -1.044772 0
M  V30 28 C 2.823531 -6.684349 -0.063200 0
M  V30 29 C 2.736618 -5.327842 0.241234 0
M  V30 30 C 3.471375 -4.577244 1.218563 0
M  V30 31 N 4.075051 -3.980005 1.992224 0
M  V30 32 N 1.790223 -4.808398 -0.584587 0
M  V30 33 N 1.331116 -3.589561 -0.704337 0
M  V30 34 C -0.287162 0.533325 -1.189396 0
M  V30 35 Cl -1.505427 0.603624 -2.458472 0
M  V30 36 C -2.122356 2.943517 -0.619795 0
M  V30 37 C -2.373504 2.196421 0.678223 0
M  V30 38 C -1.972892 3.058810 3.981812 0
M  V30 39 H -1.942931 3.224014 7.429249 0
M  V30 40 H -0.228110 3.364240 8.001868 0
M  V30 41 H -1.134356 1.804442 8.149712 0
M  V30 42 H 0.527176 2.664695 3.318798 0
M  V30 43 H 0.152582 0.972739 3.751850 0
M  V30 44 H -2.156973 1.148713 3.000472 0
M  V30 45 H -0.195464 4.196816 2.255572 0
M  V30 46 H -1.778527 4.680734 1.525267 0
M  V30 47 H -0.582209 5.010742 -0.333796 0
M  V30 48 H 0.881345 4.233218 0.241732 0
M  V30 49 H -0.373300 3.298443 -1.837173 0
M  V30 50 H 1.349116 2.478007 1.077593 0
M  V30 51 H 1.748012 -1.575614 0.331931 0
M  V30 52 H -0.837241 -1.704931 -2.402752 0
M  V30 53 H 0.112523 -7.393362 -3.071440 0
M  V30 54 H -2.264032 -6.446293 -3.740287 0
M  V30 55 H -0.217953 -4.573933 -5.265045 0
M  V30 56 H -2.024201 -4.806716 -5.599763 0
M  V30 57 H 0.156658 -7.070491 -5.647105 0
M  V30 58 H -1.679372 -7.303234 -6.000121 0
M  V30 59 H 3.517401 -7.308875 0.471559 0
M  V30 60 H -2.480041 3.999768 -0.443235 0
M  V30 61 H -2.678447 2.589448 -1.475125 0
M  V30 62 H -2.252225 1.117626 0.448728 0
M  V30 63 H -3.414708 2.339863 1.021499 0
M  V30 64 H -1.733408 4.120435 3.783346 0
M  V30 65 H -2.983605 2.876391 4.405436 0
M  V30 END ATOM
M  V30 BEGIN BOND
M  V30 1 1 1 2
M  V30 2 2 2 3
M  V30 3 1 2 4
M  V30 4 1 4 5
M  V30 5 1 5 6
M  V30 6 1 6 7
M  V30 7 1 7 8
M  V30 8 1 8 9
M  V30 9 1 9 10
M  V30 10 1 10 11
M  V30 11 2 11 12
M  V30 12 1 12 13
M  V30 13 1 13 14
M  V30 14 3 14 15
M  V30 15 2 13 16
M  V30 16 1 16 17
M  V30 17 1 17 18
M  V30 18 1 18 19
M  V30 19 1 19 20
M  V30 20 2 20 21
M  V30 21 1 21 22
M  V30 22 1 22 23
M  V30 23 1 23 24
M  V30 24 1 24 25
M  V30 25 1 21 26
M  V30 26 2 26 27
M  V30 27 1 27 28
M  V30 28 2 28 29
M  V30 29 1 29 30
M  V30 30 3 30 31
M  V30 31 1 29 32
M  V30 32 1 32 33
M  V30 33 2 17 34
M  V30 34 1 34 35
M  V30 35 1 10 36
M  V30 36 1 36 37
M  V30 37 1 6 38
M  V30 38 1 38 4
M  V30 39 1 37 7
M  V30 40 1 34 11
M  V30 41 2 33 19
M  V30 42 1 25 23
M  V30 43 1 32 26
M  V30 44 1 1 39
M  V30 45 1 1 40
M  V30 46 1 1 41
M  V30 47 1 5 42
M  V30 48 1 5 43
M  V30 49 1 6 44
M  V30 50 1 8 45
M  V30 51 1 8 46
M  V30 52 1 9 47
M  V30 53 1 9 48
M  V30 54 1 10 49
M  V30 55 1 12 50
M  V30 56 1 16 51
M  V30 57 1 18 52
M  V30 58 1 22 53
M  V30 59 1 23 54
M  V30 60 1 24 55
M  V30 61 1 24 56
M  V30 62 1 25 57
M  V30 63 1 25 58
M  V30 64 1 28 59
M  V30 65 1 36 60
M  V30 66 1 36 61
M  V30 67 1 37 62
M  V30 68 1 37 63
M  V30 69 1 38 64
M  V30 70 1 38 65
M  V30 END BOND
M  V30 END CTAB
M  END
>  <Dataset>  (507) 
ChEMBL_Kinases

>  <Ligand_Instance>  (507) 
nan

>  <PDB_ID>  (507) 
nan

>  <Standardized_SMILES>  (507) 
CC(=O)N1CC(N2CCC(c3cc(C#N)cc(Nc4nc(NC5CC5)c5ncc(C#N)n5n4)c3Cl)CC2)C1

>  <Name>  (507) 
nan

>  <Pocket>  (507) 
nan

>  <ATP_Site>  (507) 
nan

>  <Peripheral>  (507) 
nan

>  <Num_H_Atoms_ProtBoundConf>  (507) 
nan

>  <Num_Resolved_Atoms>  (507) 
nan

>  <Num_Not_Resolved_Atoms>  (507) 
nan

$$$$
CHEMBL3699279
     RDKit          3D

  0  0  0  0  0  0  0  0  0  0999 V3000
M  V30 BEGIN CTAB
M  V30 COUNTS 73 79 0 0 0
M  V30 BEGIN ATOM
M  V30 1 C 6.369621 -2.529926 -0.680218 0 CHG=-1 VAL=3
M  V30 2 N 6.331200 -1.433950 -1.073768 0 CHG=1 VAL=4
M  V30 3 C 6.295029 -0.114001 -1.536004 0
M  V30 4 C 7.075740 0.470499 -2.497809 0
M  V30 5 N 6.627437 1.731298 -2.552462 0
M  V30 6 C 5.636242 1.894880 -1.675721 0
M  V30 7 C 4.889036 3.003380 -1.392771 0
M  V30 8 N 5.065031 4.241082 -2.049059 0
M  V30 9 C 4.402424 5.537316 -1.867349 0
M  V30 10 C 4.731473 6.667790 -2.815049 0
M  V30 11 C 5.284979 6.678538 -1.414463 0
M  V30 12 N 3.920080 2.959480 -0.463754 0
M  V30 13 C 3.679516 1.815273 0.197083 0
M  V30 14 N 2.738286 1.413733 1.190557 0
M  V30 15 C 1.732298 0.486983 0.760591 0
M  V30 16 C 1.690705 -0.013871 -0.527207 0
M  V30 17 C 0.751715 -0.929705 -0.979656 0
M  V30 18 C 0.728993 -1.434754 -2.317392 0
M  V30 19 N 0.726789 -1.830873 -3.398070 0
M  V30 20 C -0.169299 -1.319954 -0.026236 0
M  V30 21 C -0.223036 -0.891393 1.270408 0
M  V30 22 N -1.227291 -1.367874 2.127148 0
M  V30 23 C -1.057362 -1.996214 3.451354 0
M  V30 24 C -2.441057 -2.402642 3.976913 0
M  V30 25 N -3.087045 -3.247278 3.000539 0
M  V30 26 C -2.699540 -4.608930 3.103989 0
M  V30 27 C -3.014283 -5.309850 4.399286 0
M  V30 28 O -3.063800 -6.503187 3.644331 0
M  V30 29 C -3.501047 -5.707395 2.549426 0
M  V30 30 C -3.155368 -2.713328 1.694215 0
M  V30 31 C -4.529854 -2.731534 1.116017 0
M  V30 32 O -5.229107 -3.091538 2.126494 0
M  V30 33 N -4.915665 -2.421518 -0.219600 0
M  V30 34 C -4.203270 -2.011487 -1.438986 0
M  V30 35 C -4.606854 -2.868684 -2.611795 0
M  V30 36 O -5.807816 -3.528787 -2.392711 0
M  V30 37 C -6.684963 -2.597942 -1.823920 0
M  V30 38 C -6.350882 -2.553712 -0.350763 0
M  V30 39 C -2.618663 -1.280564 1.733348 0
M  V30 40 C 0.768055 0.026697 1.616181 0
M  V30 41 Cl 0.766708 0.626906 3.267442 0
M  V30 42 N 4.433010 0.733440 -0.099905 0
M  V30 43 N 5.397925 0.758990 -1.018093 0
M  V30 44 H 7.837433 -0.094628 -3.004843 0
M  V30 45 H 5.798676 4.248062 -2.804200 0
M  V30 46 H 3.391476 5.539684 -1.419538 0
M  V30 47 H 5.359143 6.385393 -3.679305 0
M  V30 48 H 3.918537 7.378835 -3.076154 0
M  V30 49 H 6.377825 6.452787 -1.287210 0
M  V30 50 H 4.878845 7.432280 -0.738018 0
M  V30 51 H 2.714003 1.726738 2.176456 0
M  V30 52 H 2.419021 0.300089 -1.272119 0
M  V30 53 H -0.914467 -2.037261 -0.350975 0
M  V30 54 H -0.423432 -2.871569 3.332462 0
M  V30 55 H -0.695918 -1.246796 4.182638 0
M  V30 56 H -2.959047 -1.481825 4.233227 0
M  V30 57 H -2.220490 -3.031551 4.881542 0
M  V30 58 H -1.614080 -4.765754 2.881489 0
M  V30 59 H -2.218934 -5.375909 5.152482 0
M  V30 60 H -4.033920 -5.147172 4.793222 0
M  V30 61 H -3.064061 -6.232824 1.645821 0
M  V30 62 H -4.588195 -5.696164 2.583551 0
M  V30 63 H -2.470081 -3.289983 1.039037 0
M  V30 64 H -4.385513 -0.961378 -1.698044 0
M  V30 65 H -3.108300 -2.114416 -1.313429 0
M  V30 66 H -4.748201 -2.248122 -3.525571 0
M  V30 67 H -3.788274 -3.585845 -2.888456 0
M  V30 68 H -7.703277 -2.990735 -1.984071 0
M  V30 69 H -6.517639 -1.626777 -2.322754 0
M  V30 70 H -6.897585 -1.768616 0.203134 0
M  V30 71 H -6.668321 -3.519783 0.067064 0
M  V30 72 H -3.150122 -0.634515 2.438683 0
M  V30 73 H -2.740456 -0.853263 0.714443 0
M  V30 END ATOM
M  V30 BEGIN BOND
M  V30 1 3 1 2
M  V30 2 1 2 3
M  V30 3 2 3 4
M  V30 4 1 4 5
M  V30 5 2 5 6
M  V30 6 1 6 7
M  V30 7 1 7 8
M  V30 8 1 8 9
M  V30 9 1 9 10
M  V30 10 1 10 11
M  V30 11 2 7 12
M  V30 12 1 12 13
M  V30 13 1 13 14
M  V30 14 1 14 15
M  V30 15 2 15 16
M  V30 16 1 16 17
M  V30 17 1 17 18
M  V30 18 3 18 19
M  V30 19 2 17 20
M  V30 20 1 20 21
M  V30 21 1 21 22
M  V30 22 1 22 23
M  V30 23 1 23 24
M  V30 24 1 24 25
M  V30 25 1 25 26
M  V30 26 1 26 27
M  V30 27 1 27 28
M  V30 28 1 28 29
M  V30 29 1 25 30
M  V30 30 1 30 31
M  V30 31 2 31 32
M  V30 32 1 31 33
M  V30 33 1 33 34
M  V30 34 1 34 35
M  V30 35 1 35 36
M  V30 36 1 36 37
M  V30 37 1 37 38
M  V30 38 1 30 39
M  V30 39 2 21 40
M  V30 40 1 40 41
M  V30 41 2 13 42
M  V30 42 1 42 43
M  V30 43 1 43 3
M  V30 44 1 43 6
M  V30 45 1 11 9
M  V30 46 1 40 15
M  V30 47 1 39 22
M  V30 48 1 29 26
M  V30 49 1 38 33
M  V30 50 1 4 44
M  V30 51 1 8 45
M  V30 52 1 9 46
M  V30 53 1 10 47
M  V30 54 1 10 48
M  V30 55 1 11 49
M  V30 56 1 11 50
M  V30 57 1 14 51
M  V30 58 1 16 52
M  V30 59 1 20 53
M  V30 60 1 23 54
M  V30 61 1 23 55
M  V30 62 1 24 56
M  V30 63 1 24 57
M  V30 64 1 26 58
M  V30 65 1 27 59
M  V30 66 1 27 60
M  V30 67 1 29 61
M  V30 68 1 29 62
M  V30 69 1 30 63
M  V30 70 1 34 64
M  V30 71 1 34 65
M  V30 72 1 35 66
M  V30 73 1 35 67
M  V30 74 1 37 68
M  V30 75 1 37 69
M  V30 76 1 38 70
M  V30 77 1 38 71
M  V30 78 1 39 72
M  V30 79 1 39 73
M  V30 END BOND
M  V30 END CTAB
M  END
>  <Dataset>  (508) 
ChEMBL_Kinases

>  <Ligand_Instance>  (508) 
nan

>  <PDB_ID>  (508) 
nan

>  <Standardized_SMILES>  (508) 
[C-]#[N+]c1cnc2c(NC3CC3)nc(Nc3cc(C#N)cc(N4CCN(C5COC5)C(C(=O)N5CCOCC5)C4)c3Cl)nn12

>  <Name>  (508) 
nan

>  <Pocket>  (508) 
nan

>  <ATP_Site>  (508) 
nan

>  <Peripheral>  (508) 
nan

>  <Num_H_Atoms_ProtBoundConf>  (508) 
nan

>  <Num_Resolved_Atoms>  (508) 
nan

>  <Num_Not_Resolved_Atoms>  (508) 
nan

$$$$
CHEMBL4513652
     RDKit          3D

  0  0  0  0  0  0  0  0  0  0999 V3000
M  V30 BEGIN CTAB
M  V30 COUNTS 61 64 0 0 0
M  V30 BEGIN ATOM
M  V30 1 C 4.774850 2.743214 1.638414 0
M  V30 2 C 4.423486 1.323564 1.416039 0
M  V30 3 C 4.218821 0.488452 2.492671 0
M  V30 4 C 3.891698 -0.829574 2.270924 0
M  V30 5 C 3.766319 -1.323111 0.975830 0
M  V30 6 C 3.983775 -0.435538 -0.052558 0
M  V30 7 C 4.313212 0.891662 0.115540 0
M  V30 8 C 3.811603 -1.095781 -1.398317 0
M  V30 9 C 2.591740 -1.967429 -1.312762 0
M  V30 10 C 1.409540 -1.244476 -0.777809 0
M  V30 11 O 0.835733 -1.597427 0.310819 0
M  V30 12 N 0.760172 -0.115868 -1.350472 0
M  V30 13 C -0.326894 0.185130 -0.445158 0
M  V30 14 C 0.051232 1.062234 0.549675 0
M  V30 15 C -0.889490 1.434663 1.490028 0
M  V30 16 C -2.167087 0.922791 1.406247 0
M  V30 17 C -3.246193 1.237787 2.337677 0
M  V30 18 C -4.265356 0.341263 2.657031 0
M  V30 19 C -5.218118 0.778200 3.552781 0
M  V30 20 N -5.218543 1.987993 4.120310 0
M  V30 21 C -4.244465 2.889216 3.836375 0
M  V30 22 C -3.277370 2.479546 2.942788 0
M  V30 23 C -2.508072 0.047833 0.396667 0
M  V30 24 C -1.615786 -0.355231 -0.561148 0
M  V30 25 O -1.695308 -1.179292 -1.625221 0
M  V30 26 C -2.703022 -1.943268 -2.160835 0
M  V30 27 C -3.269064 -3.018714 -1.276861 0
M  V30 28 N -2.271066 -3.981250 -0.870780 0
M  V30 29 C -1.779378 -4.812662 -1.928364 0
M  V30 30 C -2.750467 -4.826637 0.200850 0
M  V30 31 C 2.882515 -3.103246 -0.361483 0
M  V30 32 O 3.436659 -2.655201 0.833347 0
M  V30 33 H 5.313906 2.845349 2.609221 0
M  V30 34 H 5.472555 3.095276 0.869932 0
M  V30 35 H 3.851299 3.333850 1.754375 0
M  V30 36 H 4.310016 0.848107 3.511715 0
M  V30 37 H 3.735131 -1.465367 3.145075 0
M  V30 38 H 4.455932 1.480288 -0.780178 0
M  V30 39 H 3.639920 -0.356002 -2.204848 0
M  V30 40 H 4.727978 -1.643279 -1.623207 0
M  V30 41 H 2.406333 -2.360145 -2.342397 0
M  V30 42 H 1.185405 0.237548 -2.258865 0
M  V30 43 H 1.036070 1.490782 0.657824 0
M  V30 44 H -0.707228 2.111021 2.309493 0
M  V30 45 H -4.214668 -0.612319 2.173535 0
M  V30 46 H -5.994493 0.065605 3.781075 0
M  V30 47 H -4.180432 3.895926 4.259998 0
M  V30 48 H -2.491652 3.175299 2.698412 0
M  V30 49 H -3.484446 -0.382742 0.272027 0
M  V30 50 H -2.319925 -2.426509 -3.086478 0
M  V30 51 H -3.551222 -1.275994 -2.444647 0
M  V30 52 H -4.025452 -3.622528 -1.863230 0
M  V30 53 H -3.777263 -2.634574 -0.388047 0
M  V30 54 H -0.805671 -5.245986 -1.556846 0
M  V30 55 H -1.623924 -4.327091 -2.890839 0
M  V30 56 H -2.477376 -5.689716 -2.008278 0
M  V30 57 H -2.001453 -5.529423 0.565651 0
M  V30 58 H -3.031182 -4.150012 1.058950 0
M  V30 59 H -3.690264 -5.368821 -0.040569 0
M  V30 60 H 3.563580 -3.793826 -0.938601 0
M  V30 61 H 1.945032 -3.684175 -0.227068 0
M  V30 END ATOM
M  V30 BEGIN BOND
M  V30 1 1 1 2
M  V30 2 2 2 3
M  V30 3 1 3 4
M  V30 4 2 4 5
M  V30 5 1 5 6
M  V30 6 2 6 7
M  V30 7 1 6 8
M  V30 8 1 8 9
M  V30 9 1 9 10
M  V30 10 2 10 11
M  V30 11 1 10 12
M  V30 12 1 12 13
M  V30 13 2 13 14
M  V30 14 1 14 15
M  V30 15 2 15 16
M  V30 16 1 16 17
M  V30 17 2 17 18
M  V30 18 1 18 19
M  V30 19 2 19 20
M  V30 20 1 20 21
M  V30 21 2 21 22
M  V30 22 1 16 23
M  V30 23 2 23 24
M  V30 24 1 24 25
M  V30 25 1 25 26
M  V30 26 1 26 27
M  V30 27 1 27 28
M  V30 28 1 28 29
M  V30 29 1 28 30
M  V30 30 1 9 31
M  V30 31 1 31 32
M  V30 32 1 7 2
M  V30 33 1 24 13
M  V30 34 1 32 5
M  V30 35 1 22 17
M  V30 36 1 1 33
M  V30 37 1 1 34
M  V30 38 1 1 35
M  V30 39 1 3 36
M  V30 40 1 4 37
M  V30 41 1 7 38
M  V30 42 1 8 39
M  V30 43 1 8 40
M  V30 44 1 9 41
M  V30 45 1 12 42
M  V30 46 1 14 43
M  V30 47 1 15 44
M  V30 48 1 18 45
M  V30 49 1 19 46
M  V30 50 1 21 47
M  V30 51 1 22 48
M  V30 52 1 23 49
M  V30 53 1 26 50
M  V30 54 1 26 51
M  V30 55 1 27 52
M  V30 56 1 27 53
M  V30 57 1 29 54
M  V30 58 1 29 55
M  V30 59 1 29 56
M  V30 60 1 30 57
M  V30 61 1 30 58
M  V30 62 1 30 59
M  V30 63 1 31 60
M  V30 64 1 31 61
M  V30 END BOND
M  V30 END CTAB
M  END
>  <Dataset>  (509) 
ChEMBL_Kinases

>  <Ligand_Instance>  (509) 
nan

>  <PDB_ID>  (509) 
nan

>  <Standardized_SMILES>  (509) 
Cc1ccc2c(c1)CC(C(=O)Nc1ccc(-c3ccncc3)cc1OCCN(C)C)CO2

>  <Name>  (509) 
nan

>  <Pocket>  (509) 
nan

>  <ATP_Site>  (509) 
nan

>  <Peripheral>  (509) 
nan

>  <Num_H_Atoms_ProtBoundConf>  (509) 
nan

>  <Num_Resolved_Atoms>  (509) 
nan

>  <Num_Not_Resolved_Atoms>  (509) 
nan

$$$$
CHEMBL3699283
     RDKit          3D

  0  0  0  0  0  0  0  0  0  0999 V3000
M  V30 BEGIN CTAB
M  V30 COUNTS 35 38 0 0 0
M  V30 BEGIN ATOM
M  V30 1 C 1.710308 -2.480934 5.686169 0 CHG=-1 VAL=3
M  V30 2 N 1.596979 -2.562620 4.552604 0 CHG=1 VAL=4
M  V30 3 C 1.459770 -2.647470 3.189404 0
M  V30 4 C 1.549700 -3.758747 2.345571 0
M  V30 5 N 1.342466 -3.341433 1.077224 0
M  V30 6 C 1.123131 -1.990445 1.099735 0
M  V30 7 C 0.870879 -1.135316 0.052777 0
M  V30 8 N 0.770158 -1.508395 -1.311714 0
M  V30 9 C 0.893008 -2.790214 -1.921577 0
M  V30 10 C 2.101715 -3.611428 -1.871106 0
M  V30 11 C 1.883315 -2.802065 -3.121347 0
M  V30 12 N 0.703246 0.146364 0.418943 0
M  V30 13 C 0.769326 0.581190 1.683803 0
M  V30 14 N 0.558885 1.984453 1.824179 0
M  V30 15 C -0.767455 2.479359 1.507284 0
M  V30 16 C -1.098607 3.835277 1.632099 0
M  V30 17 C -2.377566 4.210162 1.285706 0
M  V30 18 C -3.340685 3.335448 0.827625 0
M  V30 19 C -2.964837 2.017058 0.723733 0
M  V30 20 C -3.914892 1.032628 0.245048 0
M  V30 21 N -4.678438 0.242908 -0.117983 0
M  V30 22 N -1.726301 1.618114 1.053425 0
M  V30 23 N 1.020905 -0.324100 2.646115 0
M  V30 24 N 1.201061 -1.607690 2.382952 0
M  V30 25 H 1.753656 -4.753619 2.719141 0
M  V30 26 H 0.577624 -0.760304 -2.011213 0
M  V30 27 H -0.104854 -3.240382 -2.205581 0
M  V30 28 H 2.924017 -3.254343 -1.208609 0
M  V30 29 H 1.931776 -4.722650 -1.941176 0
M  V30 30 H 2.522969 -1.901421 -3.257451 0
M  V30 31 H 1.540609 -3.274177 -4.059960 0
M  V30 32 H 1.247845 2.686688 2.127668 0
M  V30 33 H -0.308364 4.448341 1.990020 0
M  V30 34 H -2.552945 5.270396 1.410358 0
M  V30 35 H -4.324245 3.707909 0.575426 0
M  V30 END ATOM
M  V30 BEGIN BOND
M  V30 1 3 1 2
M  V30 2 1 2 3
M  V30 3 2 3 4
M  V30 4 1 4 5
M  V30 5 2 5 6
M  V30 6 1 6 7
M  V30 7 1 7 8
M  V30 8 1 8 9
M  V30 9 1 9 10
M  V30 10 1 10 11
M  V30 11 2 7 12
M  V30 12 1 12 13
M  V30 13 1 13 14
M  V30 14 1 14 15
M  V30 15 2 15 16
M  V30 16 1 16 17
M  V30 17 2 17 18
M  V30 18 1 18 19
M  V30 19 1 19 20
M  V30 20 3 20 21
M  V30 21 2 19 22
M  V30 22 2 13 23
M  V30 23 1 23 24
M  V30 24 1 24 3
M  V30 25 1 24 6
M  V30 26 1 11 9
M  V30 27 1 22 15
M  V30 28 1 4 25
M  V30 29 1 8 26
M  V30 30 1 9 27
M  V30 31 1 10 28
M  V30 32 1 10 29
M  V30 33 1 11 30
M  V30 34 1 11 31
M  V30 35 1 14 32
M  V30 36 1 16 33
M  V30 37 1 17 34
M  V30 38 1 18 35
M  V30 END BOND
M  V30 END CTAB
M  END
>  <Dataset>  (510) 
ChEMBL_Kinases

>  <Ligand_Instance>  (510) 
nan

>  <PDB_ID>  (510) 
nan

>  <Standardized_SMILES>  (510) 
[C-]#[N+]c1cnc2c(NC3CC3)nc(Nc3cccc(C#N)n3)nn12

>  <Name>  (510) 
nan

>  <Pocket>  (510) 
nan

>  <ATP_Site>  (510) 
nan

>  <Peripheral>  (510) 
nan

>  <Num_H_Atoms_ProtBoundConf>  (510) 
nan

>  <Num_Resolved_Atoms>  (510) 
nan

>  <Num_Not_Resolved_Atoms>  (510) 
nan

$$$$
CHEMBL3699293
     RDKit          3D

  0  0  0  0  0  0  0  0  0  0999 V3000
M  V30 BEGIN CTAB
M  V30 COUNTS 61 66 0 0 0
M  V30 BEGIN ATOM
M  V30 1 C 3.964378 -1.863301 2.384136 0
M  V30 2 C 5.395656 -1.473026 2.060410 0
M  V30 3 N 5.552270 -1.191754 0.634677 0
M  V30 4 C 4.757189 -0.133623 0.085818 0
M  V30 5 N 3.899498 0.580359 0.831839 0
M  V30 6 C 3.129168 1.582586 0.370258 0
M  V30 7 N 2.254945 2.270269 1.261466 0
M  V30 8 C 0.942328 1.726944 1.406012 0
M  V30 9 C 0.567157 0.602549 0.714890 0
M  V30 10 C -0.696238 0.059610 0.841546 0
M  V30 11 C -1.615946 0.636960 1.669613 0
M  V30 12 C -1.203171 1.770001 2.351064 0
M  V30 13 C 0.040823 2.356455 2.265550 0
M  V30 14 C -2.283355 2.165334 3.110278 0
M  V30 15 C -2.369467 3.296323 4.002543 0
M  V30 16 N -2.425413 4.202305 4.727566 0
M  V30 17 N -3.253582 1.300181 2.869166 0
M  V30 18 N -2.891918 0.355391 2.000364 0
M  V30 19 C -3.699450 -0.746013 1.513023 0
M  V30 20 C -3.912972 -0.756749 0.045414 0
M  V30 21 C -4.040452 -2.076737 -0.617662 0
M  V30 22 N -3.231131 -3.097797 -0.019610 0
M  V30 23 C -3.189479 -4.340179 -0.691562 0
M  V30 24 C -4.500564 -5.091517 -0.853558 0
M  V30 25 O -3.906293 -5.663519 -2.004056 0
M  V30 26 C -3.304305 -4.391000 -2.175576 0
M  V30 27 C -3.701389 -3.213430 1.362170 0
M  V30 28 C -3.107318 -2.014173 2.070582 0
M  V30 29 N 3.238102 1.881367 -0.945297 0
M  V30 30 N 4.077392 1.204074 -1.742000 0
M  V30 31 C 4.311344 1.365583 -3.059988 0
M  V30 32 C 3.697418 2.330379 -3.946020 0
M  V30 33 N 3.215700 3.113515 -4.652442 0
M  V30 34 C 5.262870 0.414186 -3.387066 0
M  V30 35 N 5.591746 -0.300581 -2.292246 0
M  V30 36 C 4.855520 0.189758 -1.269783 0
M  V30 37 H 3.326720 -0.965194 2.548687 0
M  V30 38 H 3.595882 -2.487283 1.544048 0
M  V30 39 H 3.999224 -2.411307 3.334530 0
M  V30 40 H 6.113452 -2.250176 2.380361 0
M  V30 41 H 5.603069 -0.570624 2.676121 0
M  V30 42 H 6.188491 -1.702181 0.020020 0
M  V30 43 H 2.541928 3.117459 1.780798 0
M  V30 44 H 1.244894 0.095301 0.042992 0
M  V30 45 H -0.963301 -0.827641 0.283267 0
M  V30 46 H 0.299922 3.235902 2.820665 0
M  V30 47 H -4.711984 -0.659763 1.994828 0
M  V30 48 H -4.862275 -0.193432 -0.203941 0
M  V30 49 H -3.144292 -0.145325 -0.513642 0
M  V30 50 H -5.099405 -2.409632 -0.633298 0
M  V30 51 H -3.688533 -1.979133 -1.686747 0
M  V30 52 H -2.402062 -4.999976 -0.295334 0
M  V30 53 H -5.337944 -4.447475 -1.153645 0
M  V30 54 H -4.768626 -5.795796 -0.067195 0
M  V30 55 H -4.097079 -3.738352 -2.601839 0
M  V30 56 H -2.378050 -4.441405 -2.751650 0
M  V30 57 H -3.370926 -4.141582 1.834662 0
M  V30 58 H -4.810462 -3.148156 1.356901 0
M  V30 59 H -3.371787 -2.037896 3.166425 0
M  V30 60 H -2.023939 -2.090791 2.021788 0
M  V30 61 H 5.668215 0.283117 -4.384893 0
M  V30 END ATOM
M  V30 BEGIN BOND
M  V30 1 1 1 2
M  V30 2 1 2 3
M  V30 3 1 3 4
M  V30 4 2 4 5
M  V30 5 1 5 6
M  V30 6 1 6 7
M  V30 7 1 7 8
M  V30 8 2 8 9
M  V30 9 1 9 10
M  V30 10 2 10 11
M  V30 11 1 11 12
M  V30 12 2 12 13
M  V30 13 1 12 14
M  V30 14 1 14 15
M  V30 15 3 15 16
M  V30 16 2 14 17
M  V30 17 1 17 18
M  V30 18 1 18 19
M  V30 19 1 19 20
M  V30 20 1 20 21
M  V30 21 1 21 22
M  V30 22 1 22 23
M  V30 23 1 23 24
M  V30 24 1 24 25
M  V30 25 1 25 26
M  V30 26 1 22 27
M  V30 27 1 27 28
M  V30 28 2 6 29
M  V30 29 1 29 30
M  V30 30 1 30 31
M  V30 31 1 31 32
M  V30 32 3 32 33
M  V30 33 2 31 34
M  V30 34 1 34 35
M  V30 35 2 35 36
M  V30 36 1 36 4
M  V30 37 1 13 8
M  V30 38 1 28 19
M  V30 39 1 36 30
M  V30 40 1 18 11
M  V30 41 1 26 23
M  V30 42 1 1 37
M  V30 43 1 1 38
M  V30 44 1 1 39
M  V30 45 1 2 40
M  V30 46 1 2 41
M  V30 47 1 3 42
M  V30 48 1 7 43
M  V30 49 1 9 44
M  V30 50 1 10 45
M  V30 51 1 13 46
M  V30 52 1 19 47
M  V30 53 1 20 48
M  V30 54 1 20 49
M  V30 55 1 21 50
M  V30 56 1 21 51
M  V30 57 1 23 52
M  V30 58 1 24 53
M  V30 59 1 24 54
M  V30 60 1 26 55
M  V30 61 1 26 56
M  V30 62 1 27 57
M  V30 63 1 27 58
M  V30 64 1 28 59
M  V30 65 1 28 60
M  V30 66 1 34 61
M  V30 END BOND
M  V30 END CTAB
M  END
>  <Dataset>  (511) 
ChEMBL_Kinases

>  <Ligand_Instance>  (511) 
nan

>  <PDB_ID>  (511) 
nan

>  <Standardized_SMILES>  (511) 
CCNc1nc(Nc2ccc3c(c2)c(C#N)nn3C2CCN(C3COC3)CC2)nn2c(C#N)cnc12

>  <Name>  (511) 
nan

>  <Pocket>  (511) 
nan

>  <ATP_Site>  (511) 
nan

>  <Peripheral>  (511) 
nan

>  <Num_H_Atoms_ProtBoundConf>  (511) 
nan

>  <Num_Resolved_Atoms>  (511) 
nan

>  <Num_Not_Resolved_Atoms>  (511) 
nan

$$$$
CHEMBL2333884
     RDKit          3D

  0  0  0  0  0  0  0  0  0  0999 V3000
M  V30 BEGIN CTAB
M  V30 COUNTS 56 60 0 0 0
M  V30 BEGIN ATOM
M  V30 1 N -0.547655 -5.397915 5.769596 0
M  V30 2 C -0.367600 -4.132979 6.487508 0
M  V30 3 C 0.129121 -3.155895 5.465767 0
M  V30 4 C 1.475972 -2.983772 5.223957 0
M  V30 5 C 1.902238 -2.061781 4.262461 0
M  V30 6 C 0.985002 -1.323627 3.554616 0
M  V30 7 C 1.491252 -0.384948 2.573772 0
M  V30 8 O 2.733735 -0.280898 2.415798 0
M  V30 9 N 0.626317 0.404294 1.802652 0
M  V30 10 C 0.902088 1.394646 0.778950 0
M  V30 11 C 0.451512 2.740229 1.155326 0
M  V30 12 C -0.784080 2.930145 1.718941 0
M  V30 13 C -1.200234 4.216123 2.071901 0
M  V30 14 C -0.405605 5.344226 1.876331 0
M  V30 15 Cl -0.897909 6.947844 2.304756 0
M  V30 16 C 0.831859 5.113597 1.306410 0
M  V30 17 C 1.270963 3.855175 0.947122 0
M  V30 18 C 0.363198 0.913171 -0.519469 0
M  V30 19 N 0.692181 -0.398672 -0.705046 0
M  V30 20 C 0.298144 -1.051635 -1.837249 0
M  V30 21 C 0.594373 -2.375877 -2.091361 0
M  V30 22 C 0.154609 -2.964613 -3.269539 0
M  V30 23 C -0.583458 -2.210358 -4.186039 0
M  V30 24 C -1.001159 -2.916515 -5.394244 0
M  V30 25 C -1.294497 -4.283863 -5.401921 0
M  V30 26 N -1.652717 -4.684666 -6.635551 0
M  V30 27 N -1.590682 -3.610036 -7.391712 0
M  V30 28 C -1.205432 -2.527244 -6.694011 0
M  V30 29 C -0.889314 -0.884848 -3.949193 0
M  V30 30 C -0.433744 -0.337037 -2.766481 0
M  V30 31 C -0.756604 0.992011 -2.558937 0
M  V30 32 O -1.409633 1.744022 -3.318206 0
M  V30 33 N -0.354296 1.610963 -1.432123 0
M  V30 34 C -0.351479 -1.516696 3.817461 0
M  V30 35 C -0.801692 -2.418528 4.759436 0
M  V30 36 H -1.236480 -5.217430 5.017494 0
M  V30 37 H -0.821664 -6.106646 6.459891 0
M  V30 38 H 0.273676 -4.216658 7.365095 0
M  V30 39 H -1.385170 -3.833753 6.841248 0
M  V30 40 H 2.197288 -3.571279 5.787729 0
M  V30 41 H 2.965335 -1.955454 4.101640 0
M  V30 42 H -0.413327 0.369697 1.881018 0
M  V30 43 H 2.024220 1.423270 0.702584 0
M  V30 44 H -1.469198 2.138979 1.911842 0
M  V30 45 H -2.171788 4.424276 2.523206 0
M  V30 46 H 1.468271 5.985696 1.145614 0
M  V30 47 H 2.252650 3.701031 0.498789 0
M  V30 48 H 1.171786 -2.924897 -1.349544 0
M  V30 49 H 0.424631 -3.992085 -3.392121 0
M  V30 50 H -1.254157 -4.976611 -4.551960 0
M  V30 51 H -1.817698 -3.620198 -8.409375 0
M  V30 52 H -1.055024 -1.502163 -7.004750 0
M  V30 53 H -1.462531 -0.325639 -4.677053 0
M  V30 54 H -0.479994 2.576476 -1.078518 0
M  V30 55 H -1.088373 -0.950459 3.276009 0
M  V30 56 H -1.873720 -2.536066 4.932330 0
M  V30 END ATOM
M  V30 BEGIN BOND
M  V30 1 1 1 2
M  V30 2 1 2 3
M  V30 3 2 3 4
M  V30 4 1 4 5
M  V30 5 2 5 6
M  V30 6 1 6 7
M  V30 7 2 7 8
M  V30 8 1 7 9
M  V30 9 1 9 10
M  V30 10 1 10 11
M  V30 11 2 11 12
M  V30 12 1 12 13
M  V30 13 2 13 14
M  V30 14 1 14 15
M  V30 15 1 14 16
M  V30 16 2 16 17
M  V30 17 1 10 18
M  V30 18 2 18 19
M  V30 19 1 19 20
M  V30 20 2 20 21
M  V30 21 1 21 22
M  V30 22 2 22 23
M  V30 23 1 23 24
M  V30 24 1 24 25
M  V30 25 2 25 26
M  V30 26 1 26 27
M  V30 27 1 27 28
M  V30 28 1 23 29
M  V30 29 2 29 30
M  V30 30 1 30 31
M  V30 31 2 31 32
M  V30 32 1 31 33
M  V30 33 1 6 34
M  V30 34 2 34 35
M  V30 35 1 35 3
M  V30 36 1 17 11
M  V30 37 1 33 18
M  V30 38 1 30 20
M  V30 39 2 28 24
M  V30 40 1 1 36
M  V30 41 1 1 37
M  V30 42 1 2 38
M  V30 43 1 2 39
M  V30 44 1 4 40
M  V30 45 1 5 41
M  V30 46 1 9 42
M  V30 47 1 10 43
M  V30 48 1 12 44
M  V30 49 1 13 45
M  V30 50 1 16 46
M  V30 51 1 17 47
M  V30 52 1 21 48
M  V30 53 1 22 49
M  V30 54 1 25 50
M  V30 55 1 27 51
M  V30 56 1 28 52
M  V30 57 1 29 53
M  V30 58 1 33 54
M  V30 59 1 34 55
M  V30 60 1 35 56
M  V30 END BOND
M  V30 END CTAB
M  END
>  <Dataset>  (512) 
ChEMBL_Kinases

>  <Ligand_Instance>  (512) 
nan

>  <PDB_ID>  (512) 
nan

>  <Standardized_SMILES>  (512) 
NCc1ccc(C(=O)NC(c2ccc(Cl)cc2)c2nc3ccc(-c4cn[nH]c4)cc3c(=O)[nH]2)cc1

>  <Name>  (512) 
nan

>  <Pocket>  (512) 
nan

>  <ATP_Site>  (512) 
nan

>  <Peripheral>  (512) 
nan

>  <Num_H_Atoms_ProtBoundConf>  (512) 
nan

>  <Num_Resolved_Atoms>  (512) 
nan

>  <Num_Not_Resolved_Atoms>  (512) 
nan

$$$$
CHEMBL4517839
     RDKit          3D

  0  0  0  0  0  0  0  0  0  0999 V3000
M  V30 BEGIN CTAB
M  V30 COUNTS 40 43 0 0 0
M  V30 BEGIN ATOM
M  V30 1 N 1.418119 -6.025624 0.523095 0
M  V30 2 C 1.871783 -4.895615 -0.249207 0
M  V30 3 C 1.255889 -3.614545 0.122866 0
M  V30 4 C 0.080030 -3.164184 -0.478157 0
M  V30 5 C -0.483604 -1.958185 -0.115576 0
M  V30 6 C 0.184831 -1.227542 0.874486 0
M  V30 7 N -0.376699 0.014975 1.279076 0
M  V30 8 C -0.105618 1.207805 0.740512 0
M  V30 9 C 0.758218 1.642255 -0.331072 0
M  V30 10 C 1.574284 0.866585 -1.116276 0
M  V30 11 C 2.374266 1.353289 -2.124817 0
M  V30 12 C 2.373351 2.704551 -2.382528 0
M  V30 13 N 1.594829 3.478937 -1.640035 0
M  V30 14 C 0.804286 2.986144 -0.641132 0
M  V30 15 N 0.047565 3.985080 0.033453 0
M  V30 16 N -0.861523 2.069993 1.440315 0
M  V30 17 C -1.571702 1.419512 2.377438 0
M  V30 18 C -2.466824 1.895169 3.310544 0
M  V30 19 C -3.059342 0.963153 4.166958 0
M  V30 20 C -2.748173 -0.376345 4.067409 0
M  V30 21 N -1.854852 -0.786570 3.123831 0
M  V30 22 C -1.266994 0.083473 2.284618 0
M  V30 23 C 1.366769 -1.627223 1.513457 0
M  V30 24 C 1.864302 -2.844490 1.093042 0
M  V30 25 H 1.903631 -6.030515 1.470162 0
M  V30 26 H 0.392346 -6.083231 0.641906 0
M  V30 27 H 1.700262 -5.145578 -1.318515 0
M  V30 28 H 2.966820 -4.833691 -0.129113 0
M  V30 29 H -0.416781 -3.747240 -1.240322 0
M  V30 30 H -1.389485 -1.534163 -0.527966 0
M  V30 31 H 1.601147 -0.182991 -0.946009 0
M  V30 32 H 2.991796 0.679978 -2.702451 0
M  V30 33 H 2.992251 3.104223 -3.167208 0
M  V30 34 H -0.855572 4.506541 0.031199 0
M  V30 35 H 0.694922 4.269530 0.827351 0
M  V30 36 H -2.718769 2.950917 3.396663 0
M  V30 37 H -3.772449 1.290437 4.920227 0
M  V30 38 H -3.233695 -1.063972 4.754600 0
M  V30 39 H 1.795824 -0.990426 2.259236 0
M  V30 40 H 2.778041 -3.188862 1.563770 0
M  V30 END ATOM
M  V30 BEGIN BOND
M  V30 1 1 1 2
M  V30 2 1 2 3
M  V30 3 2 3 4
M  V30 4 1 4 5
M  V30 5 2 5 6
M  V30 6 1 6 7
M  V30 7 1 7 8
M  V30 8 1 8 9
M  V30 9 2 9 10
M  V30 10 1 10 11
M  V30 11 2 11 12
M  V30 12 1 12 13
M  V30 13 2 13 14
M  V30 14 1 14 15
M  V30 15 2 8 16
M  V30 16 1 16 17
M  V30 17 2 17 18
M  V30 18 1 18 19
M  V30 19 2 19 20
M  V30 20 1 20 21
M  V30 21 2 21 22
M  V30 22 1 6 23
M  V30 23 2 23 24
M  V30 24 1 24 3
M  V30 25 1 22 7
M  V30 26 1 14 9
M  V30 27 1 22 17
M  V30 28 1 1 25
M  V30 29 1 1 26
M  V30 30 1 2 27
M  V30 31 1 2 28
M  V30 32 1 4 29
M  V30 33 1 5 30
M  V30 34 1 10 31
M  V30 35 1 11 32
M  V30 36 1 12 33
M  V30 37 1 15 34
M  V30 38 1 15 35
M  V30 39 1 18 36
M  V30 40 1 19 37
M  V30 41 1 20 38
M  V30 42 1 23 39
M  V30 43 1 24 40
M  V30 END BOND
M  V30 END CTAB
M  END
>  <Dataset>  (513) 
ChEMBL_Kinases

>  <Ligand_Instance>  (513) 
nan

>  <PDB_ID>  (513) 
nan

>  <Standardized_SMILES>  (513) 
NCc1ccc(-n2c(-c3cccnc3N)nc3cccnc32)cc1

>  <Name>  (513) 
nan

>  <Pocket>  (513) 
nan

>  <ATP_Site>  (513) 
nan

>  <Peripheral>  (513) 
nan

>  <Num_H_Atoms_ProtBoundConf>  (513) 
nan

>  <Num_Resolved_Atoms>  (513) 
nan

>  <Num_Not_Resolved_Atoms>  (513) 
nan

$$$$
CHEMBL2333887
     RDKit          3D

  0  0  0  0  0  0  0  0  0  0999 V3000
M  V30 BEGIN CTAB
M  V30 COUNTS 53 57 0 0 0
M  V30 BEGIN ATOM
M  V30 1 C -0.804447 -0.261025 6.492151 0
M  V30 2 O -0.166053 -1.302544 5.767111 0
M  V30 3 C 0.540294 -0.985255 4.615392 0
M  V30 4 C 0.632239 0.335211 4.161380 0
M  V30 5 C 1.350166 0.605320 3.002904 0
M  V30 6 C 1.978685 -0.390199 2.281560 0
M  V30 7 C 2.731840 -0.095365 1.061868 0 CFG=2
M  V30 8 C 3.836103 0.934882 1.264214 0
M  V30 9 N 4.179044 1.329528 -0.090661 0
M  V30 10 C 5.205461 0.416581 -0.559425 0
M  V30 11 C 2.954615 1.187975 -0.871461 0
M  V30 12 C 1.900012 0.722762 0.064824 0 CFG=1
M  V30 13 C 0.803666 -0.054075 -0.503304 0
M  V30 14 N -0.460835 0.375727 -0.212428 0
M  V30 15 C -1.543959 -0.264779 -0.682800 0
M  V30 16 C -2.795334 0.223251 -0.350131 0
M  V30 17 C -3.887887 -0.453197 -0.846204 0
M  V30 18 C -3.704765 -1.565290 -1.637315 0
M  V30 19 C -4.923061 -2.209933 -2.111946 0
M  V30 20 C -6.137975 -1.622760 -2.412953 0
M  V30 21 N -7.019231 -2.571046 -2.823686 0
M  V30 22 N -6.396118 -3.745097 -2.791505 0
M  V30 23 C -5.116932 -3.568046 -2.363223 0
M  V30 24 C -2.441848 -2.024445 -1.949233 0
M  V30 25 C -1.313245 -1.386164 -1.479868 0
M  V30 26 C -0.033863 -1.764670 -1.733969 0
M  V30 27 O 0.104214 -2.799586 -2.470294 0
M  V30 28 N 1.064033 -1.129011 -1.266811 0
M  V30 29 C 1.897315 -1.696240 2.715985 0
M  V30 30 C 1.173890 -1.966855 3.882925 0
M  V30 31 H -0.038688 0.356416 7.001177 0
M  V30 32 H -1.385573 0.414881 5.828063 0
M  V30 33 H -1.457866 -0.694037 7.286270 0
M  V30 34 H 0.155684 1.140525 4.695860 0
M  V30 35 H 1.391680 1.632560 2.695205 0
M  V30 36 H 3.179689 -0.993220 0.575222 0
M  V30 37 H 3.337155 1.810570 1.728105 0
M  V30 38 H 4.692352 0.539396 1.819712 0
M  V30 39 H 5.745999 0.000386 0.319945 0
M  V30 40 H 4.777854 -0.442994 -1.105632 0
M  V30 41 H 5.965312 0.977481 -1.153839 0
M  V30 42 H 2.703082 2.222163 -1.249088 0
M  V30 43 H 3.180000 0.502648 -1.694761 0
M  V30 44 H 1.533589 1.591261 0.657869 0
M  V30 45 H -2.866814 1.111768 0.282677 0
M  V30 46 H -4.876285 -0.062157 -0.579285 0
M  V30 47 H -6.301180 -0.557785 -2.315142 0
M  V30 48 H -6.664646 -4.727591 -3.013912 0
M  V30 49 H -4.308251 -4.268942 -2.206017 0
M  V30 50 H -2.320360 -2.888539 -2.564213 0
M  V30 51 H 2.035615 -1.439359 -1.476098 0
M  V30 52 H 2.379285 -2.501500 2.172329 0
M  V30 53 H 1.122411 -3.013565 4.210059 0
M  V30 END ATOM
M  V30 BEGIN BOND
M  V30 1 1 1 2
M  V30 2 1 2 3
M  V30 3 2 3 4
M  V30 4 1 4 5
M  V30 5 2 5 6
M  V30 6 1 6 7
M  V30 7 1 7 8
M  V30 8 1 8 9
M  V30 9 1 9 10
M  V30 10 1 9 11
M  V30 11 1 11 12
M  V30 12 1 12 13
M  V30 13 2 13 14
M  V30 14 1 14 15
M  V30 15 2 15 16
M  V30 16 1 16 17
M  V30 17 2 17 18
M  V30 18 1 18 19
M  V30 19 1 19 20
M  V30 20 2 20 21
M  V30 21 1 21 22
M  V30 22 1 22 23
M  V30 23 1 18 24
M  V30 24 2 24 25
M  V30 25 1 25 26
M  V30 26 2 26 27
M  V30 27 1 26 28
M  V30 28 1 6 29
M  V30 29 2 29 30
M  V30 30 1 30 3
M  V30 31 1 12 7
M  V30 32 1 28 13
M  V30 33 1 25 15
M  V30 34 2 23 19
M  V30 35 1 1 31
M  V30 36 1 1 32
M  V30 37 1 1 33
M  V30 38 1 4 34
M  V30 39 1 5 35
M  V30 40 1 7 36 CFG=3
M  V30 41 1 8 37
M  V30 42 1 8 38
M  V30 43 1 10 39
M  V30 44 1 10 40
M  V30 45 1 10 41
M  V30 46 1 11 42
M  V30 47 1 11 43
M  V30 48 1 12 44 CFG=1
M  V30 49 1 16 45
M  V30 50 1 17 46
M  V30 51 1 20 47
M  V30 52 1 22 48
M  V30 53 1 23 49
M  V30 54 1 24 50
M  V30 55 1 28 51
M  V30 56 1 29 52
M  V30 57 1 30 53
M  V30 END BOND
M  V30 END CTAB
M  END
>  <Dataset>  (514) 
ChEMBL_Kinases

>  <Ligand_Instance>  (514) 
nan

>  <PDB_ID>  (514) 
nan

>  <Standardized_SMILES>  (514) 
COc1ccc([C@@H]2CN(C)C[C@H]2c2nc3ccc(-c4cn[nH]c4)cc3c(=O)[nH]2)cc1

>  <Name>  (514) 
nan

>  <Pocket>  (514) 
nan

>  <ATP_Site>  (514) 
nan

>  <Peripheral>  (514) 
nan

>  <Num_H_Atoms_ProtBoundConf>  (514) 
nan

>  <Num_Resolved_Atoms>  (514) 
nan

>  <Num_Not_Resolved_Atoms>  (514) 
nan

$$$$
CHEMBL4517424
     RDKit          3D

  0  0  0  0  0  0  0  0  0  0999 V3000
M  V30 BEGIN CTAB
M  V30 COUNTS 41 43 0 0 0
M  V30 BEGIN ATOM
M  V30 1 C 1.318110 -4.437205 3.562225 0
M  V30 2 O 0.075920 -4.146697 2.944823 0
M  V30 3 C -0.051605 -3.046601 2.073902 0
M  V30 4 C 1.083581 -2.291835 1.868348 0
M  V30 5 C 0.937531 -1.220132 1.012914 0
M  V30 6 N 2.077336 -0.410179 0.755764 0
M  V30 7 C 2.319189 0.795655 0.043914 0
M  V30 8 C 3.197435 0.809191 -1.046687 0
M  V30 9 C 3.492989 1.930241 -1.793438 0
M  V30 10 N 2.881087 3.067661 -1.423476 0
M  V30 11 C 2.033074 3.156246 -0.404409 0
M  V30 12 C 1.423335 4.348605 -0.049029 0
M  V30 13 C 0.548851 4.418961 1.016177 0
M  V30 14 C 0.278617 3.285839 1.736801 0
M  V30 15 I -1.071191 3.473372 3.354867 0
M  V30 16 C 0.890776 2.108805 1.373014 0
M  V30 17 C 1.755628 2.020448 0.325156 0
M  V30 18 C -0.289553 -0.973909 0.433743 0
M  V30 19 C -1.416201 -1.750548 0.658536 0
M  V30 20 O -2.631543 -1.465527 0.053854 0
M  V30 21 C -2.669868 -0.341645 -0.806407 0
M  V30 22 C -1.292172 -2.827629 1.510973 0
M  V30 23 O -2.356382 -3.666653 1.802854 0
M  V30 24 C -2.660666 -4.823404 1.056154 0
M  V30 25 H 1.716111 -3.598696 4.169688 0
M  V30 26 H 1.131033 -5.269118 4.276473 0
M  V30 27 H 2.020781 -4.804682 2.810429 0
M  V30 28 H 2.013094 -2.547617 2.359326 0
M  V30 29 H 3.014544 -0.667673 1.132271 0
M  V30 30 H 3.681251 -0.130931 -1.325209 0
M  V30 31 H 4.187609 1.853027 -2.626235 0
M  V30 32 H 1.689832 5.206746 -0.671642 0
M  V30 33 H 0.130960 5.416955 1.198315 0
M  V30 34 H 0.643947 1.250208 1.980383 0
M  V30 35 H -0.393872 -0.115755 -0.247191 0
M  V30 36 H -1.882163 -0.507415 -1.586270 0
M  V30 37 H -2.340732 0.547592 -0.220439 0
M  V30 38 H -3.669858 -0.202131 -1.261970 0
M  V30 39 H -3.503746 -4.655886 0.334290 0
M  V30 40 H -1.784576 -5.204420 0.470186 0
M  V30 41 H -2.975657 -5.679311 1.702100 0
M  V30 END ATOM
M  V30 BEGIN BOND
M  V30 1 1 1 2
M  V30 2 1 2 3
M  V30 3 2 3 4
M  V30 4 1 4 5
M  V30 5 1 5 6
M  V30 6 1 6 7
M  V30 7 2 7 8
M  V30 8 1 8 9
M  V30 9 2 9 10
M  V30 10 1 10 11
M  V30 11 2 11 12
M  V30 12 1 12 13
M  V30 13 2 13 14
M  V30 14 1 14 15
M  V30 15 1 14 16
M  V30 16 2 16 17
M  V30 17 2 5 18
M  V30 18 1 18 19
M  V30 19 1 19 20
M  V30 20 1 20 21
M  V30 21 2 19 22
M  V30 22 1 22 23
M  V30 23 1 23 24
M  V30 24 1 22 3
M  V30 25 1 17 7
M  V30 26 1 17 11
M  V30 27 1 1 25
M  V30 28 1 1 26
M  V30 29 1 1 27
M  V30 30 1 4 28
M  V30 31 1 6 29
M  V30 32 1 8 30
M  V30 33 1 9 31
M  V30 34 1 12 32
M  V30 35 1 13 33
M  V30 36 1 16 34
M  V30 37 1 18 35
M  V30 38 1 21 36
M  V30 39 1 21 37
M  V30 40 1 21 38
M  V30 41 1 24 39
M  V30 42 1 24 40
M  V30 43 1 24 41
M  V30 END BOND
M  V30 END CTAB
M  END
>  <Dataset>  (515) 
ChEMBL_Kinases

>  <Ligand_Instance>  (515) 
nan

>  <PDB_ID>  (515) 
nan

>  <Standardized_SMILES>  (515) 
COc1cc(Nc2ccnc3ccc(I)cc23)cc(OC)c1OC

>  <Name>  (515) 
nan

>  <Pocket>  (515) 
nan

>  <ATP_Site>  (515) 
nan

>  <Peripheral>  (515) 
nan

>  <Num_H_Atoms_ProtBoundConf>  (515) 
nan

>  <Num_Resolved_Atoms>  (515) 
nan

>  <Num_Not_Resolved_Atoms>  (515) 
nan

$$$$
CHEMBL3699292
     RDKit          3D

  0  0  0  0  0  0  0  0  0  0999 V3000
M  V30 BEGIN CTAB
M  V30 COUNTS 63 67 0 0 0
M  V30 BEGIN ATOM
M  V30 1 C 4.559116 -0.901045 1.368058 0
M  V30 2 C 5.811097 -0.078853 1.170913 0
M  V30 3 N 5.757840 0.508327 -0.147963 0
M  V30 4 C 4.655435 1.389455 -0.423819 0
M  V30 5 N 3.708482 1.668285 0.489122 0
M  V30 6 C 2.673358 2.484609 0.272060 0
M  V30 7 N 1.845797 2.569851 1.409166 0
M  V30 8 C 0.585180 1.907988 1.484350 0
M  V30 9 C -0.005213 1.284670 0.385159 0
M  V30 10 C -1.228024 0.641437 0.448428 0
M  V30 11 C -1.901994 0.601478 1.620729 0
M  V30 12 C -1.333962 1.215461 2.731221 0
M  V30 13 C -0.109191 1.863926 2.682233 0
M  V30 14 C -2.253361 0.999360 3.736538 0
M  V30 15 C -2.163183 1.427853 5.107526 0
M  V30 16 N -2.093133 1.780797 6.220486 0
M  V30 17 N -3.267523 0.315562 3.237199 0
M  V30 18 N -3.086409 0.053989 1.940895 0
M  V30 19 C -4.070574 -0.649709 1.230918 0
M  V30 20 C -3.897658 -1.216496 -0.075162 0
M  V30 21 C -2.951427 -2.353935 -0.142732 0
M  V30 22 N -3.373056 -3.390411 0.766482 0
M  V30 23 C -3.502545 -4.692126 0.167330 0
M  V30 24 C -2.202837 -5.329927 -0.252292 0 CFG=1
M  V30 25 C -2.570874 -6.635861 -0.969558 0
M  V30 26 O -1.533078 -4.551563 -1.188582 0
M  V30 27 C -4.571761 -3.114550 1.491381 0
M  V30 28 C -4.610815 -1.760295 2.127638 0
M  V30 29 N 2.578866 3.067809 -0.956555 0
M  V30 30 N 3.475913 2.829605 -1.885088 0
M  V30 31 C 3.585108 3.276562 -3.144904 0
M  V30 32 C 2.707511 4.176028 -3.835760 0
M  V30 33 N 1.987149 4.898630 -4.396887 0
M  V30 34 C 4.713670 2.721894 -3.713718 0
M  V30 35 N 5.275257 1.928817 -2.753182 0
M  V30 36 C 4.512941 2.004964 -1.651035 0
M  V30 37 H 4.862927 -1.959106 1.479063 0
M  V30 38 H 3.866111 -0.743343 0.526290 0
M  V30 39 H 4.072872 -0.577968 2.323424 0
M  V30 40 H 5.867729 0.726734 1.948026 0
M  V30 41 H 6.701991 -0.714113 1.312771 0
M  V30 42 H 6.444827 0.351712 -0.916599 0
M  V30 43 H 2.154245 3.128174 2.226848 0
M  V30 44 H 0.533954 1.322344 -0.533100 0
M  V30 45 H -1.643047 0.183750 -0.408947 0
M  V30 46 H 0.289108 2.328989 3.582565 0
M  V30 47 H -4.941514 0.107791 1.135463 0
M  V30 48 H -3.848523 -0.524877 -0.948034 0
M  V30 49 H -4.915047 -1.683025 -0.322957 0
M  V30 50 H -1.901080 -2.142829 0.112731 0
M  V30 51 H -2.915091 -2.720271 -1.200776 0
M  V30 52 H -4.143666 -4.585320 -0.732221 0
M  V30 53 H -4.019396 -5.329404 0.930305 0
M  V30 54 H -1.577566 -5.647800 0.594526 0
M  V30 55 H -1.776198 -6.802739 -1.728628 0
M  V30 56 H -3.507844 -6.480424 -1.567208 0
M  V30 57 H -2.613503 -7.496493 -0.289173 0
M  V30 58 H -1.717864 -4.856419 -2.092876 0
M  V30 59 H -4.613043 -3.855194 2.325210 0
M  V30 60 H -5.518448 -3.337032 0.923442 0
M  V30 61 H -5.636639 -1.567861 2.423856 0
M  V30 62 H -4.025499 -1.825014 3.079120 0
M  V30 63 H 5.158637 2.824587 -4.713423 0
M  V30 END ATOM
M  V30 BEGIN BOND
M  V30 1 1 1 2
M  V30 2 1 2 3
M  V30 3 1 3 4
M  V30 4 2 4 5
M  V30 5 1 5 6
M  V30 6 1 6 7
M  V30 7 1 7 8
M  V30 8 2 8 9
M  V30 9 1 9 10
M  V30 10 2 10 11
M  V30 11 1 11 12
M  V30 12 2 12 13
M  V30 13 1 12 14
M  V30 14 1 14 15
M  V30 15 3 15 16
M  V30 16 2 14 17
M  V30 17 1 17 18
M  V30 18 1 18 19
M  V30 19 1 19 20
M  V30 20 1 20 21
M  V30 21 1 21 22
M  V30 22 1 22 23
M  V30 23 1 23 24
M  V30 24 1 24 25
M  V30 25 1 24 26
M  V30 26 1 22 27
M  V30 27 1 27 28
M  V30 28 2 6 29
M  V30 29 1 29 30
M  V30 30 1 30 31
M  V30 31 1 31 32
M  V30 32 3 32 33
M  V30 33 2 31 34
M  V30 34 1 34 35
M  V30 35 2 35 36
M  V30 36 1 36 4
M  V30 37 1 13 8
M  V30 38 1 28 19
M  V30 39 1 36 30
M  V30 40 1 18 11
M  V30 41 1 1 37
M  V30 42 1 1 38
M  V30 43 1 1 39
M  V30 44 1 2 40
M  V30 45 1 2 41
M  V30 46 1 3 42
M  V30 47 1 7 43
M  V30 48 1 9 44
M  V30 49 1 10 45
M  V30 50 1 13 46
M  V30 51 1 19 47
M  V30 52 1 20 48
M  V30 53 1 20 49
M  V30 54 1 21 50
M  V30 55 1 21 51
M  V30 56 1 23 52
M  V30 57 1 23 53
M  V30 58 1 24 54 CFG=1
M  V30 59 1 25 55
M  V30 60 1 25 56
M  V30 61 1 25 57
M  V30 62 1 26 58
M  V30 63 1 27 59
M  V30 64 1 27 60
M  V30 65 1 28 61
M  V30 66 1 28 62
M  V30 67 1 34 63
M  V30 END BOND
M  V30 END CTAB
M  END
>  <Dataset>  (516) 
ChEMBL_Kinases

>  <Ligand_Instance>  (516) 
nan

>  <PDB_ID>  (516) 
nan

>  <Standardized_SMILES>  (516) 
CCNc1nc(Nc2ccc3c(c2)c(C#N)nn3C2CCN(C[C@@H](C)O)CC2)nn2c(C#N)cnc12

>  <Name>  (516) 
nan

>  <Pocket>  (516) 
nan

>  <ATP_Site>  (516) 
nan

>  <Peripheral>  (516) 
nan

>  <Num_H_Atoms_ProtBoundConf>  (516) 
nan

>  <Num_Resolved_Atoms>  (516) 
nan

>  <Num_Not_Resolved_Atoms>  (516) 
nan

$$$$
CHEMBL2333894
     RDKit          3D

  0  0  0  0  0  0  0  0  0  0999 V3000
M  V30 BEGIN CTAB
M  V30 COUNTS 39 42 0 0 0
M  V30 BEGIN ATOM
M  V30 1 N -1.286389 -3.557679 3.069424 0
M  V30 2 C -0.523724 -3.229075 1.885795 0
M  V30 3 C 0.801557 -3.894890 1.833543 0
M  V30 4 C 1.286101 -4.510190 0.673116 0
M  V30 5 C 2.516737 -5.124748 0.636089 0
M  V30 6 C 3.311575 -5.146905 1.762483 0
M  V30 7 C 2.837936 -4.541590 2.908572 0
M  V30 8 Cl 3.872255 -4.584353 4.330490 0
M  V30 9 C 1.590669 -3.910266 2.972206 0
M  V30 10 C -0.442396 -1.760203 1.632499 0
M  V30 11 N -0.639645 -1.283418 0.387613 0
M  V30 12 C -0.583325 0.024714 0.078723 0
M  V30 13 C -0.805886 0.369186 -1.237186 0
M  V30 14 C -0.758004 1.699748 -1.600341 0
M  V30 15 C -0.483184 2.640288 -0.603821 0
M  V30 16 C -0.441744 4.035190 -1.030489 0
M  V30 17 C 0.292784 5.130376 -0.569985 0
M  V30 18 N -0.016148 6.222731 -1.290977 0
M  V30 19 N -0.917175 5.894733 -2.200679 0
M  V30 20 C -1.193804 4.591764 -2.071707 0
M  V30 21 C -0.260917 2.281998 0.716833 0
M  V30 22 C -0.311496 0.948491 1.067258 0
M  V30 23 C -0.107656 0.469651 2.347438 0
M  V30 24 O 0.140621 1.303974 3.254826 0
M  V30 25 N -0.176769 -0.865165 2.602061 0
M  V30 26 H -0.735817 -3.588870 3.937461 0
M  V30 27 H -1.930398 -4.361476 2.925575 0
M  V30 28 H -1.101184 -3.690216 1.032495 0
M  V30 29 H 0.585592 -4.439994 -0.164145 0
M  V30 30 H 2.808573 -5.576886 -0.313436 0
M  V30 31 H 4.269010 -5.624549 1.735140 0
M  V30 32 H 1.299916 -3.457004 3.926354 0
M  V30 33 H -1.011519 -0.380580 -1.962681 0
M  V30 34 H -0.930649 1.994675 -2.634351 0
M  V30 35 H 0.988995 4.993364 0.265448 0
M  V30 36 H -1.390823 6.480449 -2.936151 0
M  V30 37 H -1.895683 3.998274 -2.665650 0
M  V30 38 H -0.052926 3.003858 1.466506 0
M  V30 39 H -0.018096 -1.196211 3.579766 0
M  V30 END ATOM
M  V30 BEGIN BOND
M  V30 1 1 1 2
M  V30 2 1 2 3
M  V30 3 2 3 4
M  V30 4 1 4 5
M  V30 5 2 5 6
M  V30 6 1 6 7
M  V30 7 1 7 8
M  V30 8 2 7 9
M  V30 9 1 2 10
M  V30 10 2 10 11
M  V30 11 1 11 12
M  V30 12 2 12 13
M  V30 13 1 13 14
M  V30 14 2 14 15
M  V30 15 1 15 16
M  V30 16 1 16 17
M  V30 17 2 17 18
M  V30 18 1 18 19
M  V30 19 1 19 20
M  V30 20 1 15 21
M  V30 21 2 21 22
M  V30 22 1 22 23
M  V30 23 2 23 24
M  V30 24 1 23 25
M  V30 25 1 9 3
M  V30 26 1 25 10
M  V30 27 1 22 12
M  V30 28 2 20 16
M  V30 29 1 1 26
M  V30 30 1 1 27
M  V30 31 1 2 28
M  V30 32 1 4 29
M  V30 33 1 5 30
M  V30 34 1 6 31
M  V30 35 1 9 32
M  V30 36 1 13 33
M  V30 37 1 14 34
M  V30 38 1 17 35
M  V30 39 1 19 36
M  V30 40 1 20 37
M  V30 41 1 21 38
M  V30 42 1 25 39
M  V30 END BOND
M  V30 END CTAB
M  END
>  <Dataset>  (517) 
ChEMBL_Kinases

>  <Ligand_Instance>  (517) 
nan

>  <PDB_ID>  (517) 
nan

>  <Standardized_SMILES>  (517) 
NC(c1cccc(Cl)c1)c1nc2ccc(-c3cn[nH]c3)cc2c(=O)[nH]1

>  <Name>  (517) 
nan

>  <Pocket>  (517) 
nan

>  <ATP_Site>  (517) 
nan

>  <Peripheral>  (517) 
nan

>  <Num_H_Atoms_ProtBoundConf>  (517) 
nan

>  <Num_Resolved_Atoms>  (517) 
nan

>  <Num_Not_Resolved_Atoms>  (517) 
nan

$$$$
CHEMBL2333896
     RDKit          3D

  0  0  0  0  0  0  0  0  0  0999 V3000
M  V30 BEGIN CTAB
M  V30 COUNTS 43 46 0 0 0
M  V30 BEGIN ATOM
M  V30 1 C 2.400351 -3.651581 0.523941 0
M  V30 2 O 1.676723 -2.502837 0.916609 0
M  V30 3 C 1.882158 -1.246955 0.368007 0
M  V30 4 C 2.771992 -0.859930 -0.612608 0
M  V30 5 C 2.822793 0.455467 -1.026230 0
M  V30 6 C 3.815502 0.737512 -2.079081 0
M  V30 7 C 5.014178 0.068021 -2.209533 0
M  V30 8 N 5.639789 0.614456 -3.289548 0
M  V30 9 N 4.865269 1.567083 -3.792604 0
M  V30 10 C 3.734180 1.684798 -3.088891 0
M  V30 11 C 2.006116 1.433901 -0.494991 0
M  V30 12 C 1.114693 1.047731 0.486851 0
M  V30 13 C 0.288294 2.038623 1.023442 0
M  V30 14 O 0.357327 3.221699 0.628589 0
M  V30 15 N -0.605430 1.709007 1.991168 0
M  V30 16 C -0.659691 0.420111 2.400840 0
M  V30 17 C -1.603155 -0.046675 3.454179 0
M  V30 18 N -0.808794 -0.903696 4.348219 0
M  V30 19 C -2.687192 -0.902277 2.849662 0
M  V30 20 C -3.105867 -0.967559 1.535561 0
M  V30 21 C -4.128751 -1.842096 1.236299 0
M  V30 22 C -4.734831 -2.634061 2.173680 0
M  V30 23 C -4.322021 -2.575524 3.493387 0
M  V30 24 Cl -5.120653 -3.603196 4.665091 0
M  V30 25 C -3.297542 -1.704839 3.814202 0
M  V30 26 N 0.139521 -0.527354 1.879007 0
M  V30 27 C 1.046214 -0.270333 0.918517 0
M  V30 28 H 2.838066 -3.560970 -0.472949 0
M  V30 29 H 3.217670 -3.895876 1.238819 0
M  V30 30 H 1.716016 -4.531164 0.486749 0
M  V30 31 H 3.383601 -1.667571 -0.989362 0
M  V30 32 H 5.426354 -0.728861 -1.614435 0
M  V30 33 H 5.146670 2.127040 -4.633060 0
M  V30 34 H 2.915251 2.374318 -3.262211 0
M  V30 35 H 2.111884 2.437016 -0.875746 0
M  V30 36 H -1.249263 2.414472 2.427421 0
M  V30 37 H -2.090376 0.778666 3.989721 0
M  V30 38 H -0.210593 -0.246969 4.917486 0
M  V30 39 H -0.162034 -1.436656 3.724514 0
M  V30 40 H -2.564057 -0.308007 0.894227 0
M  V30 41 H -4.423209 -1.856865 0.185197 0
M  V30 42 H -5.539628 -3.309670 1.890455 0
M  V30 43 H -3.042558 -1.727780 4.868199 0
M  V30 END ATOM
M  V30 BEGIN BOND
M  V30 1 1 1 2
M  V30 2 1 2 3
M  V30 3 2 3 4
M  V30 4 1 4 5
M  V30 5 1 5 6
M  V30 6 1 6 7
M  V30 7 2 7 8
M  V30 8 1 8 9
M  V30 9 1 9 10
M  V30 10 2 5 11
M  V30 11 1 11 12
M  V30 12 1 12 13
M  V30 13 2 13 14
M  V30 14 1 13 15
M  V30 15 1 15 16
M  V30 16 1 16 17
M  V30 17 1 17 18
M  V30 18 1 17 19
M  V30 19 2 19 20
M  V30 20 1 20 21
M  V30 21 2 21 22
M  V30 22 1 22 23
M  V30 23 1 23 24
M  V30 24 2 23 25
M  V30 25 2 16 26
M  V30 26 1 26 27
M  V30 27 1 27 3
M  V30 28 2 10 6
M  V30 29 2 27 12
M  V30 30 1 25 19
M  V30 31 1 1 28
M  V30 32 1 1 29
M  V30 33 1 1 30
M  V30 34 1 4 31
M  V30 35 1 7 32
M  V30 36 1 9 33
M  V30 37 1 10 34
M  V30 38 1 11 35
M  V30 39 1 15 36
M  V30 40 1 17 37
M  V30 41 1 18 38
M  V30 42 1 18 39
M  V30 43 1 20 40
M  V30 44 1 21 41
M  V30 45 1 22 42
M  V30 46 1 25 43
M  V30 END BOND
M  V30 END CTAB
M  END
>  <Dataset>  (518) 
ChEMBL_Kinases

>  <Ligand_Instance>  (518) 
nan

>  <PDB_ID>  (518) 
nan

>  <Standardized_SMILES>  (518) 
COc1cc(-c2cn[nH]c2)cc2c(=O)[nH]c(C(N)c3cccc(Cl)c3)nc12

>  <Name>  (518) 
nan

>  <Pocket>  (518) 
nan

>  <ATP_Site>  (518) 
nan

>  <Peripheral>  (518) 
nan

>  <Num_H_Atoms_ProtBoundConf>  (518) 
nan

>  <Num_Resolved_Atoms>  (518) 
nan

>  <Num_Not_Resolved_Atoms>  (518) 
nan

$$$$
CHEMBL4516224
     RDKit          3D

  0  0  0  0  0  0  0  0  0  0999 V3000
M  V30 BEGIN CTAB
M  V30 COUNTS 48 52 0 0 0
M  V30 BEGIN ATOM
M  V30 1 C 0.304420 -3.133363 -4.070212 0
M  V30 2 C 0.745596 -3.265036 -2.642504 0
M  V30 3 C 1.049773 -4.497721 -2.103072 0
M  V30 4 C 1.461790 -4.696192 -0.800053 0
M  V30 5 C 1.549121 -3.524320 -0.051650 0
M  V30 6 C 1.255167 -2.266209 -0.546895 0
M  V30 7 C 1.365572 -1.072149 0.284954 0
M  V30 8 N 2.145422 0.009613 0.176048 0
M  V30 9 C 1.945848 0.908688 1.160613 0
M  V30 10 C 2.777363 2.156997 1.131973 0
M  V30 11 N 2.158577 3.190226 0.346623 0
M  V30 12 C 0.957802 3.903260 0.571699 0
M  V30 13 C 0.156380 3.707457 1.677063 0
M  V30 14 C -1.010721 4.384866 1.938952 0
M  V30 15 C -1.442515 5.335561 1.055943 0
M  V30 16 C -0.673649 5.565724 -0.063163 0
M  V30 17 C 0.480084 4.871862 -0.288339 0
M  V30 18 F 1.184156 5.155257 -1.414692 0
M  V30 19 N 0.996169 0.345785 1.907025 0
M  V30 20 C 0.616315 -0.844268 1.420520 0
M  V30 21 C -0.412307 -1.668587 2.049760 0
M  V30 22 C -0.536156 -2.269090 3.227489 0
M  V30 23 C -1.656341 -2.979446 3.504638 0
M  V30 24 C -1.994598 -3.674806 4.645629 0
M  V30 25 N -3.142111 -4.332889 4.777000 0
M  V30 26 C -4.094818 -4.402136 3.837287 0
M  V30 27 C -3.841922 -3.734718 2.659814 0
M  V30 28 C -2.629040 -3.049072 2.542661 0
M  V30 29 S -1.927626 -2.064790 1.183472 0
M  V30 30 N 0.864543 -2.214224 -1.835219 0
M  V30 31 H -0.242564 -4.047573 -4.368103 0
M  V30 32 H 1.191084 -2.919205 -4.706150 0
M  V30 33 H -0.401843 -2.269355 -4.075486 0
M  V30 34 H 0.948506 -5.354208 -2.776170 0
M  V30 35 H 1.695982 -5.662452 -0.391725 0
M  V30 36 H 1.870807 -3.633529 0.983447 0
M  V30 37 H 2.809095 0.023211 -0.654695 0
M  V30 38 H 3.797235 1.953390 0.755705 0
M  V30 39 H 2.926750 2.538138 2.169944 0
M  V30 40 H 2.666123 3.476602 -0.546502 0
M  V30 41 H 0.418245 2.984556 2.431939 0
M  V30 42 H -1.613642 4.200015 2.822553 0
M  V30 43 H -2.353975 5.882109 1.235611 0
M  V30 44 H -0.994811 6.312596 -0.775492 0
M  V30 45 H 0.301461 -2.139241 3.901847 0
M  V30 46 H -1.395058 -3.769257 5.540599 0
M  V30 47 H -5.041686 -4.920162 3.891309 0
M  V30 48 H -4.489978 -3.669127 1.772731 0
M  V30 END ATOM
M  V30 BEGIN BOND
M  V30 1 1 1 2
M  V30 2 2 2 3
M  V30 3 1 3 4
M  V30 4 2 4 5
M  V30 5 1 5 6
M  V30 6 1 6 7
M  V30 7 1 7 8
M  V30 8 1 8 9
M  V30 9 1 9 10
M  V30 10 1 10 11
M  V30 11 1 11 12
M  V30 12 2 12 13
M  V30 13 1 13 14
M  V30 14 2 14 15
M  V30 15 1 15 16
M  V30 16 2 16 17
M  V30 17 1 17 18
M  V30 18 2 9 19
M  V30 19 1 19 20
M  V30 20 1 20 21
M  V30 21 2 21 22
M  V30 22 1 22 23
M  V30 23 2 23 24
M  V30 24 1 24 25
M  V30 25 2 25 26
M  V30 26 1 26 27
M  V30 27 2 27 28
M  V30 28 1 28 29
M  V30 29 2 6 30
M  V30 30 1 30 2
M  V30 31 2 20 7
M  V30 32 1 29 21
M  V30 33 1 17 12
M  V30 34 1 28 23
M  V30 35 1 1 31
M  V30 36 1 1 32
M  V30 37 1 1 33
M  V30 38 1 3 34
M  V30 39 1 4 35
M  V30 40 1 5 36
M  V30 41 1 8 37
M  V30 42 1 10 38
M  V30 43 1 10 39
M  V30 44 1 11 40
M  V30 45 1 13 41
M  V30 46 1 14 42
M  V30 47 1 15 43
M  V30 48 1 16 44
M  V30 49 1 22 45
M  V30 50 1 24 46
M  V30 51 1 26 47
M  V30 52 1 27 48
M  V30 END BOND
M  V30 END CTAB
M  END
>  <Dataset>  (519) 
ChEMBL_Kinases

>  <Ligand_Instance>  (519) 
nan

>  <PDB_ID>  (519) 
nan

>  <Standardized_SMILES>  (519) 
Cc1cccc(-c2[nH]c(CNc3ccccc3F)nc2-c2cc3cnccc3s2)n1

>  <Name>  (519) 
nan

>  <Pocket>  (519) 
nan

>  <ATP_Site>  (519) 
nan

>  <Peripheral>  (519) 
nan

>  <Num_H_Atoms_ProtBoundConf>  (519) 
nan

>  <Num_Resolved_Atoms>  (519) 
nan

>  <Num_Not_Resolved_Atoms>  (519) 
nan

$$$$
CHEMBL4516793
     RDKit          3D

  0  0  0  0  0  0  0  0  0  0999 V3000
M  V30 BEGIN CTAB
M  V30 COUNTS 64 70 0 0 0
M  V30 BEGIN ATOM
M  V30 1 C 4.073476 -0.378118 1.575424 0
M  V30 2 O 4.989764 0.598423 2.039816 0
M  V30 3 C 4.802988 1.927787 1.730056 0
M  V30 4 C 5.719060 2.845466 2.202153 0
M  V30 5 C 5.549515 4.175897 1.903246 0
M  V30 6 C 4.457346 4.584203 1.128678 0
M  V30 7 C 3.487805 3.711218 0.615585 0
M  V30 8 C 3.758162 2.408697 0.976478 0
M  V30 9 C 2.509666 4.459496 -0.127234 0 CFG=1
M  V30 10 C 1.946789 4.166069 -1.436893 0
M  V30 11 C 1.072110 4.337758 -0.187714 0 CFG=1
M  V30 12 C 0.213376 3.205890 0.104150 0
M  V30 13 C 0.391906 1.886146 -0.254380 0
M  V30 14 C -0.448413 0.836558 0.054421 0
M  V30 15 C -1.571990 1.082483 0.780059 0
M  V30 16 C -2.616852 0.325357 1.267885 0
M  V30 17 C -2.773021 -1.117168 1.089196 0
M  V30 18 C -4.003945 -1.630454 0.731145 0
M  V30 19 C -4.210159 -2.983970 0.548762 0
M  V30 20 C -3.143473 -3.840718 0.733353 0
M  V30 21 N -3.167069 -5.275623 0.588887 0
M  V30 22 C -2.006063 -6.153105 0.800080 0
M  V30 23 C -1.644526 -6.664543 -0.599623 0
M  V30 24 N -2.819225 -6.805781 -1.418689 0
M  V30 25 C -2.509232 -7.747433 -2.478031 0
M  V30 26 C -3.964616 -7.191236 -0.652631 0
M  V30 27 C -4.379677 -6.008062 0.208981 0
M  V30 28 N -1.941921 -3.347747 1.082094 0
M  V30 29 C -1.753540 -2.019562 1.257549 0
M  V30 30 N -3.444055 1.157309 1.925360 0
M  V30 31 N -2.995798 2.401284 1.890374 0
M  V30 32 C -1.852142 2.371166 1.193650 0
M  V30 33 C -0.968213 3.373865 0.849816 0
M  V30 34 C 3.036888 5.875870 0.004808 0
M  V30 35 O 2.464557 6.883182 -0.526553 0
M  V30 36 N 4.220627 5.926481 0.778553 0
M  V30 37 H 4.081575 -0.494350 0.475261 0
M  V30 38 H 3.053310 -0.023409 1.871099 0
M  V30 39 H 4.221232 -1.347905 2.097168 0
M  V30 40 H 6.549413 2.518938 2.793546 0
M  V30 41 H 6.294883 4.843519 2.298444 0
M  V30 42 H 3.097853 1.616830 0.652952 0
M  V30 43 H 1.866005 4.983568 -2.211207 0
M  V30 44 H 2.018276 3.185844 -1.927784 0
M  V30 45 H 0.503808 5.318724 -0.142973 0
M  V30 46 H 1.261439 1.649529 -0.833218 0
M  V30 47 H -0.235451 -0.162731 -0.263810 0
M  V30 48 H -4.871965 -0.995944 0.575212 0
M  V30 49 H -5.135358 -3.455922 0.271362 0
M  V30 50 H -1.153541 -5.557916 1.139498 0
M  V30 51 H -2.262784 -7.012917 1.449545 0
M  V30 52 H -1.066911 -7.617365 -0.515769 0
M  V30 53 H -0.957462 -5.939653 -1.073401 0
M  V30 54 H -2.082663 -8.689066 -2.111464 0
M  V30 55 H -1.831963 -7.296778 -3.232274 0
M  V30 56 H -3.459375 -7.946395 -3.055817 0
M  V30 57 H -4.810638 -7.461858 -1.289380 0
M  V30 58 H -3.663533 -8.058513 -0.022143 0
M  V30 59 H -4.910796 -6.371788 1.135170 0
M  V30 60 H -5.080287 -5.400976 -0.365421 0
M  V30 61 H -0.770782 -1.661785 1.538355 0
M  V30 62 H -3.450795 3.234664 2.323278 0
M  V30 63 H -1.210350 4.376919 1.186284 0
M  V30 64 H 4.737221 6.804273 0.992392 0
M  V30 END ATOM
M  V30 BEGIN BOND
M  V30 1 1 1 2
M  V30 2 1 2 3
M  V30 3 2 3 4
M  V30 4 1 4 5
M  V30 5 2 5 6
M  V30 6 1 6 7
M  V30 7 2 7 8
M  V30 8 1 7 9
M  V30 9 1 9 10 CFG=3
M  V30 10 1 10 11
M  V30 11 1 11 12
M  V30 12 2 12 13
M  V30 13 1 13 14
M  V30 14 2 14 15
M  V30 15 1 15 16
M  V30 16 1 16 17
M  V30 17 2 17 18
M  V30 18 1 18 19
M  V30 19 2 19 20
M  V30 20 1 20 21
M  V30 21 1 21 22
M  V30 22 1 22 23
M  V30 23 1 23 24
M  V30 24 1 24 25
M  V30 25 1 24 26
M  V30 26 1 26 27
M  V30 27 1 20 28
M  V30 28 2 28 29
M  V30 29 2 16 30
M  V30 30 1 30 31
M  V30 31 1 31 32
M  V30 32 2 32 33
M  V30 33 1 9 34
M  V30 34 2 34 35
M  V30 35 1 34 36
M  V30 36 1 8 3
M  V30 37 1 11 9
M  V30 38 1 33 12
M  V30 39 1 36 6
M  V30 40 1 32 15
M  V30 41 1 29 17
M  V30 42 1 27 21
M  V30 43 1 1 37
M  V30 44 1 1 38
M  V30 45 1 1 39
M  V30 46 1 4 40
M  V30 47 1 5 41
M  V30 48 1 8 42
M  V30 49 1 10 43
M  V30 50 1 10 44
M  V30 51 1 11 45 CFG=3
M  V30 52 1 13 46
M  V30 53 1 14 47
M  V30 54 1 18 48
M  V30 55 1 19 49
M  V30 56 1 22 50
M  V30 57 1 22 51
M  V30 58 1 23 52
M  V30 59 1 23 53
M  V30 60 1 25 54
M  V30 61 1 25 55
M  V30 62 1 25 56
M  V30 63 1 26 57
M  V30 64 1 26 58
M  V30 65 1 27 59
M  V30 66 1 27 60
M  V30 67 1 29 61
M  V30 68 1 31 62
M  V30 69 1 33 63
M  V30 70 1 36 64
M  V30 END BOND
M  V30 END CTAB
M  END
>  <Dataset>  (520) 
ChEMBL_Kinases

>  <Ligand_Instance>  (520) 
nan

>  <PDB_ID>  (520) 
nan

>  <Standardized_SMILES>  (520) 
COc1ccc2c(c1)[C@]1(C[C@H]1c1ccc3c(-c4ccc(N5CCN(C)CC5)nc4)n[nH]c3c1)C(=O)N2

>  <Name>  (520) 
nan

>  <Pocket>  (520) 
nan

>  <ATP_Site>  (520) 
nan

>  <Peripheral>  (520) 
nan

>  <Num_H_Atoms_ProtBoundConf>  (520) 
nan

>  <Num_Resolved_Atoms>  (520) 
nan

>  <Num_Not_Resolved_Atoms>  (520) 
nan

$$$$
CHEMBL4516770
     RDKit          3D

  0  0  0  0  0  0  0  0  0  0999 V3000
M  V30 BEGIN CTAB
M  V30 COUNTS 81 85 0 0 0
M  V30 BEGIN ATOM
M  V30 1 C -0.252948 -4.815342 1.074422 0
M  V30 2 C 1.230225 -4.992586 1.372345 0
M  V30 3 C 1.548646 -6.403913 0.851095 0
M  V30 4 C 1.995022 -3.980702 0.621430 0
M  V30 5 C 3.019306 -3.211788 1.353932 0
M  V30 6 N 2.726229 -1.767871 1.313526 0
M  V30 7 C 3.448179 -0.665076 0.799838 0
M  V30 8 O 4.549824 -0.959699 0.277851 0
M  V30 9 C 2.838695 0.653066 0.934440 0
M  V30 10 C 1.649720 0.997564 1.539847 0
M  V30 11 C 1.230835 2.309335 1.551588 0
M  V30 12 C 2.014492 3.270317 0.951265 0
M  V30 13 N 1.541036 4.603028 0.970152 0
M  V30 14 C 0.345257 4.995368 1.622523 0
M  V30 15 N 0.156035 5.798197 2.712281 0
M  V30 16 C -1.113352 6.011626 3.156595 0
M  V30 17 C -2.142709 5.403713 2.480600 0
M  V30 18 N -3.407913 5.700791 3.030966 0 CHG=1 VAL=4
M  V30 19 O -4.602100 5.861490 2.738438 0
M  V30 20 O -3.577855 5.933604 4.390243 0 CHG=-1 VAL=1
M  V30 21 C -1.993666 4.588299 1.380159 0
M  V30 22 N -3.113639 3.999384 0.742360 0
M  V30 23 C -3.113012 3.096658 -0.323689 0
M  V30 24 C -2.003429 2.499978 -0.872831 0
M  V30 25 C -1.995154 1.608356 -1.920640 0
M  V30 26 C -3.198157 1.263212 -2.492469 0
M  V30 27 C -3.400656 0.336908 -3.600105 0
M  V30 28 O -4.537105 0.058184 -4.112109 0
M  V30 29 N -2.257774 -0.301710 -4.150077 0
M  V30 30 C -2.025379 -1.236214 -5.193978 0
M  V30 31 C -2.059388 -2.569467 -4.819308 0
M  V30 32 C -1.850810 -3.602567 -5.726252 0
M  V30 33 C -1.604882 -3.234811 -7.035052 0
M  V30 34 Cl -1.328162 -4.468587 -8.263227 0
M  V30 35 C -1.558945 -1.930138 -7.466380 0
M  V30 36 C -1.773115 -0.961120 -6.520825 0
M  V30 37 C -4.349824 1.828943 -1.985751 0
M  V30 38 C -4.290058 2.716209 -0.933711 0
M  V30 39 N -0.711420 4.440255 1.020380 0
M  V30 40 C 3.213315 2.991511 0.330277 0
M  V30 41 C 3.616222 1.650976 0.332388 0
M  V30 42 C 3.299285 -3.589195 2.758036 0
M  V30 43 C 2.081000 -4.059117 3.455520 0
M  V30 44 C 1.149326 -2.967441 3.930531 0
M  V30 45 C 2.580297 -4.730863 4.752224 0
M  V30 46 N 1.364889 -5.043907 2.761525 0
M  V30 47 O 1.186266 -6.221492 3.347947 0 RAD=2 VAL=1
M  V30 48 H -0.495401 -5.335311 0.131558 0
M  V30 49 H -0.398926 -3.720195 0.843897 0
M  V30 50 H -0.869853 -5.128929 1.922309 0
M  V30 51 H 2.446387 -6.774926 1.395637 0
M  V30 52 H 1.713551 -6.362579 -0.252931 0
M  V30 53 H 0.692823 -7.043113 1.135696 0
M  V30 54 H 2.493803 -4.480989 -0.259609 0
M  V30 55 H 1.307285 -3.246704 0.103798 0
M  V30 56 H 4.025812 -3.260326 0.826717 0
M  V30 57 H 1.796166 -1.741438 1.782491 0
M  V30 58 H 1.119553 0.163921 1.976483 0
M  V30 59 H 0.283022 2.504519 2.047614 0
M  V30 60 H 2.022479 5.411912 0.511250 0
M  V30 61 H -1.217656 6.648022 4.013800 0
M  V30 62 H -4.055769 4.279311 1.123802 0
M  V30 63 H -1.019489 2.709241 -0.486029 0
M  V30 64 H -1.123705 1.156300 -2.332157 0
M  V30 65 H -1.268120 -0.183573 -3.849247 0
M  V30 66 H -2.247290 -2.941656 -3.803858 0
M  V30 67 H -1.862956 -4.652077 -5.505926 0
M  V30 68 H -1.364116 -1.654489 -8.498482 0
M  V30 69 H -1.761611 0.111135 -6.740548 0
M  V30 70 H -5.340824 1.595884 -2.396451 0
M  V30 71 H -5.230183 3.141012 -0.563449 0
M  V30 72 H 3.790378 3.775198 -0.123085 0
M  V30 73 H 4.571496 1.503347 -0.174515 0
M  V30 74 H 3.758183 -2.696618 3.258806 0
M  V30 75 H 4.045800 -4.409597 2.782580 0
M  V30 76 H 0.287958 -2.906958 3.228250 0
M  V30 77 H 1.636228 -2.014024 4.152854 0
M  V30 78 H 0.667761 -3.270095 4.907657 0
M  V30 79 H 3.383303 -4.049379 5.137332 0
M  V30 80 H 1.766931 -4.783461 5.477989 0
M  V30 81 H 3.084814 -5.673667 4.518620 0
M  V30 END ATOM
M  V30 BEGIN BOND
M  V30 1 1 1 2
M  V30 2 1 2 3
M  V30 3 1 2 4
M  V30 4 1 4 5
M  V30 5 1 5 6
M  V30 6 1 6 7
M  V30 7 2 7 8
M  V30 8 1 7 9
M  V30 9 2 9 10
M  V30 10 1 10 11
M  V30 11 2 11 12
M  V30 12 1 12 13
M  V30 13 1 13 14
M  V30 14 2 14 15
M  V30 15 1 15 16
M  V30 16 2 16 17
M  V30 17 1 17 18
M  V30 18 2 18 19
M  V30 19 1 18 20
M  V30 20 1 17 21
M  V30 21 1 21 22
M  V30 22 1 22 23
M  V30 23 2 23 24
M  V30 24 1 24 25
M  V30 25 2 25 26
M  V30 26 1 26 27
M  V30 27 2 27 28
M  V30 28 1 27 29
M  V30 29 1 29 30
M  V30 30 2 30 31
M  V30 31 1 31 32
M  V30 32 2 32 33
M  V30 33 1 33 34
M  V30 34 1 33 35
M  V30 35 2 35 36
M  V30 36 1 26 37
M  V30 37 2 37 38
M  V30 38 2 21 39
M  V30 39 1 12 40
M  V30 40 2 40 41
M  V30 41 1 5 42
M  V30 42 1 42 43
M  V30 43 1 43 44
M  V30 44 1 43 45
M  V30 45 1 43 46
M  V30 46 1 46 47
M  V30 47 1 46 2
M  V30 48 1 41 9
M  V30 49 1 39 14
M  V30 50 1 38 23
M  V30 51 1 36 30
M  V30 52 1 1 48
M  V30 53 1 1 49
M  V30 54 1 1 50
M  V30 55 1 3 51
M  V30 56 1 3 52
M  V30 57 1 3 53
M  V30 58 1 4 54
M  V30 59 1 4 55
M  V30 60 1 5 56
M  V30 61 1 6 57
M  V30 62 1 10 58
M  V30 63 1 11 59
M  V30 64 1 13 60
M  V30 65 1 16 61
M  V30 66 1 22 62
M  V30 67 1 24 63
M  V30 68 1 25 64
M  V30 69 1 29 65
M  V30 70 1 31 66
M  V30 71 1 32 67
M  V30 72 1 35 68
M  V30 73 1 36 69
M  V30 74 1 37 70
M  V30 75 1 38 71
M  V30 76 1 40 72
M  V30 77 1 41 73
M  V30 78 1 42 74
M  V30 79 1 42 75
M  V30 80 1 44 76
M  V30 81 1 44 77
M  V30 82 1 44 78
M  V30 83 1 45 79
M  V30 84 1 45 80
M  V30 85 1 45 81
M  V30 END BOND
M  V30 END CTAB
M  END
>  <Dataset>  (521) 
ChEMBL_Kinases

>  <Ligand_Instance>  (521) 
nan

>  <PDB_ID>  (521) 
nan

>  <Standardized_SMILES>  (521) 
CC1(C)CC(NC(=O)c2ccc(Nc3ncc([N+](=O)[O-])c(Nc4ccc(C(=O)Nc5ccc(Cl)cc5)cc4)n3)cc2)CC(C)(C)N1[O]

>  <Name>  (521) 
nan

>  <Pocket>  (521) 
nan

>  <ATP_Site>  (521) 
nan

>  <Peripheral>  (521) 
nan

>  <Num_H_Atoms_ProtBoundConf>  (521) 
nan

>  <Num_Resolved_Atoms>  (521) 
nan

>  <Num_Not_Resolved_Atoms>  (521) 
nan

$$$$
CHEMBL2333905
     RDKit          3D

  0  0  0  0  0  0  0  0  0  0999 V3000
M  V30 BEGIN CTAB
M  V30 COUNTS 42 45 0 0 0
M  V30 BEGIN ATOM
M  V30 1 N 0.910116 -2.055259 -2.842860 0
M  V30 2 C 1.724578 -2.327852 -1.645504 0 CFG=1
M  V30 3 C 3.006216 -1.598781 -1.852260 0
M  V30 4 C 2.876703 -0.140560 -2.020891 0
M  V30 5 C 2.649575 0.301550 -3.330197 0
M  V30 6 C 2.510907 1.626099 -3.679677 0
M  V30 7 C 2.594716 2.593975 -2.714027 0
M  V30 8 F 2.469145 3.915334 -2.977854 0
M  V30 9 C 2.817127 2.202379 -1.414664 0
M  V30 10 C 2.952552 0.871046 -1.090718 0
M  V30 11 C 0.990135 -1.998219 -0.407160 0
M  V30 12 N 1.316342 -1.369241 0.735882 0
M  V30 13 C 0.445461 -1.190207 1.742936 0
M  V30 14 C 0.958387 -0.523138 2.837536 0
M  V30 15 C 0.070969 -0.325343 3.897734 0
M  V30 16 C -1.247470 -0.776234 3.845620 0
M  V30 17 C -2.156296 -0.554784 4.972866 0
M  V30 18 C -3.222406 -1.292295 5.452678 0
M  V30 19 N -3.748282 -0.657124 6.532880 0
M  V30 20 N -3.033619 0.446645 6.725840 0
M  V30 21 C -2.055479 0.563119 5.812607 0
M  V30 22 C -1.697378 -1.441677 2.710113 0
M  V30 23 C -0.848194 -1.660357 1.631265 0
M  V30 24 C -1.208369 -2.309623 0.467972 0
M  V30 25 O -2.389376 -2.707979 0.433333 0
M  V30 26 N -0.290769 -2.466378 -0.523464 0
M  V30 27 H 0.254299 -1.296758 -2.550423 0
M  V30 28 H 0.346362 -2.888963 -3.067995 0
M  V30 29 H 1.889836 -3.430272 -1.625240 0
M  V30 30 H 3.640140 -1.789350 -0.955918 0
M  V30 31 H 3.509266 -2.012691 -2.755730 0
M  V30 32 H 2.568305 -0.407740 -4.169317 0
M  V30 33 H 2.336799 1.923400 -4.700808 0
M  V30 34 H 2.899140 2.894344 -0.579613 0
M  V30 35 H 3.133957 0.537009 -0.081331 0
M  V30 36 H 1.980421 -0.172896 2.879144 0
M  V30 37 H 0.456506 0.204231 4.781756 0
M  V30 38 H -3.479707 -2.211340 4.942495 0
M  V30 39 H -3.249331 1.120186 7.517498 0
M  V30 40 H -1.360098 1.406915 5.806001 0
M  V30 41 H -2.715920 -1.809130 2.628066 0
M  V30 42 H -0.740376 -2.984584 -1.336859 0
M  V30 END ATOM
M  V30 BEGIN BOND
M  V30 1 1 1 2
M  V30 2 1 2 3
M  V30 3 1 3 4
M  V30 4 2 4 5
M  V30 5 1 5 6
M  V30 6 2 6 7
M  V30 7 1 7 8
M  V30 8 1 7 9
M  V30 9 2 9 10
M  V30 10 1 2 11
M  V30 11 2 11 12
M  V30 12 1 12 13
M  V30 13 2 13 14
M  V30 14 1 14 15
M  V30 15 2 15 16
M  V30 16 1 16 17
M  V30 17 1 17 18
M  V30 18 2 18 19
M  V30 19 1 19 20
M  V30 20 1 20 21
M  V30 21 1 16 22
M  V30 22 2 22 23
M  V30 23 1 23 24
M  V30 24 2 24 25
M  V30 25 1 24 26
M  V30 26 1 10 4
M  V30 27 1 26 11
M  V30 28 1 23 13
M  V30 29 2 21 17
M  V30 30 1 1 27
M  V30 31 1 1 28
M  V30 32 1 2 29 CFG=1
M  V30 33 1 3 30
M  V30 34 1 3 31
M  V30 35 1 5 32
M  V30 36 1 6 33
M  V30 37 1 9 34
M  V30 38 1 10 35
M  V30 39 1 14 36
M  V30 40 1 15 37
M  V30 41 1 18 38
M  V30 42 1 20 39
M  V30 43 1 21 40
M  V30 44 1 22 41
M  V30 45 1 26 42
M  V30 END BOND
M  V30 END CTAB
M  END
>  <Dataset>  (522) 
ChEMBL_Kinases

>  <Ligand_Instance>  (522) 
nan

>  <PDB_ID>  (522) 
nan

>  <Standardized_SMILES>  (522) 
N[C@@H](Cc1ccc(F)cc1)c1nc2ccc(-c3cn[nH]c3)cc2c(=O)[nH]1

>  <Name>  (522) 
nan

>  <Pocket>  (522) 
nan

>  <ATP_Site>  (522) 
nan

>  <Peripheral>  (522) 
nan

>  <Num_H_Atoms_ProtBoundConf>  (522) 
nan

>  <Num_Resolved_Atoms>  (522) 
nan

>  <Num_Not_Resolved_Atoms>  (522) 
nan

$$$$
CHEMBL3699291
     RDKit          3D

  0  0  0  0  0  0  0  0  0  0999 V3000
M  V30 BEGIN CTAB
M  V30 COUNTS 63 67 0 0 0
M  V30 BEGIN ATOM
M  V30 1 C 3.341154 -1.634874 -0.052624 0
M  V30 2 C 4.374017 -0.884328 0.747405 0
M  V30 3 N 5.095406 0.022343 -0.119890 0
M  V30 4 C 4.430692 1.060792 -0.819170 0
M  V30 5 N 3.112109 1.274523 -0.724385 0
M  V30 6 C 2.424583 2.231283 -1.353484 0
M  V30 7 N 1.026928 2.452063 -1.238557 0
M  V30 8 C 0.070672 1.781540 -0.432356 0
M  V30 9 C -1.279686 2.078502 -0.531203 0
M  V30 10 C -2.226662 1.451461 0.243403 0
M  V30 11 C -1.884735 0.487821 1.166337 0
M  V30 12 C -0.543300 0.162636 1.294980 0
M  V30 13 C 0.375594 0.813368 0.500473 0
M  V30 14 C -0.516280 -0.806553 2.273495 0
M  V30 15 C 0.640905 -1.458445 2.765777 0
M  V30 16 N 1.581087 -1.983008 3.185738 0
M  V30 17 N -1.782902 -1.023823 2.682771 0
M  V30 18 N -2.621277 -0.245904 2.019489 0
M  V30 19 C -4.073146 -0.140562 2.128303 0
M  V30 20 C -4.771264 -0.823687 0.982276 0
M  V30 21 C -3.996352 -2.046172 0.636951 0
M  V30 22 N -3.682642 -2.770002 1.818245 0
M  V30 23 C -3.746960 -4.188818 1.534139 0
M  V30 24 C -2.605495 -4.525954 0.597319 0 CFG=2
M  V30 25 C -2.568956 -5.974578 0.218337 0
M  V30 26 O -1.435572 -4.192131 1.252705 0
M  V30 27 C -4.474863 -2.464375 2.982058 0
M  V30 28 C -4.451296 -1.001583 3.345719 0
M  V30 29 N 3.148926 3.013019 -2.127226 0
M  V30 30 N 4.442008 2.875138 -2.277476 0
M  V30 31 C 5.270940 3.622425 -3.044541 0
M  V30 32 C 5.004934 4.743101 -3.890277 0
M  V30 33 N 4.784972 5.625625 -4.574720 0
M  V30 34 C 6.532278 3.081187 -2.864692 0
M  V30 35 N 6.404036 2.044733 -2.006872 0
M  V30 36 C 5.131333 1.913300 -1.644592 0
M  V30 37 H 3.757379 -2.625704 -0.351659 0
M  V30 38 H 3.091501 -1.085488 -0.985036 0
M  V30 39 H 2.440272 -1.852066 0.533465 0
M  V30 40 H 3.922826 -0.371017 1.633909 0
M  V30 41 H 5.072554 -1.630138 1.176741 0
M  V30 42 H 6.124924 -0.086173 -0.236454 0
M  V30 43 H 0.620952 3.232827 -1.838899 0
M  V30 44 H -1.615751 2.835497 -1.246381 0
M  V30 45 H -3.258717 1.726241 0.119559 0
M  V30 46 H 1.380555 0.512591 0.655981 0
M  V30 47 H -4.365501 0.899394 2.263041 0
M  V30 48 H -4.966450 -0.154796 0.126773 0
M  V30 49 H -5.780366 -1.128530 1.336707 0
M  V30 50 H -3.068241 -1.806118 0.056269 0
M  V30 51 H -4.613462 -2.643049 -0.097011 0
M  V30 52 H -3.756400 -4.823927 2.448019 0
M  V30 53 H -4.677479 -4.483648 0.984334 0
M  V30 54 H -2.771633 -3.927460 -0.322102 0
M  V30 55 H -3.149042 -6.211594 -0.694915 0
M  V30 56 H -1.497268 -6.204072 -0.022082 0
M  V30 57 H -2.863429 -6.661696 1.054745 0
M  V30 58 H -0.923291 -5.001485 1.458444 0
M  V30 59 H -3.970084 -2.996970 3.822432 0
M  V30 60 H -5.498972 -2.887688 2.930362 0
M  V30 61 H -5.492875 -0.702240 3.585846 0
M  V30 62 H -3.832946 -0.767877 4.225302 0
M  V30 63 H 7.504293 3.342555 -3.270948 0
M  V30 END ATOM
M  V30 BEGIN BOND
M  V30 1 1 1 2
M  V30 2 1 2 3
M  V30 3 1 3 4
M  V30 4 2 4 5
M  V30 5 1 5 6
M  V30 6 1 6 7
M  V30 7 1 7 8
M  V30 8 2 8 9
M  V30 9 1 9 10
M  V30 10 2 10 11
M  V30 11 1 11 12
M  V30 12 2 12 13
M  V30 13 1 12 14
M  V30 14 1 14 15
M  V30 15 3 15 16
M  V30 16 2 14 17
M  V30 17 1 17 18
M  V30 18 1 18 19
M  V30 19 1 19 20
M  V30 20 1 20 21
M  V30 21 1 21 22
M  V30 22 1 22 23
M  V30 23 1 23 24
M  V30 24 1 24 25
M  V30 25 1 24 26
M  V30 26 1 22 27
M  V30 27 1 27 28
M  V30 28 2 6 29
M  V30 29 1 29 30
M  V30 30 1 30 31
M  V30 31 1 31 32
M  V30 32 3 32 33
M  V30 33 2 31 34
M  V30 34 1 34 35
M  V30 35 2 35 36
M  V30 36 1 36 4
M  V30 37 1 13 8
M  V30 38 1 28 19
M  V30 39 1 36 30
M  V30 40 1 18 11
M  V30 41 1 1 37
M  V30 42 1 1 38
M  V30 43 1 1 39
M  V30 44 1 2 40
M  V30 45 1 2 41
M  V30 46 1 3 42
M  V30 47 1 7 43
M  V30 48 1 9 44
M  V30 49 1 10 45
M  V30 50 1 13 46
M  V30 51 1 19 47
M  V30 52 1 20 48
M  V30 53 1 20 49
M  V30 54 1 21 50
M  V30 55 1 21 51
M  V30 56 1 23 52
M  V30 57 1 23 53
M  V30 58 1 24 54 CFG=3
M  V30 59 1 25 55
M  V30 60 1 25 56
M  V30 61 1 25 57
M  V30 62 1 26 58
M  V30 63 1 27 59
M  V30 64 1 27 60
M  V30 65 1 28 61
M  V30 66 1 28 62
M  V30 67 1 34 63
M  V30 END BOND
M  V30 END CTAB
M  END
>  <Dataset>  (523) 
ChEMBL_Kinases

>  <Ligand_Instance>  (523) 
nan

>  <PDB_ID>  (523) 
nan

>  <Standardized_SMILES>  (523) 
CCNc1nc(Nc2ccc3c(c2)c(C#N)nn3C2CCN(C[C@H](C)O)CC2)nn2c(C#N)cnc12

>  <Name>  (523) 
nan

>  <Pocket>  (523) 
nan

>  <ATP_Site>  (523) 
nan

>  <Peripheral>  (523) 
nan

>  <Num_H_Atoms_ProtBoundConf>  (523) 
nan

>  <Num_Resolved_Atoms>  (523) 
nan

>  <Num_Not_Resolved_Atoms>  (523) 
nan

$$$$
CHEMBL2333906
     RDKit          3D

  0  0  0  0  0  0  0  0  0  0999 V3000
M  V30 BEGIN CTAB
M  V30 COUNTS 42 45 0 0 0
M  V30 BEGIN ATOM
M  V30 1 N 2.946919 -0.755238 -0.875620 0
M  V30 2 C 1.580972 -1.007973 -1.280725 0 CFG=2
M  V30 3 C 0.927766 0.222631 -1.863950 0
M  V30 4 C 1.638713 0.726138 -3.063337 0
M  V30 5 C 1.385651 0.352250 -4.371584 0
M  V30 6 C 2.104509 0.878669 -5.422212 0
M  V30 7 C 3.095231 1.794478 -5.177319 0
M  V30 8 F 3.824713 2.332657 -6.209250 0
M  V30 9 C 3.421547 2.229251 -3.912210 0
M  V30 10 C 2.665316 1.664541 -2.903682 0
M  V30 11 C 0.752214 -1.438460 -0.119415 0
M  V30 12 N 0.946660 -0.672609 0.982593 0
M  V30 13 C 0.287753 -0.905408 2.136088 0
M  V30 14 C 0.472074 -0.136387 3.268427 0
M  V30 15 C -0.206676 -0.380352 4.446938 0
M  V30 16 C -1.105703 -1.430341 4.505806 0
M  V30 17 C -1.840878 -1.715943 5.737423 0
M  V30 18 C -2.354184 -2.860452 6.351375 0
M  V30 19 N -2.949206 -2.483366 7.505724 0
M  V30 20 N -2.851248 -1.176601 7.671409 0
M  V30 21 C -2.189056 -0.687813 6.622691 0
M  V30 22 C -1.331780 -2.243843 3.385023 0
M  V30 23 C -0.628136 -1.958400 2.230377 0
M  V30 24 C -0.787077 -2.705289 1.079414 0
M  V30 25 O -1.596821 -3.686217 1.059414 0
M  V30 26 N -0.122862 -2.463540 -0.068788 0
M  V30 27 H 3.517867 -0.508732 -1.713860 0
M  V30 28 H 2.937041 0.091827 -0.240652 0
M  V30 29 H 1.563142 -1.799604 -2.048010 0
M  V30 30 H -0.150239 0.042514 -2.037275 0
M  V30 31 H 0.955549 1.048723 -1.108705 0
M  V30 32 H 0.585888 -0.380115 -4.508128 0
M  V30 33 H 1.878933 0.561678 -6.441788 0
M  V30 34 H 4.186399 2.945154 -3.644274 0
M  V30 35 H 2.883876 1.976438 -1.872244 0
M  V30 36 H 1.165022 0.690560 3.259701 0
M  V30 37 H -0.056734 0.227823 5.332439 0
M  V30 38 H -2.211771 -3.809207 5.852325 0
M  V30 39 H -3.248107 -0.683813 8.504130 0
M  V30 40 H -1.990564 0.384989 6.548972 0
M  V30 41 H -2.025101 -3.077197 3.381745 0
M  V30 42 H -0.212721 -2.995965 -0.947275 0
M  V30 END ATOM
M  V30 BEGIN BOND
M  V30 1 1 1 2
M  V30 2 1 2 3
M  V30 3 1 3 4
M  V30 4 2 4 5
M  V30 5 1 5 6
M  V30 6 2 6 7
M  V30 7 1 7 8
M  V30 8 1 7 9
M  V30 9 2 9 10
M  V30 10 1 2 11
M  V30 11 2 11 12
M  V30 12 1 12 13
M  V30 13 2 13 14
M  V30 14 1 14 15
M  V30 15 2 15 16
M  V30 16 1 16 17
M  V30 17 1 17 18
M  V30 18 2 18 19
M  V30 19 1 19 20
M  V30 20 1 20 21
M  V30 21 1 16 22
M  V30 22 2 22 23
M  V30 23 1 23 24
M  V30 24 2 24 25
M  V30 25 1 24 26
M  V30 26 1 10 4
M  V30 27 1 26 11
M  V30 28 1 23 13
M  V30 29 2 21 17
M  V30 30 1 1 27
M  V30 31 1 1 28
M  V30 32 1 2 29 CFG=3
M  V30 33 1 3 30
M  V30 34 1 3 31
M  V30 35 1 5 32
M  V30 36 1 6 33
M  V30 37 1 9 34
M  V30 38 1 10 35
M  V30 39 1 14 36
M  V30 40 1 15 37
M  V30 41 1 18 38
M  V30 42 1 20 39
M  V30 43 1 21 40
M  V30 44 1 22 41
M  V30 45 1 26 42
M  V30 END BOND
M  V30 END CTAB
M  END
>  <Dataset>  (524) 
ChEMBL_Kinases

>  <Ligand_Instance>  (524) 
nan

>  <PDB_ID>  (524) 
nan

>  <Standardized_SMILES>  (524) 
N[C@H](Cc1ccc(F)cc1)c1nc2ccc(-c3cn[nH]c3)cc2c(=O)[nH]1

>  <Name>  (524) 
nan

>  <Pocket>  (524) 
nan

>  <ATP_Site>  (524) 
nan

>  <Peripheral>  (524) 
nan

>  <Num_H_Atoms_ProtBoundConf>  (524) 
nan

>  <Num_Resolved_Atoms>  (524) 
nan

>  <Num_Not_Resolved_Atoms>  (524) 
nan

$$$$
CHEMBL3699290
     RDKit          3D

  0  0  0  0  0  0  0  0  0  0999 V3000
M  V30 BEGIN CTAB
M  V30 COUNTS 54 58 0 0 0
M  V30 BEGIN ATOM
M  V30 1 C 2.437205 -4.782715 6.224293 0 CHG=-1 VAL=3
M  V30 2 N 2.829172 -4.059821 5.399423 0 CHG=1 VAL=4
M  V30 3 C 3.303679 -3.218562 4.423766 0
M  V30 4 C 4.618821 -3.215629 3.978156 0
M  V30 5 N 4.702046 -2.254430 3.020803 0
M  V30 6 C 3.481797 -1.663783 2.860263 0
M  V30 7 C 3.135064 -0.648656 1.994988 0
M  V30 8 N 4.066334 -0.044724 1.109021 0
M  V30 9 C 3.484474 0.980315 0.312426 0
M  V30 10 N 2.903665 1.277836 -0.888936 0
M  V30 11 C 2.573398 2.594801 -0.872204 0
M  V30 12 C 1.917656 3.358475 -1.962212 0
M  V30 13 N 2.933971 3.125774 0.308499 0
M  V30 14 C 2.724521 4.528943 0.677568 0
M  V30 15 N 3.477648 2.134970 0.998269 0
M  V30 16 N 1.820719 -0.317055 2.115989 0
M  V30 17 C 0.981630 -0.916128 2.978204 0
M  V30 18 N -0.301534 -0.291467 2.808039 0
M  V30 19 C -1.273267 -0.800631 1.915611 0
M  V30 20 C -2.449678 -0.115797 1.700618 0
M  V30 21 C -3.376636 -0.658667 0.823180 0
M  V30 22 C -3.084242 -1.860142 0.202683 0
M  V30 23 C -1.911364 -2.567756 0.401318 0
M  V30 24 C -1.007083 -1.993940 1.285591 0
M  V30 25 C -1.923996 -3.735145 -0.362527 0
M  V30 26 C -0.879321 -4.723218 -0.413313 0
M  V30 27 N -0.038292 -5.518737 -0.434291 0
M  V30 28 N -3.118387 -3.713966 -1.018537 0
M  V30 29 N -3.775773 -2.613363 -0.674174 0
M  V30 30 C -5.090357 -2.318783 -1.240436 0
M  V30 31 C -4.819383 -1.548546 -2.517114 0 CFG=1
M  V30 32 C -3.995693 -2.383091 -3.478884 0
M  V30 33 O -5.964359 -1.124111 -3.163271 0
M  V30 34 N 1.389907 -1.887220 3.780101 0
M  V30 35 N 2.654575 -2.271499 3.726420 0
M  V30 36 H 5.405452 -3.850304 4.326484 0
M  V30 37 H 5.028909 -0.395140 1.131642 0
M  V30 38 H 2.595650 4.057523 -2.488849 0
M  V30 39 H 1.001842 3.872908 -1.568374 0
M  V30 40 H 1.535349 2.636983 -2.731831 0
M  V30 41 H 3.590792 5.163907 0.505636 0
M  V30 42 H 1.838890 4.889101 0.115288 0
M  V30 43 H 2.516130 4.528731 1.780193 0
M  V30 44 H -0.373060 0.536684 3.417590 0
M  V30 45 H -2.648101 0.830560 2.207611 0
M  V30 46 H -4.300048 -0.126143 0.651688 0
M  V30 47 H -0.071597 -2.500444 1.480112 0
M  V30 48 H -5.661183 -1.622663 -0.574372 0
M  V30 49 H -5.708288 -3.204117 -1.387352 0
M  V30 50 H -4.223209 -0.660597 -2.246642 0
M  V30 51 H -4.501601 -3.353862 -3.699135 0
M  V30 52 H -3.943940 -1.833845 -4.434735 0
M  V30 53 H -2.976722 -2.556243 -3.086103 0
M  V30 54 H -5.641226 -0.690025 -4.009481 0
M  V30 END ATOM
M  V30 BEGIN BOND
M  V30 1 3 1 2
M  V30 2 1 2 3
M  V30 3 2 3 4
M  V30 4 1 4 5
M  V30 5 2 5 6
M  V30 6 1 6 7
M  V30 7 1 7 8
M  V30 8 1 8 9
M  V30 9 1 9 10
M  V30 10 2 10 11
M  V30 11 1 11 12
M  V30 12 1 11 13
M  V30 13 1 13 14
M  V30 14 1 13 15
M  V30 15 2 7 16
M  V30 16 1 16 17
M  V30 17 1 17 18
M  V30 18 1 18 19
M  V30 19 2 19 20
M  V30 20 1 20 21
M  V30 21 2 21 22
M  V30 22 1 22 23
M  V30 23 2 23 24
M  V30 24 1 23 25
M  V30 25 1 25 26
M  V30 26 3 26 27
M  V30 27 2 25 28
M  V30 28 1 28 29
M  V30 29 1 29 30
M  V30 30 1 30 31
M  V30 31 1 31 32
M  V30 32 1 31 33
M  V30 33 2 17 34
M  V30 34 1 34 35
M  V30 35 1 35 3
M  V30 36 1 35 6
M  V30 37 2 15 9
M  V30 38 1 24 19
M  V30 39 1 29 22
M  V30 40 1 4 36
M  V30 41 1 8 37
M  V30 42 1 12 38
M  V30 43 1 12 39
M  V30 44 1 12 40
M  V30 45 1 14 41
M  V30 46 1 14 42
M  V30 47 1 14 43
M  V30 48 1 18 44
M  V30 49 1 20 45
M  V30 50 1 21 46
M  V30 51 1 24 47
M  V30 52 1 30 48
M  V30 53 1 30 49
M  V30 54 1 31 50 CFG=1
M  V30 55 1 32 51
M  V30 56 1 32 52
M  V30 57 1 32 53
M  V30 58 1 33 54
M  V30 END BOND
M  V30 END CTAB
M  END
>  <Dataset>  (525) 
ChEMBL_Kinases

>  <Ligand_Instance>  (525) 
nan

>  <PDB_ID>  (525) 
nan

>  <Standardized_SMILES>  (525) 
[C-]#[N+]c1cnc2c(Nc3nc(C)n(C)n3)nc(Nc3ccc4c(c3)c(C#N)nn4C[C@@H](C)O)nn12

>  <Name>  (525) 
nan

>  <Pocket>  (525) 
nan

>  <ATP_Site>  (525) 
nan

>  <Peripheral>  (525) 
nan

>  <Num_H_Atoms_ProtBoundConf>  (525) 
nan

>  <Num_Resolved_Atoms>  (525) 
nan

>  <Num_Not_Resolved_Atoms>  (525) 
nan

$$$$
CHEMBL2333908
     RDKit          3D

  0  0  0  0  0  0  0  0  0  0999 V3000
M  V30 BEGIN CTAB
M  V30 COUNTS 46 49 0 0 0
M  V30 BEGIN ATOM
M  V30 1 C 1.059597 -4.100157 -0.573617 0
M  V30 2 O 0.930567 -2.824781 -0.046037 0
M  V30 3 C 1.754842 -1.774762 -0.299858 0
M  V30 4 C 2.878419 -1.659831 -1.091155 0
M  V30 5 C 3.593666 -0.488827 -1.223135 0
M  V30 6 C 4.761269 -0.525031 -2.098511 0
M  V30 7 C 4.903586 -1.316871 -3.243549 0
M  V30 8 N 6.101285 -1.110592 -3.820979 0
M  V30 9 N 6.743175 -0.212542 -3.092082 0
M  V30 10 C 5.963342 0.152345 -2.057896 0
M  V30 11 C 3.195100 0.650181 -0.543003 0
M  V30 12 C 2.073629 0.567694 0.257807 0
M  V30 13 C 1.713049 1.726558 0.916139 0
M  V30 14 O 2.338384 2.809482 0.820539 0
M  V30 15 N 0.630293 1.724328 1.715088 0
M  V30 16 C -0.067187 0.579250 1.842701 0
M  V30 17 C -1.293323 0.324445 2.661806 0 CFG=2
M  V30 18 N -1.208512 -0.916185 3.398562 0
M  V30 19 C -2.482374 0.358073 1.733475 0
M  V30 20 C -3.773109 0.121553 2.395912 0
M  V30 21 C -4.577879 1.106547 2.932070 0
M  V30 22 C -5.782513 0.823504 3.544858 0
M  V30 23 C -6.169324 -0.498728 3.608610 0
M  V30 24 C -5.430265 -1.548127 3.100500 0
M  V30 25 F -5.822467 -2.842940 3.170167 0
M  V30 26 C -4.249869 -1.187248 2.509095 0
M  V30 27 N 0.296023 -0.542267 1.195040 0
M  V30 28 C 1.365891 -0.613638 0.380711 0
M  V30 29 H 1.172407 -4.841964 0.245315 0
M  V30 30 H 1.947689 -4.146817 -1.228899 0
M  V30 31 H 0.186247 -4.318792 -1.225316 0
M  V30 32 H 3.144572 -2.565535 -1.594376 0
M  V30 33 H 4.108250 -1.998827 -3.578378 0
M  V30 34 H 7.704980 0.126823 -3.326600 0
M  V30 35 H 6.204144 0.878098 -1.272070 0
M  V30 36 H 3.779363 1.551555 -0.669631 0
M  V30 37 H 0.243045 2.507845 2.266313 0
M  V30 38 H -1.411280 1.141621 3.386818 0
M  V30 39 H -1.304530 -0.763211 4.443070 0
M  V30 40 H -0.307846 -1.414332 3.236591 0
M  V30 41 H -2.269439 -0.366506 0.921127 0
M  V30 42 H -2.423816 1.361024 1.217158 0
M  V30 43 H -4.199006 2.119440 2.838958 0
M  V30 44 H -6.374557 1.633703 3.948626 0
M  V30 45 H -7.119184 -0.732155 4.091080 0
M  V30 46 H -3.638035 -1.999873 2.094858 0
M  V30 END ATOM
M  V30 BEGIN BOND
M  V30 1 1 1 2
M  V30 2 1 2 3
M  V30 3 2 3 4
M  V30 4 1 4 5
M  V30 5 1 5 6
M  V30 6 1 6 7
M  V30 7 2 7 8
M  V30 8 1 8 9
M  V30 9 1 9 10
M  V30 10 2 5 11
M  V30 11 1 11 12
M  V30 12 1 12 13
M  V30 13 2 13 14
M  V30 14 1 13 15
M  V30 15 1 15 16
M  V30 16 1 16 17
M  V30 17 1 17 18
M  V30 18 1 17 19
M  V30 19 1 19 20
M  V30 20 2 20 21
M  V30 21 1 21 22
M  V30 22 2 22 23
M  V30 23 1 23 24
M  V30 24 1 24 25
M  V30 25 2 24 26
M  V30 26 2 16 27
M  V30 27 1 27 28
M  V30 28 1 28 3
M  V30 29 2 10 6
M  V30 30 2 28 12
M  V30 31 1 26 20
M  V30 32 1 1 29
M  V30 33 1 1 30
M  V30 34 1 1 31
M  V30 35 1 4 32
M  V30 36 1 7 33
M  V30 37 1 9 34
M  V30 38 1 10 35
M  V30 39 1 11 36
M  V30 40 1 15 37
M  V30 41 1 17 38 CFG=1
M  V30 42 1 18 39
M  V30 43 1 18 40
M  V30 44 1 19 41
M  V30 45 1 19 42
M  V30 46 1 21 43
M  V30 47 1 22 44
M  V30 48 1 23 45
M  V30 49 1 26 46
M  V30 END BOND
M  V30 END CTAB
M  END
>  <Dataset>  (526) 
ChEMBL_Kinases

>  <Ligand_Instance>  (526) 
nan

>  <PDB_ID>  (526) 
nan

>  <Standardized_SMILES>  (526) 
COc1cc(-c2cn[nH]c2)cc2c(=O)[nH]c([C@H](N)Cc3cccc(F)c3)nc12

>  <Name>  (526) 
nan

>  <Pocket>  (526) 
nan

>  <ATP_Site>  (526) 
nan

>  <Peripheral>  (526) 
nan

>  <Num_H_Atoms_ProtBoundConf>  (526) 
nan

>  <Num_Resolved_Atoms>  (526) 
nan

>  <Num_Not_Resolved_Atoms>  (526) 
nan

$$$$
CHEMBL2333909
     RDKit          3D

  0  0  0  0  0  0  0  0  0  0999 V3000
M  V30 BEGIN CTAB
M  V30 COUNTS 46 49 0 0 0
M  V30 BEGIN ATOM
M  V30 1 C 1.951458 -6.311977 -0.585679 0
M  V30 2 O 1.176287 -5.389949 0.188515 0
M  V30 3 C 0.321641 -4.474181 -0.376633 0
M  V30 4 C 0.034863 -4.247871 -1.705930 0
M  V30 5 C -0.859065 -3.276359 -2.101881 0
M  V30 6 C -1.511996 -2.478904 -1.153984 0
M  V30 7 C -2.456275 -1.454808 -1.593111 0
M  V30 8 C -1.863624 -0.097837 -1.851906 0 CFG=2
M  V30 9 N -0.850810 -0.232116 -2.905593 0
M  V30 10 C -1.306350 0.569646 -0.674390 0
M  V30 11 N -0.084101 0.180340 -0.222151 0
M  V30 12 C 0.476799 0.759672 0.856085 0
M  V30 13 C 1.719898 0.374609 1.328571 0
M  V30 14 C 2.265708 0.989864 2.437061 0
M  V30 15 C 1.600815 2.010096 3.119882 0
M  V30 16 C 2.155197 2.678395 4.294424 0
M  V30 17 C 3.468970 2.965566 4.656266 0
M  V30 18 N 3.449402 3.598712 5.843391 0
M  V30 19 N 2.213733 3.739060 6.271057 0
M  V30 20 C 1.398263 3.191082 5.354739 0
M  V30 21 C 0.358791 2.409550 2.664715 0
M  V30 22 C -0.156212 1.770914 1.551999 0
M  V30 23 C -1.394423 2.133539 1.057388 0
M  V30 24 O -2.099690 3.053894 1.595777 0
M  V30 25 N -1.954881 1.554951 -0.019718 0
M  V30 26 C -1.237856 -2.689622 0.196017 0
M  V30 27 C -0.325782 -3.683679 0.561419 0
M  V30 28 H 1.259976 -6.795908 -1.281244 0
M  V30 29 H 2.466275 -7.029811 0.057465 0
M  V30 30 H 2.707333 -5.739013 -1.178207 0
M  V30 31 H 0.577977 -4.903181 -2.385049 0
M  V30 32 H -1.048778 -3.138900 -3.156648 0
M  V30 33 H -3.263215 -1.400074 -0.841732 0
M  V30 34 H -2.933654 -1.769177 -2.550359 0
M  V30 35 H -2.699453 0.538875 -2.213768 0
M  V30 36 H -1.294697 -0.586068 -3.779025 0
M  V30 37 H -0.363547 0.695099 -3.052432 0
M  V30 38 H 2.246492 -0.414571 0.810031 0
M  V30 39 H 3.243078 0.709542 2.834544 0
M  V30 40 H 4.316974 2.696125 4.038498 0
M  V30 41 H 1.908883 4.191804 7.158748 0
M  V30 42 H 0.307115 3.123382 5.374217 0
M  V30 43 H -0.237222 3.188130 3.120378 0
M  V30 44 H -2.878636 1.793812 -0.425408 0
M  V30 45 H -1.736861 -2.079801 0.925189 0
M  V30 46 H -0.180507 -3.769321 1.646372 0
M  V30 END ATOM
M  V30 BEGIN BOND
M  V30 1 1 1 2
M  V30 2 1 2 3
M  V30 3 2 3 4
M  V30 4 1 4 5
M  V30 5 2 5 6
M  V30 6 1 6 7
M  V30 7 1 7 8
M  V30 8 1 8 9
M  V30 9 1 8 10
M  V30 10 2 10 11
M  V30 11 1 11 12
M  V30 12 2 12 13
M  V30 13 1 13 14
M  V30 14 2 14 15
M  V30 15 1 15 16
M  V30 16 1 16 17
M  V30 17 2 17 18
M  V30 18 1 18 19
M  V30 19 1 19 20
M  V30 20 1 15 21
M  V30 21 2 21 22
M  V30 22 1 22 23
M  V30 23 2 23 24
M  V30 24 1 23 25
M  V30 25 1 6 26
M  V30 26 2 26 27
M  V30 27 1 27 3
M  V30 28 1 25 10
M  V30 29 1 22 12
M  V30 30 2 20 16
M  V30 31 1 1 28
M  V30 32 1 1 29
M  V30 33 1 1 30
M  V30 34 1 4 31
M  V30 35 1 5 32
M  V30 36 1 7 33
M  V30 37 1 7 34
M  V30 38 1 8 35 CFG=3
M  V30 39 1 9 36
M  V30 40 1 9 37
M  V30 41 1 13 38
M  V30 42 1 14 39
M  V30 43 1 17 40
M  V30 44 1 19 41
M  V30 45 1 20 42
M  V30 46 1 21 43
M  V30 47 1 25 44
M  V30 48 1 26 45
M  V30 49 1 27 46
M  V30 END BOND
M  V30 END CTAB
M  END
>  <Dataset>  (527) 
ChEMBL_Kinases

>  <Ligand_Instance>  (527) 
nan

>  <PDB_ID>  (527) 
nan

>  <Standardized_SMILES>  (527) 
COc1ccc(C[C@H](N)c2nc3ccc(-c4cn[nH]c4)cc3c(=O)[nH]2)cc1

>  <Name>  (527) 
nan

>  <Pocket>  (527) 
nan

>  <ATP_Site>  (527) 
nan

>  <Peripheral>  (527) 
nan

>  <Num_H_Atoms_ProtBoundConf>  (527) 
nan

>  <Num_Resolved_Atoms>  (527) 
nan

>  <Num_Not_Resolved_Atoms>  (527) 
nan

$$$$
CHEMBL3699289
     RDKit          3D

  0  0  0  0  0  0  0  0  0  0999 V3000
M  V30 BEGIN CTAB
M  V30 COUNTS 47 51 0 0 0
M  V30 BEGIN ATOM
M  V30 1 C 2.041406 -6.155454 3.928033 0 CHG=-1 VAL=3
M  V30 2 N 2.416044 -5.078275 3.700505 0 CHG=1 VAL=4
M  V30 3 C 2.857959 -3.801468 3.417525 0
M  V30 4 C 3.944998 -3.240764 4.077411 0
M  V30 5 N 4.080710 -2.003245 3.546030 0
M  V30 6 C 3.127332 -1.830773 2.618083 0
M  V30 7 C 2.755470 -0.811801 1.755927 0
M  V30 8 N 3.487516 0.407371 1.755990 0
M  V30 9 C 3.385546 1.610814 1.034421 0
M  V30 10 N 3.960727 1.940482 -0.134884 0
M  V30 11 C 3.584644 3.197839 -0.452425 0
M  V30 12 C 3.901618 4.063708 -1.599986 0
M  V30 13 N 2.777105 3.644713 0.520888 0
M  V30 14 C 2.084956 4.923076 0.698406 0
M  V30 15 N 2.655204 2.671136 1.432590 0
M  V30 16 N 1.702896 -0.933892 0.895689 0
M  V30 17 C 0.985904 -2.095406 0.876587 0
M  V30 18 N -0.124699 -2.330678 0.024082 0
M  V30 19 C -1.510285 -2.090722 0.233234 0
M  V30 20 C -1.922121 -1.545053 1.430595 0
M  V30 21 C -3.288870 -1.332969 1.579651 0
M  V30 22 C -4.144203 -1.673835 0.539961 0
M  V30 23 C -3.689321 -2.226025 -0.661823 0
M  V30 24 C -2.322424 -2.443755 -0.824313 0
M  V30 25 C -4.773400 -2.456734 -1.497636 0
M  V30 26 C -4.736509 -3.015656 -2.825001 0
M  V30 27 N -4.690089 -3.456663 -3.893829 0
M  V30 28 N -5.861664 -2.044981 -0.797630 0
M  V30 29 N -5.479148 -1.591414 0.387572 0
M  V30 30 C -6.446897 -1.084918 1.346982 0
M  V30 31 N 1.331224 -3.087359 1.701302 0
M  V30 32 N 2.357733 -2.930766 2.520474 0
M  V30 33 H 4.616049 -3.581744 4.845911 0
M  V30 34 H 4.292399 0.537943 2.391601 0
M  V30 35 H 4.072603 5.120651 -1.274518 0
M  V30 36 H 3.108720 4.070844 -2.380498 0
M  V30 37 H 4.871091 3.765853 -2.075954 0
M  V30 38 H 1.056005 4.717023 1.007951 0
M  V30 39 H 2.612069 5.479974 1.517199 0
M  V30 40 H 2.076689 5.457414 -0.257045 0
M  V30 41 H 0.308519 -2.728698 -0.811930 0
M  V30 42 H -1.209357 -1.298259 2.207436 0
M  V30 43 H -3.680084 -0.907525 2.494943 0
M  V30 44 H -1.935611 -2.868888 -1.740202 0
M  V30 45 H -6.971463 -1.963131 1.778204 0
M  V30 46 H -7.125665 -0.360151 0.880948 0
M  V30 47 H -5.951239 -0.582113 2.203139 0
M  V30 END ATOM
M  V30 BEGIN BOND
M  V30 1 3 1 2
M  V30 2 1 2 3
M  V30 3 2 3 4
M  V30 4 1 4 5
M  V30 5 2 5 6
M  V30 6 1 6 7
M  V30 7 1 7 8
M  V30 8 1 8 9
M  V30 9 1 9 10
M  V30 10 2 10 11
M  V30 11 1 11 12
M  V30 12 1 11 13
M  V30 13 1 13 14
M  V30 14 1 13 15
M  V30 15 2 7 16
M  V30 16 1 16 17
M  V30 17 1 17 18
M  V30 18 1 18 19
M  V30 19 2 19 20
M  V30 20 1 20 21
M  V30 21 2 21 22
M  V30 22 1 22 23
M  V30 23 2 23 24
M  V30 24 1 23 25
M  V30 25 1 25 26
M  V30 26 3 26 27
M  V30 27 2 25 28
M  V30 28 1 28 29
M  V30 29 1 29 30
M  V30 30 2 17 31
M  V30 31 1 31 32
M  V30 32 1 32 3
M  V30 33 1 32 6
M  V30 34 2 15 9
M  V30 35 1 24 19
M  V30 36 1 29 22
M  V30 37 1 4 33
M  V30 38 1 8 34
M  V30 39 1 12 35
M  V30 40 1 12 36
M  V30 41 1 12 37
M  V30 42 1 14 38
M  V30 43 1 14 39
M  V30 44 1 14 40
M  V30 45 1 18 41
M  V30 46 1 20 42
M  V30 47 1 21 43
M  V30 48 1 24 44
M  V30 49 1 30 45
M  V30 50 1 30 46
M  V30 51 1 30 47
M  V30 END BOND
M  V30 END CTAB
M  END
>  <Dataset>  (528) 
ChEMBL_Kinases

>  <Ligand_Instance>  (528) 
nan

>  <PDB_ID>  (528) 
nan

>  <Standardized_SMILES>  (528) 
[C-]#[N+]c1cnc2c(Nc3nc(C)n(C)n3)nc(Nc3ccc4c(c3)c(C#N)nn4C)nn12

>  <Name>  (528) 
nan

>  <Pocket>  (528) 
nan

>  <ATP_Site>  (528) 
nan

>  <Peripheral>  (528) 
nan

>  <Num_H_Atoms_ProtBoundConf>  (528) 
nan

>  <Num_Resolved_Atoms>  (528) 
nan

>  <Num_Not_Resolved_Atoms>  (528) 
nan

$$$$
CHEMBL4516990
     RDKit          3D

  0  0  0  0  0  0  0  0  0  0999 V3000
M  V30 BEGIN CTAB
M  V30 COUNTS 66 70 0 0 0
M  V30 BEGIN ATOM
M  V30 1 C 2.679237 0.219686 5.549205 0
M  V30 2 N 3.233490 -1.094691 5.626225 0
M  V30 3 C 4.647989 -1.175305 5.393237 0
M  V30 4 C 5.057900 -0.999729 3.953111 0
M  V30 5 C 3.874610 -0.795923 3.103110 0
M  V30 6 C 4.070243 -0.093226 1.909041 0
M  V30 7 C 2.970194 0.128955 1.077059 0
M  V30 8 N 3.063840 0.813097 -0.173057 0
M  V30 9 C 1.955382 1.248291 -0.942000 0
M  V30 10 N 1.867049 2.607128 -1.022514 0
M  V30 11 C 0.874765 3.227121 -1.700982 0
M  V30 12 C -0.087450 2.444019 -2.336203 0
M  V30 13 C -1.131371 3.249435 -3.000852 0
M  V30 14 C -2.053239 4.101167 -2.249622 0
M  V30 15 C -2.587061 2.804785 -2.779030 0
M  V30 16 C 0.005779 1.074625 -2.252772 0
M  V30 17 N -0.955501 0.277965 -2.914984 0
M  V30 18 C -0.886018 -1.146127 -2.828361 0
M  V30 19 C -2.105607 -1.793629 -3.461996 0
M  V30 20 C -3.371939 -1.314212 -2.749150 0
M  V30 21 N -3.319528 -1.645160 -1.347208 0
M  V30 22 C -3.223535 -2.921565 -0.797463 0
M  V30 23 O -3.182312 -3.941824 -1.570601 0
M  V30 24 C -3.154436 -3.321042 0.615973 0
M  V30 25 C -3.129335 -4.844114 0.786828 0
M  V30 26 C -4.648733 -4.739921 0.908630 0
M  V30 27 C -4.441708 -3.312119 1.364443 0
M  V30 28 N 1.012293 0.514222 -1.566456 0
M  V30 29 C 1.707702 -0.328883 1.411351 0
M  V30 30 C 1.474307 -1.026624 2.581254 0
M  V30 31 C 2.589933 -1.214840 3.357848 0
M  V30 32 C 2.565199 -1.955635 4.673145 0
M  V30 33 H 1.728348 0.205355 6.159627 0
M  V30 34 H 3.388246 0.938982 5.994763 0
M  V30 35 H 2.348458 0.509949 4.536745 0
M  V30 36 H 4.979156 -2.173947 5.807464 0
M  V30 37 H 5.153336 -0.409963 6.051767 0
M  V30 38 H 5.776261 -0.151206 3.887606 0
M  V30 39 H 5.593300 -1.947881 3.654574 0
M  V30 40 H 5.021982 0.280328 1.602073 0
M  V30 41 H 3.972438 1.048280 -0.618625 0
M  V30 42 H 0.881702 4.318682 -1.714601 0
M  V30 43 H -0.886948 3.584427 -4.035610 0
M  V30 44 H -1.986783 4.217029 -1.136494 0
M  V30 45 H -2.469619 5.004532 -2.755053 0
M  V30 46 H -3.237322 2.797697 -3.686380 0
M  V30 47 H -2.808400 2.051337 -2.008593 0
M  V30 48 H -1.725361 0.654671 -3.493939 0
M  V30 49 H -0.776564 -1.564559 -1.824021 0
M  V30 50 H -0.018104 -1.543368 -3.419012 0
M  V30 51 H -2.084432 -2.890549 -3.376967 0
M  V30 52 H -2.188206 -1.523067 -4.515684 0
M  V30 53 H -4.229025 -1.830504 -3.221196 0
M  V30 54 H -3.468898 -0.249881 -2.948306 0
M  V30 55 H -3.352960 -0.905156 -0.603172 0
M  V30 56 H -2.334145 -2.795535 1.185254 0
M  V30 57 H -2.798939 -5.402190 -0.113211 0
M  V30 58 H -2.671513 -5.160927 1.745335 0
M  V30 59 H -5.096852 -5.407090 1.666141 0
M  V30 60 H -5.077803 -4.744435 -0.102349 0
M  V30 61 H -5.216989 -2.583863 1.056712 0
M  V30 62 H -4.217705 -3.323076 2.471568 0
M  V30 63 H 0.855034 -0.146904 0.746760 0
M  V30 64 H 0.522882 -1.418126 2.913891 0
M  V30 65 H 1.515813 -2.162559 4.906157 0
M  V30 66 H 3.094256 -2.896708 4.486804 0
M  V30 END ATOM
M  V30 BEGIN BOND
M  V30 1 1 1 2
M  V30 2 1 2 3
M  V30 3 1 3 4
M  V30 4 1 4 5
M  V30 5 2 5 6
M  V30 6 1 6 7
M  V30 7 1 7 8
M  V30 8 1 8 9
M  V30 9 2 9 10
M  V30 10 1 10 11
M  V30 11 2 11 12
M  V30 12 1 12 13
M  V30 13 1 13 14
M  V30 14 1 14 15
M  V30 15 1 12 16
M  V30 16 1 16 17
M  V30 17 1 17 18
M  V30 18 1 18 19
M  V30 19 1 19 20
M  V30 20 1 20 21
M  V30 21 1 21 22
M  V30 22 2 22 23
M  V30 23 1 22 24
M  V30 24 1 24 25
M  V30 25 1 25 26
M  V30 26 1 26 27
M  V30 27 2 16 28
M  V30 28 2 7 29
M  V30 29 1 29 30
M  V30 30 2 30 31
M  V30 31 1 31 32
M  V30 32 1 32 2
M  V30 33 1 31 5
M  V30 34 1 28 9
M  V30 35 1 15 13
M  V30 36 1 27 24
M  V30 37 1 1 33
M  V30 38 1 1 34
M  V30 39 1 1 35
M  V30 40 1 3 36
M  V30 41 1 3 37
M  V30 42 1 4 38
M  V30 43 1 4 39
M  V30 44 1 6 40
M  V30 45 1 8 41
M  V30 46 1 11 42
M  V30 47 1 13 43
M  V30 48 1 14 44
M  V30 49 1 14 45
M  V30 50 1 15 46
M  V30 51 1 15 47
M  V30 52 1 17 48
M  V30 53 1 18 49
M  V30 54 1 18 50
M  V30 55 1 19 51
M  V30 56 1 19 52
M  V30 57 1 20 53
M  V30 58 1 20 54
M  V30 59 1 21 55
M  V30 60 1 24 56
M  V30 61 1 25 57
M  V30 62 1 25 58
M  V30 63 1 26 59
M  V30 64 1 26 60
M  V30 65 1 27 61
M  V30 66 1 27 62
M  V30 67 1 29 63
M  V30 68 1 30 64
M  V30 69 1 32 65
M  V30 70 1 32 66
M  V30 END BOND
M  V30 END CTAB
M  END
>  <Dataset>  (529) 
ChEMBL_Kinases

>  <Ligand_Instance>  (529) 
nan

>  <PDB_ID>  (529) 
nan

>  <Standardized_SMILES>  (529) 
CN1CCc2cc(Nc3ncc(C4CC4)c(NCCCNC(=O)C4CCC4)n3)ccc2C1

>  <Name>  (529) 
nan

>  <Pocket>  (529) 
nan

>  <ATP_Site>  (529) 
nan

>  <Peripheral>  (529) 
nan

>  <Num_H_Atoms_ProtBoundConf>  (529) 
nan

>  <Num_Resolved_Atoms>  (529) 
nan

>  <Num_Not_Resolved_Atoms>  (529) 
nan

$$$$
CHEMBL3699262
     RDKit          3D

  0  0  0  0  0  0  0  0  0  0999 V3000
M  V30 BEGIN CTAB
M  V30 COUNTS 52 56 0 0 0
M  V30 BEGIN ATOM
M  V30 1 C 4.478969 -5.872976 2.955579 0
M  V30 2 N 5.096009 -5.102787 1.927566 0
M  V30 3 C 5.373827 -3.737777 2.313692 0
M  V30 4 C 4.110778 -2.974560 2.156607 0
M  V30 5 C 3.434662 -2.895594 1.036997 0
M  V30 6 C 2.210535 -2.219338 0.684244 0
M  V30 7 C 1.802731 -2.368417 -0.622047 0
M  V30 8 C 0.648282 -1.769988 -1.078222 0
M  V30 9 C 0.162616 -1.882026 -2.427046 0
M  V30 10 N -0.214782 -1.983885 -3.525749 0
M  V30 11 C -0.150055 -0.999530 -0.260806 0
M  V30 12 C 0.244458 -0.840455 1.050146 0
M  V30 13 N -0.557834 -0.051517 1.917704 0
M  V30 14 C -1.747072 0.563405 1.444792 0
M  V30 15 N -1.564863 1.783275 0.952637 0
M  V30 16 C -2.562181 2.561942 0.443049 0
M  V30 17 N -2.344927 3.859183 -0.090525 0
M  V30 18 C -2.929095 5.008580 -0.667384 0
M  V30 19 C -3.786850 4.695485 -1.931691 0
M  V30 20 C -4.331014 5.400023 -0.718617 0
M  V30 21 C -3.837875 1.979337 0.469187 0
M  V30 22 N -5.043628 2.353787 0.091285 0
M  V30 23 C -5.944578 1.400646 0.339755 0
M  V30 24 C -5.294346 0.332527 0.916352 0
M  V30 25 C -5.842972 -0.918596 1.356355 0
M  V30 26 N -6.286547 -1.922807 1.724304 0
M  V30 27 N -4.020175 0.746894 0.966718 0
M  V30 28 N -2.990736 0.081428 1.433533 0
M  V30 29 C 1.396499 -1.449531 1.467640 0
M  V30 30 Cl 1.788539 -1.177117 3.135273 0
M  V30 31 C 4.250324 -3.719808 0.117818 0
M  V30 32 C 4.458987 -5.122119 0.656000 0
M  V30 33 H 3.476181 -6.284556 2.647519 0
M  V30 34 H 5.154429 -6.674407 3.347310 0
M  V30 35 H 4.259756 -5.241521 3.853039 0
M  V30 36 H 6.231822 -3.284986 1.767905 0
M  V30 37 H 5.607338 -3.790206 3.419753 0
M  V30 38 H 3.700822 -2.445723 2.989599 0
M  V30 39 H 2.249912 -2.912893 -1.439533 0
M  V30 40 H -1.069400 -0.515431 -0.600192 0
M  V30 41 H -0.294151 0.092017 2.910707 0
M  V30 42 H -1.290767 4.026640 -0.025852 0
M  V30 43 H -2.177293 5.842721 -0.865298 0
M  V30 44 H -4.020736 3.651987 -2.145863 0
M  V30 45 H -3.526511 5.271646 -2.845845 0
M  V30 46 H -5.160970 5.007020 -0.148466 0
M  V30 47 H -4.501286 6.511001 -0.932232 0
M  V30 48 H -7.002599 1.473629 0.118257 0
M  V30 49 H 5.285500 -3.279482 -0.022271 0
M  V30 50 H 3.855007 -3.798258 -0.910071 0
M  V30 51 H 5.122954 -5.666850 -0.045559 0
M  V30 52 H 3.456648 -5.636574 0.675634 0
M  V30 END ATOM
M  V30 BEGIN BOND
M  V30 1 1 1 2
M  V30 2 1 2 3
M  V30 3 1 3 4
M  V30 4 2 4 5
M  V30 5 1 5 6
M  V30 6 2 6 7
M  V30 7 1 7 8
M  V30 8 1 8 9
M  V30 9 3 9 10
M  V30 10 2 8 11
M  V30 11 1 11 12
M  V30 12 1 12 13
M  V30 13 1 13 14
M  V30 14 1 14 15
M  V30 15 2 15 16
M  V30 16 1 16 17
M  V30 17 1 17 18
M  V30 18 1 18 19
M  V30 19 1 19 20
M  V30 20 1 16 21
M  V30 21 2 21 22
M  V30 22 1 22 23
M  V30 23 2 23 24
M  V30 24 1 24 25
M  V30 25 3 25 26
M  V30 26 1 24 27
M  V30 27 1 27 28
M  V30 28 2 12 29
M  V30 29 1 29 30
M  V30 30 1 5 31
M  V30 31 1 31 32
M  V30 32 1 32 2
M  V30 33 1 29 6
M  V30 34 2 28 14
M  V30 35 1 20 18
M  V30 36 1 27 21
M  V30 37 1 1 33
M  V30 38 1 1 34
M  V30 39 1 1 35
M  V30 40 1 3 36
M  V30 41 1 3 37
M  V30 42 1 4 38
M  V30 43 1 7 39
M  V30 44 1 11 40
M  V30 45 1 13 41
M  V30 46 1 17 42
M  V30 47 1 18 43
M  V30 48 1 19 44
M  V30 49 1 19 45
M  V30 50 1 20 46
M  V30 51 1 20 47
M  V30 52 1 23 48
M  V30 53 1 31 49
M  V30 54 1 31 50
M  V30 55 1 32 51
M  V30 56 1 32 52
M  V30 END BOND
M  V30 END CTAB
M  END
>  <Dataset>  (530) 
ChEMBL_Kinases

>  <Ligand_Instance>  (530) 
nan

>  <PDB_ID>  (530) 
nan

>  <Standardized_SMILES>  (530) 
CN1CC=C(c2cc(C#N)cc(Nc3nc(NC4CC4)c4ncc(C#N)n4n3)c2Cl)CC1

>  <Name>  (530) 
nan

>  <Pocket>  (530) 
nan

>  <ATP_Site>  (530) 
nan

>  <Peripheral>  (530) 
nan

>  <Num_H_Atoms_ProtBoundConf>  (530) 
nan

>  <Num_Resolved_Atoms>  (530) 
nan

>  <Num_Not_Resolved_Atoms>  (530) 
nan

$$$$
CHEMBL3699261
     RDKit          3D

  0  0  0  0  0  0  0  0  0  0999 V3000
M  V30 BEGIN CTAB
M  V30 COUNTS 63 67 0 0 0
M  V30 BEGIN ATOM
M  V30 1 C 5.091920 -1.787224 6.655856 0
M  V30 2 O 4.645196 -0.483861 6.329917 0
M  V30 3 C 3.914559 -0.188795 5.208406 0
M  V30 4 O 3.718851 -1.241551 4.540157 0
M  V30 5 N 3.381204 1.010772 4.711473 0
M  V30 6 C 2.621814 1.057036 3.464257 0 CFG=2
M  V30 7 C 3.360040 1.983082 2.542299 0
M  V30 8 C 2.740966 2.117058 1.170286 0
M  V30 9 N 1.311767 1.951811 1.336030 0
M  V30 10 C 0.278553 1.398123 0.534389 0
M  V30 11 C -0.820421 2.188597 0.280277 0
M  V30 12 C -1.878095 1.722011 -0.470556 0
M  V30 13 C -3.053358 2.486165 -0.776509 0
M  V30 14 N -4.005302 3.082182 -1.027733 0
M  V30 15 C -1.765030 0.432042 -0.942823 0
M  V30 16 C -0.656108 -0.366889 -0.687763 0
M  V30 17 N -0.595062 -1.683733 -1.223422 0
M  V30 18 C -1.534796 -2.455898 -1.963935 0
M  V30 19 N -1.920692 -2.460451 -3.244248 0
M  V30 20 C -2.818002 -3.312210 -3.700360 0
M  V30 21 N -3.158589 -3.217299 -5.077221 0
M  V30 22 C -2.768390 -2.375110 -6.155238 0
M  V30 23 C -3.132616 -0.919936 -6.029752 0
M  V30 24 C -1.691584 -1.350283 -5.967974 0
M  V30 25 C -3.375013 -4.221684 -2.846980 0
M  V30 26 N -4.297654 -5.167545 -3.117128 0
M  V30 27 C -4.525195 -5.814644 -1.953881 0
M  V30 28 C -3.724819 -5.231382 -1.016072 0
M  V30 29 C -3.650394 -5.616513 0.367314 0
M  V30 30 N -3.576049 -5.933172 1.456361 0
M  V30 31 N -3.004775 -4.235965 -1.567782 0
M  V30 32 N -2.106489 -3.368072 -1.151907 0
M  V30 33 C 0.380247 0.115240 0.058432 0
M  V30 34 Cl 1.756944 -0.896698 0.366122 0
M  V30 35 C 0.826756 2.470581 2.598841 0
M  V30 36 C 1.194935 1.485841 3.707343 0 CFG=1
M  V30 37 O 0.378479 0.387298 3.522878 0
M  V30 38 C -0.502708 0.148022 4.555423 0
M  V30 39 H 4.521781 -2.565396 6.105308 0
M  V30 40 H 6.151448 -1.869880 6.346274 0
M  V30 41 H 5.084963 -1.955672 7.759092 0
M  V30 42 H 3.603229 1.835794 5.347462 0
M  V30 43 H 2.657900 0.027184 3.074123 0
M  V30 44 H 4.430958 1.706400 2.492306 0
M  V30 45 H 3.327904 3.003144 3.017578 0
M  V30 46 H 2.899716 3.178364 0.810462 0
M  V30 47 H 3.191744 1.476164 0.399999 0
M  V30 48 H -0.882155 3.201317 0.666028 0
M  V30 49 H -2.575663 0.042127 -1.530654 0
M  V30 50 H 0.276206 -2.257387 -1.089748 0
M  V30 51 H -3.872861 -3.937249 -5.373152 0
M  V30 52 H -2.809453 -2.855999 -7.170992 0
M  V30 53 H -3.660429 -0.568853 -5.132805 0
M  V30 54 H -3.466832 -0.455183 -7.000778 0
M  V30 55 H -1.155270 -1.196734 -5.023258 0
M  V30 56 H -1.045922 -1.082122 -6.858480 0
M  V30 57 H -5.202822 -6.641539 -1.765420 0
M  V30 58 H 1.337998 3.443216 2.796029 0
M  V30 59 H -0.254628 2.707441 2.606434 0
M  V30 60 H 1.043910 2.027269 4.646951 0
M  V30 61 H -1.208276 0.990088 4.746829 0
M  V30 62 H 0.054426 -0.183568 5.452601 0
M  V30 63 H -1.144425 -0.708440 4.213326 0
M  V30 END ATOM
M  V30 BEGIN BOND
M  V30 1 1 1 2
M  V30 2 1 2 3
M  V30 3 2 3 4
M  V30 4 1 3 5
M  V30 5 1 5 6
M  V30 6 1 6 7
M  V30 7 1 7 8
M  V30 8 1 8 9
M  V30 9 1 9 10
M  V30 10 2 10 11
M  V30 11 1 11 12
M  V30 12 1 12 13
M  V30 13 3 13 14
M  V30 14 2 12 15
M  V30 15 1 15 16
M  V30 16 1 16 17
M  V30 17 1 17 18
M  V30 18 1 18 19
M  V30 19 2 19 20
M  V30 20 1 20 21
M  V30 21 1 21 22
M  V30 22 1 22 23
M  V30 23 1 23 24
M  V30 24 1 20 25
M  V30 25 2 25 26
M  V30 26 1 26 27
M  V30 27 2 27 28
M  V30 28 1 28 29
M  V30 29 3 29 30
M  V30 30 1 28 31
M  V30 31 1 31 32
M  V30 32 2 16 33
M  V30 33 1 33 34
M  V30 34 1 9 35
M  V30 35 1 35 36
M  V30 36 1 36 37
M  V30 37 1 37 38
M  V30 38 1 36 6
M  V30 39 1 33 10
M  V30 40 2 32 18
M  V30 41 1 24 22
M  V30 42 1 31 25
M  V30 43 1 1 39
M  V30 44 1 1 40
M  V30 45 1 1 41
M  V30 46 1 5 42
M  V30 47 1 6 43 CFG=3
M  V30 48 1 7 44
M  V30 49 1 7 45
M  V30 50 1 8 46
M  V30 51 1 8 47
M  V30 52 1 11 48
M  V30 53 1 15 49
M  V30 54 1 17 50
M  V30 55 1 21 51
M  V30 56 1 22 52
M  V30 57 1 23 53
M  V30 58 1 23 54
M  V30 59 1 24 55
M  V30 60 1 24 56
M  V30 61 1 27 57
M  V30 62 1 35 58
M  V30 63 1 35 59
M  V30 64 1 36 60 CFG=1
M  V30 65 1 38 61
M  V30 66 1 38 62
M  V30 67 1 38 63
M  V30 END BOND
M  V30 END CTAB
M  END
>  <Dataset>  (531) 
ChEMBL_Kinases

>  <Ligand_Instance>  (531) 
nan

>  <PDB_ID>  (531) 
nan

>  <Standardized_SMILES>  (531) 
COC(=O)N[C@@H]1CCN(c2cc(C#N)cc(Nc3nc(NC4CC4)c4ncc(C#N)n4n3)c2Cl)C[C@H]1OC

>  <Name>  (531) 
nan

>  <Pocket>  (531) 
nan

>  <ATP_Site>  (531) 
nan

>  <Peripheral>  (531) 
nan

>  <Num_H_Atoms_ProtBoundConf>  (531) 
nan

>  <Num_Resolved_Atoms>  (531) 
nan

>  <Num_Not_Resolved_Atoms>  (531) 
nan

$$$$
CHEMBL449158
     RDKit          3D

  0  0  0  0  0  0  0  0  0  0999 V3000
M  V30 BEGIN CTAB
M  V30 COUNTS 132 135 0 0 0
M  V30 BEGIN ATOM
M  V30 1 C 6.736436 -8.255041 4.301526 0
M  V30 2 C 6.041022 -7.426109 3.269973 0
M  V30 3 C 6.876635 -6.207070 2.859673 0
M  V30 4 C 6.144829 -5.431124 1.847548 0
M  V30 5 C 6.564857 -5.134704 0.611004 0
M  V30 6 C 5.734985 -4.356197 -0.295338 0
M  V30 7 C 5.953491 -3.965673 -1.532077 0
M  V30 8 C 4.802833 -3.222463 -1.964539 0
M  V30 9 O 3.787782 -2.623026 -2.217849 0
M  V30 10 O 3.685856 -2.558561 -2.246767 0
M  V30 11 C 2.382520 -2.576893 -1.933896 0 CFG=1
M  V30 12 C 1.887736 -1.588862 -0.905031 0
M  V30 13 C 2.738429 -0.708112 -0.411509 0
M  V30 14 C 2.298412 0.253951 0.581830 0
M  V30 15 O 1.652532 0.935570 1.397886 0
M  V30 16 O 3.088197 1.206054 1.162990 0
M  V30 17 C 2.804987 2.167999 2.111433 0
M  V30 18 C 0.457849 -1.702626 -0.540458 0
M  V30 19 C -0.225571 -2.756881 -1.310950 0 CFG=1
M  V30 20 C -1.701638 -2.325415 -1.443495 0
M  V30 21 C -2.485876 -2.832628 -0.284050 0 CFG=2
M  V30 22 C -3.949192 -2.373769 -0.568069 0 CFG=1
M  V30 23 C -4.026033 -0.882262 -0.727489 0
M  V30 24 O -4.263308 -3.010082 -1.773362 0
M  V30 25 O -2.048320 -2.259764 0.899462 0
M  V30 26 C -1.845850 -2.923425 2.102498 0
M  V30 27 O -2.050281 -4.151192 2.233489 0
M  V30 28 C -1.368456 -2.271900 3.363658 0
M  V30 29 C -1.085319 -0.808104 3.132351 0 CFG=2
M  V30 30 O -0.542169 -0.324344 4.343200 0
M  V30 31 C -2.323422 0.002389 2.786549 0
M  V30 32 C -1.971834 1.387049 2.365356 0 CFG=2
M  V30 33 C -2.120784 2.368099 3.482877 0
M  V30 34 C -1.755348 3.772067 2.989803 0 CFG=2
M  V30 35 O -2.023384 4.667521 4.032184 0
M  V30 36 C -1.035118 5.480337 4.581350 0
M  V30 37 C -0.895355 6.512163 5.631784 0
M  V30 38 O 0.092168 5.288038 4.022231 0
M  V30 39 C -2.647012 4.020528 1.760716 0
M  V30 40 C -4.070968 3.870442 2.260203 0
M  V30 41 C -2.358192 5.420393 1.270289 0
M  V30 42 C -2.318373 2.972650 0.749210 0 CFG=2
M  V30 43 O -0.945975 2.987466 0.498204 0
M  V30 44 C -2.980923 3.135964 -0.589029 0
M  V30 45 C -2.072002 2.919610 -1.764285 0 CFG=2
M  V30 46 C -2.865203 3.351054 -2.991873 0
M  V30 47 C -3.442928 2.199479 -3.731122 0
M  V30 48 C -4.679825 2.077948 -4.205745 0
M  V30 49 C -5.105901 0.896513 -4.907589 0
M  V30 50 O -6.329300 0.976815 -5.286386 0
M  V30 51 O -4.871300 -0.342196 -5.409770 0
M  V30 52 C -5.732712 -1.181629 -6.099995 0
M  V30 53 C -2.536476 1.037515 -3.975686 0
M  V30 54 C -1.274877 1.371116 -3.214618 0 CFG=2
M  V30 55 C -0.184009 0.419927 -3.450692 0
M  V30 56 C -0.032314 -0.846417 -3.851178 0
M  V30 57 C 1.230817 -1.664323 -4.034282 0
M  V30 58 C 2.331349 -0.700284 -4.265089 0
M  V30 59 C 1.020436 -2.324086 -5.419661 0
M  V30 60 C 1.390106 -2.726850 -3.036812 0 CFG=1
M  V30 61 O 1.819297 -3.914290 -3.699378 0
M  V30 62 O 0.149439 -3.056275 -2.570243 0
M  V30 63 O -1.614028 1.612958 -1.908551 0
M  V30 64 O -2.732990 1.733928 1.250591 0
M  V30 65 H 7.826256 -8.305799 4.150429 0
M  V30 66 H 6.545704 -7.888883 5.314402 0
M  V30 67 H 6.365959 -9.322337 4.293215 0
M  V30 68 H 5.061382 -7.054179 3.668790 0
M  V30 69 H 5.784592 -8.052694 2.409666 0
M  V30 70 H 7.818817 -6.592223 2.435744 0
M  V30 71 H 6.999029 -5.540580 3.735234 0
M  V30 72 H 5.165892 -5.099567 2.229119 0
M  V30 73 H 7.565304 -5.542482 0.456072 0
M  V30 74 H 4.768465 -4.087640 0.194669 0
M  V30 75 H 6.838622 -4.263500 -1.975960 0
M  V30 76 H 2.203804 -3.525376 -1.301500 0
M  V30 77 H 3.782297 -0.574525 -0.641608 0
M  V30 78 H 2.528775 1.792067 3.121197 0
M  V30 79 H 2.065973 2.917802 1.765180 0
M  V30 80 H 3.753090 2.789064 2.236887 0
M  V30 81 H 0.011010 -0.691973 -0.629469 0
M  V30 82 H 0.321700 -1.964679 0.532479 0
M  V30 83 H -0.196426 -3.706314 -0.714230 0
M  V30 84 H -2.122957 -2.767089 -2.407849 0
M  V30 85 H -1.775996 -1.252701 -1.597241 0
M  V30 86 H -2.581572 -3.926434 -0.205434 0
M  V30 87 H -4.608136 -2.785098 0.192769 0
M  V30 88 H -4.887139 -0.542884 -0.096721 0
M  V30 89 H -3.117212 -0.349944 -0.443858 0
M  V30 90 H -4.263513 -0.587162 -1.789288 0
M  V30 91 H -5.200709 -2.818222 -1.958073 0
M  V30 92 H -0.454339 -2.814738 3.672779 0
M  V30 93 H -2.201784 -2.416721 4.090723 0
M  V30 94 H -0.342260 -0.670681 2.359996 0
M  V30 95 H 0.125610 -1.030573 4.608416 0
M  V30 96 H -2.953263 0.036016 3.727724 0
M  V30 97 H -2.935457 -0.563239 2.074569 0
M  V30 98 H -0.882574 1.374745 2.111456 0
M  V30 99 H -1.433769 2.100236 4.301370 0
M  V30 100 H -3.165348 2.391967 3.841706 0
M  V30 101 H -0.697950 3.840801 2.724072 0
M  V30 102 H -1.827719 6.705048 6.190230 0
M  V30 103 H -0.529788 7.439840 5.110420 0
M  V30 104 H -0.046407 6.221557 6.304512 0
M  V30 105 H -4.774970 4.550727 1.741555 0
M  V30 106 H -4.389025 2.835432 2.110527 0
M  V30 107 H -4.129993 4.144318 3.344201 0
M  V30 108 H -1.695920 5.307295 0.382085 0
M  V30 109 H -1.784949 5.952058 2.032052 0
M  V30 110 H -3.284916 5.976740 1.036797 0
M  V30 111 H -0.696046 2.099752 0.186343 0
M  V30 112 H -3.378820 4.183942 -0.706758 0
M  V30 113 H -3.830150 2.403014 -0.731325 0
M  V30 114 H -1.151372 3.560862 -1.689036 0
M  V30 115 H -2.217869 3.972126 -3.673820 0
M  V30 116 H -3.682136 4.053117 -2.695544 0
M  V30 117 H -5.307912 2.922960 -4.016999 0
M  V30 118 H -6.772488 -0.985714 -5.855553 0
M  V30 119 H -5.554229 -1.046776 -7.201520 0
M  V30 120 H -5.488363 -2.237238 -5.810697 0
M  V30 121 H -2.358342 0.967020 -5.077352 0
M  V30 122 H -2.979633 0.090896 -3.677419 0
M  V30 123 H -0.950286 2.371501 -3.636783 0
M  V30 124 H 0.823103 0.834473 -3.244252 0
M  V30 125 H -0.961189 -1.383232 -4.087939 0
M  V30 126 H 3.160739 -1.277140 -4.763989 0
M  V30 127 H 1.978025 -0.004751 -5.072965 0
M  V30 128 H 2.680463 -0.180778 -3.358484 0
M  V30 129 H 0.961725 -1.503439 -6.128840 0
M  V30 130 H 0.171712 -3.017753 -5.411033 0
M  V30 131 H 1.954850 -2.878962 -5.612525 0
M  V30 132 H 1.483627 -4.720879 -3.201184 0
M  V30 END ATOM
M  V30 BEGIN BOND
M  V30 1 1 1 2
M  V30 2 1 2 3
M  V30 3 1 3 4
M  V30 4 2 4 5
M  V30 5 1 5 6
M  V30 6 2 6 7
M  V30 7 1 7 8
M  V30 8 2 8 9
M  V30 9 1 8 10
M  V30 10 1 10 11
M  V30 11 1 11 12
M  V30 12 2 12 13
M  V30 13 1 13 14
M  V30 14 2 14 15
M  V30 15 1 14 16
M  V30 16 1 16 17
M  V30 17 1 12 18
M  V30 18 1 18 19
M  V30 19 1 19 20
M  V30 20 1 20 21
M  V30 21 1 21 22
M  V30 22 1 22 23
M  V30 23 1 22 24
M  V30 24 1 21 25
M  V30 25 1 25 26
M  V30 26 2 26 27
M  V30 27 1 26 28
M  V30 28 1 28 29
M  V30 29 1 29 30
M  V30 30 1 29 31
M  V30 31 1 31 32
M  V30 32 1 32 33
M  V30 33 1 33 34
M  V30 34 1 34 35
M  V30 35 1 35 36
M  V30 36 1 36 37
M  V30 37 2 36 38
M  V30 38 1 34 39
M  V30 39 1 39 40
M  V30 40 1 39 41
M  V30 41 1 39 42
M  V30 42 1 42 43 CFG=3
M  V30 43 1 42 44
M  V30 44 1 44 45
M  V30 45 1 45 46
M  V30 46 1 46 47
M  V30 47 2 47 48
M  V30 48 1 48 49
M  V30 49 2 49 50
M  V30 50 1 49 51
M  V30 51 1 51 52
M  V30 52 1 47 53
M  V30 53 1 53 54
M  V30 54 1 54 55
M  V30 55 2 55 56
M  V30 56 1 56 57
M  V30 57 1 57 58
M  V30 58 1 57 59
M  V30 59 1 57 60
M  V30 60 1 60 61 CFG=3
M  V30 61 1 60 62
M  V30 62 1 54 63
M  V30 63 1 42 64
M  V30 64 1 60 11
M  V30 65 1 62 19
M  V30 66 1 64 32
M  V30 67 1 63 45
M  V30 68 1 1 65
M  V30 69 1 1 66
M  V30 70 1 1 67
M  V30 71 1 2 68
M  V30 72 1 2 69
M  V30 73 1 3 70
M  V30 74 1 3 71
M  V30 75 1 4 72
M  V30 76 1 5 73
M  V30 77 1 6 74
M  V30 78 1 7 75
M  V30 79 1 11 76 CFG=1
M  V30 80 1 13 77
M  V30 81 1 17 78
M  V30 82 1 17 79
M  V30 83 1 17 80
M  V30 84 1 18 81
M  V30 85 1 18 82
M  V30 86 1 19 83 CFG=1
M  V30 87 1 20 84
M  V30 88 1 20 85
M  V30 89 1 21 86 CFG=1
M  V30 90 1 22 87 CFG=1
M  V30 91 1 23 88
M  V30 92 1 23 89
M  V30 93 1 23 90
M  V30 94 1 24 91
M  V30 95 1 28 92
M  V30 96 1 28 93
M  V30 97 1 29 94 CFG=3
M  V30 98 1 30 95
M  V30 99 1 31 96
M  V30 100 1 31 97
M  V30 101 1 32 98 CFG=3
M  V30 102 1 33 99
M  V30 103 1 33 100
M  V30 104 1 34 101 CFG=3
M  V30 105 1 37 102
M  V30 106 1 37 103
M  V30 107 1 37 104
M  V30 108 1 40 105
M  V30 109 1 40 106
M  V30 110 1 40 107
M  V30 111 1 41 108
M  V30 112 1 41 109
M  V30 113 1 41 110
M  V30 114 1 43 111
M  V30 115 1 44 112
M  V30 116 1 44 113
M  V30 117 1 45 114 CFG=1
M  V30 118 1 46 115
M  V30 119 1 46 116
M  V30 120 1 48 117
M  V30 121 1 52 118
M  V30 122 1 52 119
M  V30 123 1 52 120
M  V30 124 1 53 121
M  V30 125 1 53 122
M  V30 126 1 54 123 CFG=3
M  V30 127 1 55 124
M  V30 128 1 56 125
M  V30 129 1 58 126
M  V30 130 1 58 127
M  V30 131 1 58 128
M  V30 132 1 59 129
M  V30 133 1 59 130
M  V30 134 1 59 131
M  V30 135 1 61 132
M  V30 END BOND
M  V30 END CTAB
M  END
>  <Dataset>  (532) 
ChEMBL_Kinases

>  <Ligand_Instance>  (532) 
nan

>  <PDB_ID>  (532) 
nan

>  <Standardized_SMILES>  (532) 
CCC/C=C/C=C/C(=O)O[C@H]1/C(=C/C(=O)OC)C[C@H]2C[C@H]([C@@H](C)O)OC(=O)C[C@H](O)C[C@@H]3C[C@H](OC(C)=O)C(C)(C)[C@](O)(C[C@@H]4C/C(=C/C(=O)OC)C[C@H](/C=C/C(C)(C)[C@]1(O)O2)O4)O3

>  <Name>  (532) 
BRYOSTATIN 1

>  <Pocket>  (532) 
nan

>  <ATP_Site>  (532) 
nan

>  <Peripheral>  (532) 
nan

>  <Num_H_Atoms_ProtBoundConf>  (532) 
nan

>  <Num_Resolved_Atoms>  (532) 
nan

>  <Num_Not_Resolved_Atoms>  (532) 
nan

$$$$
CHEMBL448443
     RDKit          3D

  0  0  0  0  0  0  0  0  0  0999 V3000
M  V30 BEGIN CTAB
M  V30 COUNTS 21 22 0 0 0
M  V30 BEGIN ATOM
M  V30 1 O -1.026616 -1.536329 5.003473 0
M  V30 2 C -0.056202 -1.372339 4.252228 0
M  V30 3 N 1.094135 -2.162942 3.960221 0
M  V30 4 C 1.818514 -1.991173 2.812553 0
M  V30 5 O 2.844487 -2.609422 2.425367 0
M  V30 6 C 1.251792 -0.946323 2.013563 0
M  V30 7 C 1.288175 -0.593281 0.751656 0
M  V30 8 C 0.739525 0.438300 -0.092238 0
M  V30 9 C 0.221508 0.019512 -1.293534 0
M  V30 10 C -0.332233 0.853337 -2.281431 0
M  V30 11 C -0.301695 2.182957 -1.923938 0
M  V30 12 C 0.190437 2.753866 -0.750977 0
M  V30 13 F 0.194320 4.068110 -0.451726 0
M  V30 14 C 0.702895 1.789191 0.128666 0
M  V30 15 S 0.265002 0.055582 3.157340 0
M  V30 16 H 1.377987 -2.904529 4.679970 0
M  V30 17 H 1.939848 -1.295035 0.198290 0
M  V30 18 H 0.174201 -1.029334 -1.620432 0
M  V30 19 H -0.742046 0.540193 -3.227279 0
M  V30 20 H -0.715732 2.902655 -2.650619 0
M  V30 21 H 1.119537 2.122168 1.077404 0
M  V30 END ATOM
M  V30 BEGIN BOND
M  V30 1 2 1 2
M  V30 2 1 2 3
M  V30 3 1 3 4
M  V30 4 2 4 5
M  V30 5 1 4 6
M  V30 6 2 6 7
M  V30 7 1 7 8
M  V30 8 2 8 9
M  V30 9 1 9 10
M  V30 10 2 10 11
M  V30 11 1 11 12
M  V30 12 1 12 13
M  V30 13 2 12 14
M  V30 14 1 6 15
M  V30 15 1 15 2
M  V30 16 1 14 8
M  V30 17 1 3 16
M  V30 18 1 7 17
M  V30 19 1 9 18
M  V30 20 1 10 19
M  V30 21 1 11 20
M  V30 22 1 14 21
M  V30 END BOND
M  V30 END CTAB
M  END
>  <Dataset>  (533) 
ChEMBL_Kinases

>  <Ligand_Instance>  (533) 
nan

>  <PDB_ID>  (533) 
nan

>  <Standardized_SMILES>  (533) 
O=C1NC(=O)/C(=C/c2cccc(F)c2)S1

>  <Name>  (533) 
nan

>  <Pocket>  (533) 
nan

>  <ATP_Site>  (533) 
nan

>  <Peripheral>  (533) 
nan

>  <Num_H_Atoms_ProtBoundConf>  (533) 
nan

>  <Num_Resolved_Atoms>  (533) 
nan

>  <Num_Not_Resolved_Atoms>  (533) 
nan

$$$$
CHEMBL4483816
     RDKit          3D

  0  0  0  0  0  0  0  0  0  0999 V3000
M  V30 BEGIN CTAB
M  V30 COUNTS 50 54 0 0 0
M  V30 BEGIN ATOM
M  V30 1 C 2.028074 0.510574 5.780800 0
M  V30 2 C 2.623505 -0.573390 4.953241 0
M  V30 3 C 2.544402 -1.867307 5.489052 0
M  V30 4 C 3.113308 -2.842206 4.667064 0
M  V30 5 C 3.692994 -2.577696 3.457597 0
M  V30 6 C 3.739892 -1.286534 2.984018 0
M  V30 7 C 4.267541 -0.678468 1.727725 0
M  V30 8 N 3.202777 -0.462338 0.767081 0
M  V30 9 N 2.545777 0.705094 0.867535 0
M  V30 10 C 1.585094 0.801668 -0.033667 0
M  V30 11 C 0.660780 1.946450 -0.228103 0
M  V30 12 C 1.602495 -0.351833 -0.767014 0
M  V30 13 C 0.915648 -0.889491 -1.808391 0
M  V30 14 N -0.165818 -0.079328 -2.338654 0
M  V30 15 C -1.288894 -0.498869 -1.571470 0
M  V30 16 O -1.101769 -1.380703 -0.709161 0
M  V30 17 C -2.621240 0.106479 -1.804719 0
M  V30 18 C -2.758065 1.264511 -2.611351 0
M  V30 19 S -4.618125 1.578228 -2.554700 0
M  V30 20 C -4.946765 0.232167 -1.544465 0
M  V30 21 C -6.202855 -0.165129 -1.068100 0
M  V30 22 N -7.359152 0.576983 -1.421855 0
M  V30 23 N -6.291624 -1.257990 -0.270086 0
M  V30 24 C -5.097523 -1.860006 -0.019645 0
M  V30 25 N -3.932892 -1.446775 -0.493287 0
M  V30 26 C -3.781347 -0.372382 -1.287970 0
M  V30 27 C 1.228745 -2.145268 -2.316902 0
M  V30 28 C 2.272621 -2.886281 -1.754005 0
M  V30 29 C 2.997194 -2.358434 -0.678857 0
M  V30 30 C 2.615919 -1.114241 -0.247040 0
M  V30 31 N 3.194250 -0.304637 3.759645 0
M  V30 32 H 0.918571 0.373908 5.762345 0
M  V30 33 H 2.211042 1.508508 5.299266 0
M  V30 34 H 2.335795 0.465546 6.835899 0
M  V30 35 H 2.097779 -2.097979 6.429143 0
M  V30 36 H 3.115949 -3.883476 4.971964 0
M  V30 37 H 4.150203 -3.246022 2.765381 0
M  V30 38 H 4.853615 0.236600 1.934537 0
M  V30 39 H 4.984666 -1.394562 1.242565 0
M  V30 40 H -0.171391 1.976968 0.500893 0
M  V30 41 H 0.381397 2.086309 -1.269792 0
M  V30 42 H 1.273133 2.860913 0.033881 0
M  V30 43 H -0.224832 0.644686 -3.078750 0
M  V30 44 H -1.882805 1.813263 -3.136019 0
M  V30 45 H -7.891788 1.131820 -0.685328 0
M  V30 46 H -7.786286 0.651786 -2.392201 0
M  V30 47 H -5.059970 -2.759867 0.619868 0
M  V30 48 H 0.646086 -2.538464 -3.160466 0
M  V30 49 H 2.481593 -3.861673 -2.184354 0
M  V30 50 H 3.803819 -2.932552 -0.243883 0
M  V30 END ATOM
M  V30 BEGIN BOND
M  V30 1 1 1 2
M  V30 2 2 2 3
M  V30 3 1 3 4
M  V30 4 2 4 5
M  V30 5 1 5 6
M  V30 6 1 6 7
M  V30 7 1 7 8
M  V30 8 1 8 9
M  V30 9 2 9 10
M  V30 10 1 10 11
M  V30 11 1 10 12
M  V30 12 2 12 13
M  V30 13 1 13 14
M  V30 14 1 14 15
M  V30 15 2 15 16
M  V30 16 1 15 17
M  V30 17 2 17 18
M  V30 18 1 18 19
M  V30 19 1 19 20
M  V30 20 2 20 21
M  V30 21 1 21 22
M  V30 22 1 21 23
M  V30 23 2 23 24
M  V30 24 1 24 25
M  V30 25 2 25 26
M  V30 26 1 13 27
M  V30 27 2 27 28
M  V30 28 1 28 29
M  V30 29 2 29 30
M  V30 30 2 6 31
M  V30 31 1 31 2
M  V30 32 1 30 8
M  V30 33 1 30 12
M  V30 34 1 26 17
M  V30 35 1 26 20
M  V30 36 1 1 32
M  V30 37 1 1 33
M  V30 38 1 1 34
M  V30 39 1 3 35
M  V30 40 1 4 36
M  V30 41 1 5 37
M  V30 42 1 7 38
M  V30 43 1 7 39
M  V30 44 1 11 40
M  V30 45 1 11 41
M  V30 46 1 11 42
M  V30 47 1 14 43
M  V30 48 1 18 44
M  V30 49 1 22 45
M  V30 50 1 22 46
M  V30 51 1 24 47
M  V30 52 1 27 48
M  V30 53 1 28 49
M  V30 54 1 29 50
M  V30 END BOND
M  V30 END CTAB
M  END
>  <Dataset>  (534) 
ChEMBL_Kinases

>  <Ligand_Instance>  (534) 
nan

>  <PDB_ID>  (534) 
nan

>  <Standardized_SMILES>  (534) 
Cc1cccc(Cn2nc(C)c3c(NC(=O)c4csc5c(N)ncnc45)cccc32)n1

>  <Name>  (534) 
nan

>  <Pocket>  (534) 
nan

>  <ATP_Site>  (534) 
nan

>  <Peripheral>  (534) 
nan

>  <Num_H_Atoms_ProtBoundConf>  (534) 
nan

>  <Num_Resolved_Atoms>  (534) 
nan

>  <Num_Not_Resolved_Atoms>  (534) 
nan

$$$$
CHEMBL4483646
     RDKit          3D

  0  0  0  0  0  0  0  0  0  0999 V3000
M  V30 BEGIN CTAB
M  V30 COUNTS 58 61 0 0 0
M  V30 BEGIN ATOM
M  V30 1 C 0.619297 0.352843 4.824779 0
M  V30 2 N 0.882032 -0.316638 3.578928 0
M  V30 3 C 1.148480 -1.727451 3.763563 0
M  V30 4 C 1.986128 0.274390 2.839142 0
M  V30 5 C 2.233903 -0.449433 1.544560 0
M  V30 6 O 1.192469 -0.480851 0.648200 0
M  V30 7 C 0.526167 0.522265 -0.001750 0
M  V30 8 C 0.596770 1.895456 -0.052374 0
M  V30 9 C -0.252285 2.640694 -0.838571 0
M  V30 10 C -0.041063 4.082300 -0.774220 0
M  V30 11 C -1.101701 4.964856 -0.939282 0
M  V30 12 C -0.927974 6.332056 -0.883030 0
M  V30 13 N 0.283319 6.864975 -0.664738 0
M  V30 14 C 1.326655 6.031821 -0.501682 0
M  V30 15 C 1.201187 4.639400 -0.550137 0
M  V30 16 C -1.217027 2.035202 -1.614956 0
M  V30 17 C -1.326523 0.660029 -1.597836 0
M  V30 18 C -0.457769 -0.091724 -0.794040 0
M  V30 19 N -0.760275 -1.496502 -0.939168 0
M  V30 20 C -1.732919 -1.836248 0.042681 0
M  V30 21 O -2.059946 -0.829731 0.761648 0
M  V30 22 C -2.312631 -3.199632 0.224967 0
M  V30 23 C -3.017296 -3.687067 -0.998892 0
M  V30 24 O -2.575862 -4.932449 -1.479815 0
M  V30 25 C -1.283440 -5.414971 -1.386366 0
M  V30 26 C -0.603757 -6.221471 -2.261958 0
M  V30 27 C 0.693906 -6.609286 -2.006431 0
M  V30 28 C 1.350777 -6.200225 -0.864211 0
M  V30 29 F 2.619378 -6.553044 -0.570667 0
M  V30 30 C 0.675630 -5.388094 0.023958 0
M  V30 31 C -0.641844 -4.997726 -0.241163 0
M  V30 32 C -1.280295 -4.121347 0.780843 0
M  V30 33 H 0.935422 -0.268899 5.704319 0
M  V30 34 H -0.475809 0.522209 4.916107 0
M  V30 35 H 1.108427 1.329733 4.861903 0
M  V30 36 H 0.932054 -2.282883 2.821154 0
M  V30 37 H 2.222410 -1.837410 4.038414 0
M  V30 38 H 0.518693 -2.168524 4.567667 0
M  V30 39 H 2.903625 0.063572 3.473401 0
M  V30 40 H 1.888981 1.339307 2.659886 0
M  V30 41 H 3.155495 -0.010885 1.084631 0
M  V30 42 H 2.520767 -1.510133 1.778016 0
M  V30 43 H 1.372585 2.258578 0.573712 0
M  V30 44 H -2.066321 4.550645 -1.112973 0
M  V30 45 H -1.820943 6.944493 -1.024544 0
M  V30 46 H 2.301130 6.458508 -0.326070 0
M  V30 47 H 2.023030 3.973624 -0.421823 0
M  V30 48 H -1.848355 2.687961 -2.207201 0
M  V30 49 H -2.105094 0.283824 -2.233644 0
M  V30 50 H -0.427031 -2.258726 -1.580251 0
M  V30 51 H -3.109690 -3.067527 1.014752 0
M  V30 52 H -2.922433 -2.980627 -1.861710 0
M  V30 53 H -4.124503 -3.793670 -0.860133 0
M  V30 54 H -1.172630 -6.510514 -3.141795 0
M  V30 55 H 1.200681 -7.246099 -2.718606 0
M  V30 56 H 1.180480 -5.054123 0.934366 0
M  V30 57 H -1.707367 -4.717082 1.609730 0
M  V30 58 H -0.482485 -3.485600 1.265975 0
M  V30 END ATOM
M  V30 BEGIN BOND
M  V30 1 1 1 2
M  V30 2 1 2 3
M  V30 3 1 2 4
M  V30 4 1 4 5
M  V30 5 1 5 6
M  V30 6 1 6 7
M  V30 7 2 7 8
M  V30 8 1 8 9
M  V30 9 1 9 10
M  V30 10 2 10 11
M  V30 11 1 11 12
M  V30 12 2 12 13
M  V30 13 1 13 14
M  V30 14 2 14 15
M  V30 15 2 9 16
M  V30 16 1 16 17
M  V30 17 2 17 18
M  V30 18 1 18 19
M  V30 19 1 19 20
M  V30 20 2 20 21
M  V30 21 1 20 22
M  V30 22 1 22 23
M  V30 23 1 23 24
M  V30 24 1 24 25
M  V30 25 2 25 26
M  V30 26 1 26 27
M  V30 27 2 27 28
M  V30 28 1 28 29
M  V30 29 1 28 30
M  V30 30 2 30 31
M  V30 31 1 31 32
M  V30 32 1 18 7
M  V30 33 1 32 22
M  V30 34 1 15 10
M  V30 35 1 31 25
M  V30 36 1 1 33
M  V30 37 1 1 34
M  V30 38 1 1 35
M  V30 39 1 3 36
M  V30 40 1 3 37
M  V30 41 1 3 38
M  V30 42 1 4 39
M  V30 43 1 4 40
M  V30 44 1 5 41
M  V30 45 1 5 42
M  V30 46 1 8 43
M  V30 47 1 11 44
M  V30 48 1 12 45
M  V30 49 1 14 46
M  V30 50 1 15 47
M  V30 51 1 16 48
M  V30 52 1 17 49
M  V30 53 1 19 50
M  V30 54 1 22 51
M  V30 55 1 23 52
M  V30 56 1 23 53
M  V30 57 1 26 54
M  V30 58 1 27 55
M  V30 59 1 30 56
M  V30 60 1 32 57
M  V30 61 1 32 58
M  V30 END BOND
M  V30 END CTAB
M  END
>  <Dataset>  (535) 
ChEMBL_Kinases

>  <Ligand_Instance>  (535) 
nan

>  <PDB_ID>  (535) 
nan

>  <Standardized_SMILES>  (535) 
CN(C)CCOc1cc(-c2ccncc2)ccc1NC(=O)C1COc2ccc(F)cc2C1

>  <Name>  (535) 
nan

>  <Pocket>  (535) 
nan

>  <ATP_Site>  (535) 
nan

>  <Peripheral>  (535) 
nan

>  <Num_H_Atoms_ProtBoundConf>  (535) 
nan

>  <Num_Resolved_Atoms>  (535) 
nan

>  <Num_Not_Resolved_Atoms>  (535) 
nan

$$$$
CHEMBL3699260
     RDKit          3D

  0  0  0  0  0  0  0  0  0  0999 V3000
M  V30 BEGIN CTAB
M  V30 COUNTS 76 81 0 0 0
M  V30 BEGIN ATOM
M  V30 1 C 3.450383 -6.045689 2.356926 0
M  V30 2 N 4.036437 -5.479522 1.170876 0
M  V30 3 C 3.025421 -5.167579 0.164406 0
M  V30 4 C 3.685669 -4.757237 -1.115863 0
M  V30 5 N 4.618930 -3.660099 -0.933813 0
M  V30 6 C 3.840464 -2.463250 -0.816081 0
M  V30 7 C 4.667047 -1.240507 -0.632001 0
M  V30 8 O 5.861595 -0.802062 -0.531264 0
M  V30 9 N 3.811160 -0.124262 -0.525492 0
M  V30 10 C 4.152508 1.271525 -0.337802 0 CFG=2
M  V30 11 C 3.651427 1.799753 0.973023 0
M  V30 12 C 2.518754 2.772443 0.822987 0
M  V30 13 N 1.609282 2.366697 -0.263198 0
M  V30 14 C 0.315371 1.884052 0.086116 0
M  V30 15 C 0.200708 1.350470 1.374539 0
M  V30 16 C -0.981961 0.808181 1.816603 0
M  V30 17 C -1.134244 0.248761 3.144088 0
M  V30 18 N -1.246068 -0.221650 4.218214 0
M  V30 19 C -2.043592 0.812547 0.934315 0
M  V30 20 C -2.011729 1.316870 -0.346667 0
M  V30 21 N -3.101787 1.323789 -1.250167 0
M  V30 22 C -4.394538 0.790319 -1.041781 0
M  V30 23 N -4.846498 0.159643 0.048173 0
M  V30 24 C -6.076750 -0.339383 0.211980 0
M  V30 25 N -6.473686 -0.999238 1.401726 0
M  V30 26 C -5.624531 -1.197176 2.555247 0
M  V30 27 C -5.113178 -0.006340 3.262295 0
M  V30 28 C -6.234950 -0.808049 3.881214 0
M  V30 29 C -6.957684 -0.194228 -0.829727 0
M  V30 30 N -8.243827 -0.562695 -1.010705 0
M  V30 31 C -8.631235 -0.166768 -2.231197 0
M  V30 32 C -7.571740 0.466154 -2.839683 0
M  V30 33 C -7.561513 1.044905 -4.159424 0
M  V30 34 N -7.552566 1.505548 -5.231839 0
M  V30 35 N -6.546286 0.431742 -1.941991 0
M  V30 36 N -5.315241 0.891741 -2.014134 0
M  V30 37 C -0.794986 1.846165 -0.721166 0
M  V30 38 Cl -0.677230 2.531252 -2.324744 0
M  V30 39 C 2.293029 2.528388 -1.531654 0
M  V30 40 C 3.727734 2.077688 -1.522731 0 CFG=1
M  V30 41 O 4.622087 3.119414 -1.757301 0
M  V30 42 C 5.479182 -3.858704 0.198487 0
M  V30 43 C 4.713245 -4.219641 1.456491 0
M  V30 44 H 3.160642 -5.265183 3.101398 0
M  V30 45 H 4.130174 -6.740805 2.884402 0
M  V30 46 H 2.503479 -6.599414 2.146230 0
M  V30 47 H 2.399535 -4.362038 0.580384 0
M  V30 48 H 2.376578 -6.034676 -0.046049 0
M  V30 49 H 4.142801 -5.644770 -1.576602 0
M  V30 50 H 2.881934 -4.365903 -1.791492 0
M  V30 51 H 3.194151 -2.552658 0.077900 0
M  V30 52 H 3.206003 -2.315255 -1.717279 0
M  V30 53 H 2.760355 -0.054680 -0.558344 0
M  V30 54 H 5.260819 1.311326 -0.286263 0
M  V30 55 H 4.431304 2.297317 1.579363 0
M  V30 56 H 3.288391 0.941271 1.574590 0
M  V30 57 H 2.957496 3.750605 0.497357 0
M  V30 58 H 1.974503 2.983072 1.736943 0
M  V30 59 H 0.992918 1.295233 2.143566 0
M  V30 60 H -2.952252 0.374533 1.317124 0
M  V30 61 H -2.941350 1.773044 -2.184089 0
M  V30 62 H -7.440992 -1.378188 1.475492 0
M  V30 63 H -5.088844 -2.171562 2.606383 0
M  V30 64 H -4.184200 0.004400 3.859162 0
M  V30 65 H -5.344454 0.991052 2.841357 0
M  V30 66 H -6.016068 -1.409059 4.787414 0
M  V30 67 H -7.248659 -0.350396 3.886205 0
M  V30 68 H -9.627232 -0.344194 -2.620430 0
M  V30 69 H 2.289933 3.621277 -1.767211 0
M  V30 70 H 1.703196 2.031203 -2.318661 0
M  V30 71 H 3.842661 1.389077 -2.408606 0
M  V30 72 H 4.843435 3.249213 -2.706742 0
M  V30 73 H 6.021525 -2.925170 0.407625 0
M  V30 74 H 6.178501 -4.701548 -0.010998 0
M  V30 75 H 5.452906 -4.311008 2.278568 0
M  V30 76 H 3.938800 -3.499912 1.731470 0
M  V30 END ATOM
M  V30 BEGIN BOND
M  V30 1 1 1 2
M  V30 2 1 2 3
M  V30 3 1 3 4
M  V30 4 1 4 5
M  V30 5 1 5 6
M  V30 6 1 6 7
M  V30 7 2 7 8
M  V30 8 1 7 9
M  V30 9 1 9 10
M  V30 10 1 10 11
M  V30 11 1 11 12
M  V30 12 1 12 13
M  V30 13 1 13 14
M  V30 14 2 14 15
M  V30 15 1 15 16
M  V30 16 1 16 17
M  V30 17 3 17 18
M  V30 18 2 16 19
M  V30 19 1 19 20
M  V30 20 1 20 21
M  V30 21 1 21 22
M  V30 22 1 22 23
M  V30 23 2 23 24
M  V30 24 1 24 25
M  V30 25 1 25 26
M  V30 26 1 26 27
M  V30 27 1 27 28
M  V30 28 1 24 29
M  V30 29 2 29 30
M  V30 30 1 30 31
M  V30 31 2 31 32
M  V30 32 1 32 33
M  V30 33 3 33 34
M  V30 34 1 32 35
M  V30 35 1 35 36
M  V30 36 2 20 37
M  V30 37 1 37 38
M  V30 38 1 13 39
M  V30 39 1 39 40
M  V30 40 1 40 41
M  V30 41 1 5 42
M  V30 42 1 42 43
M  V30 43 1 43 2
M  V30 44 1 40 10
M  V30 45 1 37 14
M  V30 46 2 36 22
M  V30 47 1 28 26
M  V30 48 1 35 29
M  V30 49 1 1 44
M  V30 50 1 1 45
M  V30 51 1 1 46
M  V30 52 1 3 47
M  V30 53 1 3 48
M  V30 54 1 4 49
M  V30 55 1 4 50
M  V30 56 1 6 51
M  V30 57 1 6 52
M  V30 58 1 9 53
M  V30 59 1 10 54 CFG=1
M  V30 60 1 11 55
M  V30 61 1 11 56
M  V30 62 1 12 57
M  V30 63 1 12 58
M  V30 64 1 15 59
M  V30 65 1 19 60
M  V30 66 1 21 61
M  V30 67 1 25 62
M  V30 68 1 26 63
M  V30 69 1 27 64
M  V30 70 1 27 65
M  V30 71 1 28 66
M  V30 72 1 28 67
M  V30 73 1 31 68
M  V30 74 1 39 69
M  V30 75 1 39 70
M  V30 76 1 40 71 CFG=3
M  V30 77 1 41 72
M  V30 78 1 42 73
M  V30 79 1 42 74
M  V30 80 1 43 75
M  V30 81 1 43 76
M  V30 END BOND
M  V30 END CTAB
M  END
>  <Dataset>  (536) 
ChEMBL_Kinases

>  <Ligand_Instance>  (536) 
nan

>  <PDB_ID>  (536) 
nan

>  <Standardized_SMILES>  (536) 
CN1CCN(CC(=O)N[C@@H]2CCN(c3cc(C#N)cc(Nc4nc(NC5CC5)c5ncc(C#N)n5n4)c3Cl)C[C@H]2O)CC1

>  <Name>  (536) 
nan

>  <Pocket>  (536) 
nan

>  <ATP_Site>  (536) 
nan

>  <Peripheral>  (536) 
nan

>  <Num_H_Atoms_ProtBoundConf>  (536) 
nan

>  <Num_Resolved_Atoms>  (536) 
nan

>  <Num_Not_Resolved_Atoms>  (536) 
nan

$$$$
CHEMBL3699259
     RDKit          3D

  0  0  0  0  0  0  0  0  0  0999 V3000
M  V30 BEGIN CTAB
M  V30 COUNTS 65 70 0 0 0
M  V30 BEGIN ATOM
M  V30 1 N -4.971571 0.221318 3.825359 0
M  V30 2 C -4.029120 -0.113530 3.242766 0
M  V30 3 C -2.868267 -0.533168 2.500916 0
M  V30 4 C -1.598411 -0.057416 2.834834 0
M  V30 5 C -0.531146 -0.486440 2.098036 0
M  V30 6 N 0.774107 -0.021199 2.410108 0
M  V30 7 C 1.074003 0.884502 3.464445 0
M  V30 8 N 1.033538 2.194569 3.160789 0
M  V30 9 C 1.305995 3.137730 4.102101 0
M  V30 10 N 1.248115 4.503450 3.720321 0
M  V30 11 C 1.494507 5.662796 4.551096 0
M  V30 12 C 0.700945 5.970803 5.740011 0
M  V30 13 C 0.467808 6.792424 4.527138 0
M  V30 14 C 1.630369 2.773422 5.389539 0
M  V30 15 N 1.943310 3.443351 6.513970 0
M  V30 16 C 2.175881 2.549720 7.506492 0
M  V30 17 C 1.991492 1.288961 6.942141 0
M  V30 18 C 2.150316 0.062311 7.692149 0
M  V30 19 N 2.271038 -0.903001 8.302326 0
M  V30 20 N 1.659235 1.466544 5.647977 0
M  V30 21 N 1.393267 0.567713 4.726699 0
M  V30 22 C -0.708436 -1.357035 1.063671 0
M  V30 23 Cl 0.674345 -1.880619 0.148537 0
M  V30 24 C -1.946284 -1.830839 0.725782 0
M  V30 25 N -2.204555 -2.734918 -0.333981 0
M  V30 26 C -1.713680 -4.103943 -0.555973 0
M  V30 27 C -1.900586 -4.470240 -2.030692 0
M  V30 28 C -1.387815 -3.329058 -2.850128 0 CFG=1
M  V30 29 N -1.139362 -3.693619 -4.229536 0
M  V30 30 C 0.151194 -3.693448 -4.828306 0
M  V30 31 O 1.210378 -3.379951 -4.232268 0
M  V30 32 O 0.365010 -4.041256 -6.134309 0
M  V30 33 C 1.654608 -4.031301 -6.697615 0
M  V30 34 C 1.793255 -3.463280 -8.079620 0
M  V30 35 O 2.441322 -4.615624 -8.530814 0
M  V30 36 C 1.900677 -5.297105 -7.454182 0
M  V30 37 C -2.288231 -2.149521 -2.694024 0 CFG=2
M  V30 38 O -1.597458 -0.945094 -2.602925 0
M  V30 39 C -3.082486 -2.304811 -1.404909 0
M  V30 40 C -3.060825 -1.420788 1.449027 0
M  V30 41 H -1.536970 0.630255 3.665566 0
M  V30 42 H 1.607031 -0.338357 1.853206 0
M  V30 43 H 1.009450 4.789236 2.753353 0
M  V30 44 H 2.552773 6.049931 4.577290 0
M  V30 45 H 1.183712 6.452029 6.626327 0
M  V30 46 H -0.110359 5.269377 6.017830 0
M  V30 47 H 0.818122 7.835565 4.540526 0
M  V30 48 H -0.462533 6.601290 3.956521 0
M  V30 49 H 2.445053 2.763485 8.516760 0
M  V30 50 H -2.382629 -4.762819 0.032654 0
M  V30 51 H -0.684722 -4.252062 -0.226705 0
M  V30 52 H -1.211089 -5.331574 -2.224809 0
M  V30 53 H -2.921896 -4.790236 -2.252309 0
M  V30 54 H -0.392317 -3.056055 -2.394043 0
M  V30 55 H -1.987367 -3.966782 -4.781937 0
M  V30 56 H 2.491063 -3.732550 -6.040567 0
M  V30 57 H 2.551517 -2.627959 -8.118847 0
M  V30 58 H 0.884713 -3.290017 -8.654085 0
M  V30 59 H 2.633980 -6.011614 -7.048638 0
M  V30 60 H 0.967591 -5.868054 -7.697962 0
M  V30 61 H -2.967572 -2.092182 -3.565935 0
M  V30 62 H -2.129375 -0.282972 -2.069117 0
M  V30 63 H -3.638525 -1.384648 -1.143584 0
M  V30 64 H -3.834866 -3.101253 -1.555464 0
M  V30 65 H -4.042332 -1.772253 1.211812 0
M  V30 END ATOM
M  V30 BEGIN BOND
M  V30 1 3 1 2
M  V30 2 1 2 3
M  V30 3 2 3 4
M  V30 4 1 4 5
M  V30 5 1 5 6
M  V30 6 1 6 7
M  V30 7 1 7 8
M  V30 8 2 8 9
M  V30 9 1 9 10
M  V30 10 1 10 11
M  V30 11 1 11 12
M  V30 12 1 12 13
M  V30 13 1 9 14
M  V30 14 2 14 15
M  V30 15 1 15 16
M  V30 16 2 16 17
M  V30 17 1 17 18
M  V30 18 3 18 19
M  V30 19 1 17 20
M  V30 20 1 20 21
M  V30 21 2 5 22
M  V30 22 1 22 23
M  V30 23 1 22 24
M  V30 24 1 24 25
M  V30 25 1 25 26
M  V30 26 1 26 27
M  V30 27 1 27 28
M  V30 28 1 28 29
M  V30 29 1 29 30
M  V30 30 2 30 31
M  V30 31 1 30 32
M  V30 32 1 32 33
M  V30 33 1 33 34
M  V30 34 1 34 35
M  V30 35 1 35 36
M  V30 36 1 28 37
M  V30 37 1 37 38
M  V30 38 1 37 39
M  V30 39 2 24 40
M  V30 40 1 40 3
M  V30 41 2 21 7
M  V30 42 1 39 25
M  V30 43 1 13 11
M  V30 44 1 20 14
M  V30 45 1 36 33
M  V30 46 1 4 41
M  V30 47 1 6 42
M  V30 48 1 10 43
M  V30 49 1 11 44
M  V30 50 1 12 45
M  V30 51 1 12 46
M  V30 52 1 13 47
M  V30 53 1 13 48
M  V30 54 1 16 49
M  V30 55 1 26 50
M  V30 56 1 26 51
M  V30 57 1 27 52
M  V30 58 1 27 53
M  V30 59 1 28 54 CFG=1
M  V30 60 1 29 55
M  V30 61 1 33 56
M  V30 62 1 34 57
M  V30 63 1 34 58
M  V30 64 1 36 59
M  V30 65 1 36 60
M  V30 66 1 37 61 CFG=3
M  V30 67 1 38 62
M  V30 68 1 39 63
M  V30 69 1 39 64
M  V30 70 1 40 65
M  V30 END BOND
M  V30 END CTAB
M  END
>  <Dataset>  (537) 
ChEMBL_Kinases

>  <Ligand_Instance>  (537) 
nan

>  <PDB_ID>  (537) 
nan

>  <Standardized_SMILES>  (537) 
N#Cc1cc(Nc2nc(NC3CC3)c3ncc(C#N)n3n2)c(Cl)c(N2CC[C@@H](NC(=O)OC3COC3)[C@H](O)C2)c1

>  <Name>  (537) 
nan

>  <Pocket>  (537) 
nan

>  <ATP_Site>  (537) 
nan

>  <Peripheral>  (537) 
nan

>  <Num_H_Atoms_ProtBoundConf>  (537) 
nan

>  <Num_Resolved_Atoms>  (537) 
nan

>  <Num_Not_Resolved_Atoms>  (537) 
nan

$$$$
CHEMBL4513589
     RDKit          3D

  0  0  0  0  0  0  0  0  0  0999 V3000
M  V30 BEGIN CTAB
M  V30 COUNTS 57 62 0 0 0
M  V30 BEGIN ATOM
M  V30 1 C 2.958947 -3.011931 -3.092196 0
M  V30 2 C 3.837266 -3.006742 -1.872447 0 CFG=1
M  V30 3 N 5.215585 -2.757160 -2.175589 0
M  V30 4 C 5.675220 -1.559528 -1.562036 0
M  V30 5 O 6.807364 -1.036322 -1.607025 0
M  V30 6 C 4.527030 -1.030364 -0.836767 0
M  V30 7 C 4.070107 -0.020212 -0.035360 0
M  V30 8 C 2.735910 -0.198882 0.298442 0
M  V30 9 C 1.989369 0.726471 1.138604 0
M  V30 10 C 2.579222 1.828693 1.675014 0
M  V30 11 C 1.967126 2.762124 2.481489 0
M  V30 12 C 0.634683 2.560059 2.771036 0
M  V30 13 C -0.010277 1.449516 2.246339 0
M  V30 14 C -1.353289 1.217213 2.517287 0
M  V30 15 O -1.897077 2.096382 3.267088 0
M  V30 16 N -2.033571 0.138983 2.022768 0
M  V30 17 C -3.416727 0.118688 2.448667 0
M  V30 18 C -4.268450 0.899281 1.498945 0
M  V30 19 N -3.934095 2.307273 1.331603 0
M  V30 20 C -4.986599 0.249363 0.371246 0
M  V30 21 C -5.777227 0.585845 1.583098 0
M  V30 22 C -1.325827 -0.692558 1.253214 0
M  V30 23 N -2.050775 -1.816326 0.773985 0
M  V30 24 C -1.494027 -2.820540 -0.097656 0
M  V30 25 C -1.066527 -2.327025 -1.475693 0
M  V30 26 C -1.985467 -4.224843 0.004294 0
M  V30 27 C -0.622672 -3.886075 0.476930 0
M  V30 28 N -0.038173 -0.493623 0.977572 0
M  V30 29 C 0.657058 0.545275 1.441340 0
M  V30 30 N 2.419737 -1.335249 -0.323935 0
M  V30 31 C 3.448505 -1.861626 -1.007355 0
M  V30 32 H 3.590082 -3.095586 -4.008133 0
M  V30 33 H 2.358276 -2.084518 -3.198399 0
M  V30 34 H 2.236740 -3.847255 -2.987641 0
M  V30 35 H 3.748086 -3.980480 -1.318957 0
M  V30 36 H 5.842050 -3.359563 -2.772418 0
M  V30 37 H 4.734929 0.803640 0.269561 0
M  V30 38 H 3.625060 2.021004 1.469866 0
M  V30 39 H 2.503205 3.616657 2.872427 0
M  V30 40 H 0.120608 3.255579 3.390526 0
M  V30 41 H -3.522390 0.519244 3.490589 0
M  V30 42 H -3.783612 -0.933746 2.473771 0
M  V30 43 H -4.340117 2.901605 2.079243 0
M  V30 44 H -4.164944 2.658422 0.388859 0
M  V30 45 H -4.818498 -0.794532 0.110677 0
M  V30 46 H -5.235842 0.871977 -0.537289 0
M  V30 47 H -6.081308 -0.209598 2.302423 0
M  V30 48 H -6.445853 1.462480 1.590877 0
M  V30 49 H -3.034833 -2.041927 0.991016 0
M  V30 50 H -0.600346 -1.326292 -1.385879 0
M  V30 51 H -1.954491 -2.229016 -2.133459 0
M  V30 52 H -0.399773 -3.070920 -1.944419 0
M  V30 53 H -2.122856 -4.792587 -0.945631 0
M  V30 54 H -2.762700 -4.473134 0.772056 0
M  V30 55 H 0.288777 -4.157387 -0.069661 0
M  V30 56 H -0.465897 -3.865866 1.582704 0
M  V30 57 H 1.485313 -1.768114 -0.284522 0
M  V30 END ATOM
M  V30 BEGIN BOND
M  V30 1 1 1 2
M  V30 2 1 2 3
M  V30 3 1 3 4
M  V30 4 2 4 5
M  V30 5 1 4 6
M  V30 6 1 6 7
M  V30 7 2 7 8
M  V30 8 1 8 9
M  V30 9 2 9 10
M  V30 10 1 10 11
M  V30 11 2 11 12
M  V30 12 1 12 13
M  V30 13 1 13 14
M  V30 14 2 14 15
M  V30 15 1 14 16
M  V30 16 1 16 17
M  V30 17 1 17 18
M  V30 18 1 18 19
M  V30 19 1 18 20
M  V30 20 1 20 21
M  V30 21 1 16 22
M  V30 22 1 22 23
M  V30 23 1 23 24
M  V30 24 1 24 25
M  V30 25 1 24 26
M  V30 26 1 26 27
M  V30 27 2 22 28
M  V30 28 1 28 29
M  V30 29 1 8 30
M  V30 30 1 30 31
M  V30 31 1 31 2
M  V30 32 2 31 6
M  V30 33 1 29 9
M  V30 34 2 29 13
M  V30 35 1 21 18
M  V30 36 1 27 24
M  V30 37 1 1 32
M  V30 38 1 1 33
M  V30 39 1 1 34
M  V30 40 1 2 35 CFG=1
M  V30 41 1 3 36
M  V30 42 1 7 37
M  V30 43 1 10 38
M  V30 44 1 11 39
M  V30 45 1 12 40
M  V30 46 1 17 41
M  V30 47 1 17 42
M  V30 48 1 19 43
M  V30 49 1 19 44
M  V30 50 1 20 45
M  V30 51 1 20 46
M  V30 52 1 21 47
M  V30 53 1 21 48
M  V30 54 1 23 49
M  V30 55 1 25 50
M  V30 56 1 25 51
M  V30 57 1 25 52
M  V30 58 1 26 53
M  V30 59 1 26 54
M  V30 60 1 27 55
M  V30 61 1 27 56
M  V30 62 1 30 57
M  V30 END BOND
M  V30 END CTAB
M  END
>  <Dataset>  (538) 
ChEMBL_Kinases

>  <Ligand_Instance>  (538) 
nan

>  <PDB_ID>  (538) 
nan

>  <Standardized_SMILES>  (538) 
C[C@H]1NC(=O)c2cc(-c3cccc4c(=O)n(CC5(N)CC5)c(NC5(C)CC5)nc34)[nH]c21

>  <Name>  (538) 
nan

>  <Pocket>  (538) 
nan

>  <ATP_Site>  (538) 
nan

>  <Peripheral>  (538) 
nan

>  <Num_H_Atoms_ProtBoundConf>  (538) 
nan

>  <Num_Resolved_Atoms>  (538) 
nan

>  <Num_Not_Resolved_Atoms>  (538) 
nan

$$$$
CHEMBL4483062
     RDKit          3D

  0  0  0  0  0  0  0  0  0  0999 V3000
M  V30 BEGIN CTAB
M  V30 COUNTS 63 68 0 0 0
M  V30 BEGIN ATOM
M  V30 1 C 6.062683 0.858974 5.970813 0
M  V30 2 C 6.106631 0.342003 4.568300 0
M  V30 3 N 6.809661 -0.438057 3.741014 0
M  V30 4 O 6.230518 -0.453627 2.574368 0
M  V30 5 C 5.158460 0.289695 2.579608 0
M  V30 6 C 4.196369 0.565793 1.486887 0
M  V30 7 C 4.351886 -0.024922 0.250163 0
M  V30 8 C 3.433906 0.248107 -0.776116 0
M  V30 9 C 2.372059 1.105547 -0.561967 0
M  V30 10 N 1.321645 1.611851 -1.232507 0
M  V30 11 C 0.611413 2.446127 -0.417930 0
M  V30 12 N -0.561995 3.089210 -0.938482 0
M  V30 13 C -1.795220 2.662909 -0.374781 0
M  V30 14 C -1.820334 1.711017 0.630784 0
M  V30 15 C -3.001762 1.253931 1.231766 0
M  V30 16 C -2.917291 0.249657 2.296237 0
M  V30 17 N -2.951867 -1.105956 1.909512 0
M  V30 18 C -4.089553 -1.581084 1.211340 0
M  V30 19 C -3.866475 -2.814858 0.407492 0
M  V30 20 N -2.626078 -2.826574 -0.317875 0
M  V30 21 C -2.443735 -3.780997 -1.339780 0
M  V30 22 O -3.500977 -4.495947 -1.412004 0
M  V30 23 C -1.239602 -3.940877 -2.194869 0
M  V30 24 C -1.398157 -5.097696 -3.156132 0
M  V30 25 C -2.519463 -5.068119 -4.125972 0
M  V30 26 C -1.123068 -4.761625 -4.640477 0
M  V30 27 C -1.578958 -1.849828 0.021600 0
M  V30 28 C -1.692074 -1.674623 1.520858 0
M  V30 29 C -4.208677 1.801563 0.775723 0
M  V30 30 C -4.157023 2.750510 -0.230202 0
M  V30 31 N -2.976044 3.143917 -0.763441 0
M  V30 32 N 1.199303 2.484484 0.788177 0
M  V30 33 C 2.275355 1.662302 0.694733 0
M  V30 34 C 3.145965 1.429713 1.737874 0
M  V30 35 N 5.076019 0.790495 3.826552 0
M  V30 36 H 6.873857 0.365730 6.533234 0
M  V30 37 H 5.104083 0.546869 6.462240 0
M  V30 38 H 6.143804 1.954036 6.026821 0
M  V30 39 H 5.175866 -0.701902 0.053035 0
M  V30 40 H 3.510155 -0.191134 -1.767889 0
M  V30 41 H -0.574431 3.830403 -1.687396 0
M  V30 42 H -0.880804 1.269060 1.002675 0
M  V30 43 H -1.961472 0.411199 2.860968 0
M  V30 44 H -3.713962 0.417356 3.079383 0
M  V30 45 H -4.859841 -1.855388 1.995008 0
M  V30 46 H -4.545887 -0.784459 0.590927 0
M  V30 47 H -3.842090 -3.707638 1.098495 0
M  V30 48 H -4.744334 -3.007532 -0.244067 0
M  V30 49 H -0.307136 -4.015870 -1.588420 0
M  V30 50 H -1.087636 -3.017489 -2.826747 0
M  V30 51 H -0.901057 -6.032519 -2.837350 0
M  V30 52 H -2.920398 -6.087573 -4.398859 0
M  V30 53 H -3.244043 -4.238749 -4.017874 0
M  V30 54 H -0.602769 -5.532557 -5.252632 0
M  V30 55 H -0.956112 -3.672360 -4.887340 0
M  V30 56 H -0.568331 -2.237354 -0.192611 0
M  V30 57 H -1.762450 -0.952059 -0.561974 0
M  V30 58 H -0.882468 -1.125382 1.985951 0
M  V30 59 H -1.673842 -2.703330 1.938425 0
M  V30 60 H -5.130628 1.455359 1.233591 0
M  V30 61 H -5.086103 3.178733 -0.589960 0
M  V30 62 H 0.820690 3.062497 1.563016 0
M  V30 63 H 3.078357 1.856473 2.708374 0
M  V30 END ATOM
M  V30 BEGIN BOND
M  V30 1 1 1 2
M  V30 2 2 2 3
M  V30 3 1 3 4
M  V30 4 1 4 5
M  V30 5 1 5 6
M  V30 6 2 6 7
M  V30 7 1 7 8
M  V30 8 2 8 9
M  V30 9 1 9 10
M  V30 10 2 10 11
M  V30 11 1 11 12
M  V30 12 1 12 13
M  V30 13 2 13 14
M  V30 14 1 14 15
M  V30 15 1 15 16
M  V30 16 1 16 17
M  V30 17 1 17 18
M  V30 18 1 18 19
M  V30 19 1 19 20
M  V30 20 1 20 21
M  V30 21 2 21 22
M  V30 22 1 21 23
M  V30 23 1 23 24
M  V30 24 1 24 25
M  V30 25 1 25 26
M  V30 26 1 20 27
M  V30 27 1 27 28
M  V30 28 2 15 29
M  V30 29 1 29 30
M  V30 30 2 30 31
M  V30 31 1 11 32
M  V30 32 1 32 33
M  V30 33 2 33 34
M  V30 34 2 5 35
M  V30 35 1 35 2
M  V30 36 1 34 6
M  V30 37 1 33 9
M  V30 38 1 31 13
M  V30 39 1 28 17
M  V30 40 1 26 24
M  V30 41 1 1 36
M  V30 42 1 1 37
M  V30 43 1 1 38
M  V30 44 1 7 39
M  V30 45 1 8 40
M  V30 46 1 12 41
M  V30 47 1 14 42
M  V30 48 1 16 43
M  V30 49 1 16 44
M  V30 50 1 18 45
M  V30 51 1 18 46
M  V30 52 1 19 47
M  V30 53 1 19 48
M  V30 54 1 23 49
M  V30 55 1 23 50
M  V30 56 1 24 51
M  V30 57 1 25 52
M  V30 58 1 25 53
M  V30 59 1 26 54
M  V30 60 1 26 55
M  V30 61 1 27 56
M  V30 62 1 27 57
M  V30 63 1 28 58
M  V30 64 1 28 59
M  V30 65 1 29 60
M  V30 66 1 30 61
M  V30 67 1 32 62
M  V30 68 1 34 63
M  V30 END BOND
M  V30 END CTAB
M  END
>  <Dataset>  (539) 
ChEMBL_Kinases

>  <Ligand_Instance>  (539) 
nan

>  <PDB_ID>  (539) 
nan

>  <Standardized_SMILES>  (539) 
Cc1noc(-c2ccc3nc(Nc4cc(CN5CCN(C(=O)CC6CC6)CC5)ccn4)[nH]c3c2)n1

>  <Name>  (539) 
nan

>  <Pocket>  (539) 
nan

>  <ATP_Site>  (539) 
nan

>  <Peripheral>  (539) 
nan

>  <Num_H_Atoms_ProtBoundConf>  (539) 
nan

>  <Num_Resolved_Atoms>  (539) 
nan

>  <Num_Not_Resolved_Atoms>  (539) 
nan

$$$$
CHEMBL4482864
     RDKit          3D

  0  0  0  0  0  0  0  0  0  0999 V3000
M  V30 BEGIN CTAB
M  V30 COUNTS 60 64 0 0 0
M  V30 BEGIN ATOM
M  V30 1 C -3.105793 -3.300390 3.638788 0
M  V30 2 O -1.967316 -3.185031 2.870164 0
M  V30 3 C -1.178368 -4.317571 2.887945 0
M  V30 4 C 0.051371 -4.198369 2.029345 0 CFG=1
M  V30 5 C -0.349122 -4.046278 0.572256 0
M  V30 6 N -0.715046 -2.670384 0.268285 0
M  V30 7 C -1.442190 -2.226306 -0.756568 0
M  V30 8 C -1.568647 -0.859658 -0.700249 0
M  V30 9 C -2.174781 0.302881 -1.370595 0
M  V30 10 N -1.410644 1.371608 -1.687200 0
M  V30 11 C -1.790200 2.491783 -2.267501 0
M  V30 12 N -0.711777 3.399350 -2.459187 0
M  V30 13 C -0.257205 4.186534 -1.366398 0
M  V30 14 C -0.735185 4.194774 -0.068130 0
M  V30 15 C 0.017808 5.124352 0.657893 0
M  V30 16 N 0.905200 5.636016 -0.206380 0
M  V30 17 N 0.749319 5.088903 -1.397992 0
M  V30 18 C 1.509653 5.372492 -2.594274 0
M  V30 19 N -3.093976 2.570305 -2.576977 0
M  V30 20 C -3.931287 1.558700 -2.301312 0
M  V30 21 C -3.509596 0.395316 -1.692811 0
M  V30 22 C -4.443413 -0.715370 -1.383780 0
M  V30 23 N -0.871082 -0.509907 0.424820 0
M  V30 24 C -0.359622 -1.577931 1.008549 0
M  V30 25 C 0.488900 -1.740502 2.218023 0
M  V30 26 O 0.817528 -0.744415 2.909246 0
M  V30 27 N 0.864714 -3.109548 2.482598 0
M  V30 28 C 2.133674 -3.211535 3.204237 0
M  V30 29 C 3.225897 -3.270619 2.161896 0
M  V30 30 C 3.734144 -2.031186 1.807014 0
M  V30 31 C 4.736329 -1.905693 0.836202 0
M  V30 32 C 5.185955 -3.090160 0.255976 0
M  V30 33 F 6.157397 -3.032799 -0.698513 0
M  V30 34 C 4.680981 -4.321443 0.608900 0
M  V30 35 F 5.091732 -5.495854 0.065154 0
M  V30 36 C 3.694951 -4.421075 1.567171 0
M  V30 37 H -3.696729 -4.159091 3.226528 0
M  V30 38 H -2.879651 -3.445799 4.714865 0
M  V30 39 H -3.706485 -2.389337 3.494009 0
M  V30 40 H -1.814211 -5.114723 2.390515 0
M  V30 41 H -0.944132 -4.703834 3.897295 0
M  V30 42 H 0.635265 -5.153625 2.116040 0
M  V30 43 H -1.213104 -4.702175 0.356036 0
M  V30 44 H 0.478000 -4.334475 -0.106231 0
M  V30 45 H -1.938683 -2.674962 -1.604656 0
M  V30 46 H -0.257786 3.485386 -3.382828 0
M  V30 47 H -1.547179 3.576088 0.269308 0
M  V30 48 H -0.101818 5.372148 1.701104 0
M  V30 49 H 1.068889 6.222653 -3.118553 0
M  V30 50 H 1.603505 4.450337 -3.176244 0
M  V30 51 H 2.568256 5.670698 -2.337771 0
M  V30 52 H -4.972306 1.703978 -2.583544 0
M  V30 53 H -4.519360 -0.799085 -0.268320 0
M  V30 54 H -4.069219 -1.681292 -1.772852 0
M  V30 55 H -5.450855 -0.489289 -1.797271 0
M  V30 56 H 2.165323 -4.152793 3.755832 0
M  V30 57 H 2.289563 -2.375541 3.888858 0
M  V30 58 H 3.451020 -1.061184 2.200501 0
M  V30 59 H 5.172027 -0.967043 0.511968 0
M  V30 60 H 3.206042 -5.332991 1.943687 0
M  V30 END ATOM
M  V30 BEGIN BOND
M  V30 1 1 1 2
M  V30 2 1 2 3
M  V30 3 1 3 4
M  V30 4 1 4 5
M  V30 5 1 5 6
M  V30 6 1 6 7
M  V30 7 2 7 8
M  V30 8 1 8 9
M  V30 9 2 9 10
M  V30 10 1 10 11
M  V30 11 1 11 12
M  V30 12 1 12 13
M  V30 13 2 13 14
M  V30 14 1 14 15
M  V30 15 2 15 16
M  V30 16 1 16 17
M  V30 17 1 17 18
M  V30 18 2 11 19
M  V30 19 1 19 20
M  V30 20 2 20 21
M  V30 21 1 21 22
M  V30 22 1 8 23
M  V30 23 2 23 24
M  V30 24 1 24 25
M  V30 25 2 25 26
M  V30 26 1 25 27
M  V30 27 1 27 28
M  V30 28 1 28 29
M  V30 29 2 29 30
M  V30 30 1 30 31
M  V30 31 2 31 32
M  V30 32 1 32 33
M  V30 33 1 32 34
M  V30 34 1 34 35
M  V30 35 2 34 36
M  V30 36 1 27 4
M  V30 37 1 36 29
M  V30 38 1 24 6
M  V30 39 1 21 9
M  V30 40 1 17 13
M  V30 41 1 1 37
M  V30 42 1 1 38
M  V30 43 1 1 39
M  V30 44 1 3 40
M  V30 45 1 3 41
M  V30 46 1 4 42 CFG=3
M  V30 47 1 5 43
M  V30 48 1 5 44
M  V30 49 1 7 45
M  V30 50 1 12 46
M  V30 51 1 14 47
M  V30 52 1 15 48
M  V30 53 1 18 49
M  V30 54 1 18 50
M  V30 55 1 18 51
M  V30 56 1 20 52
M  V30 57 1 22 53
M  V30 58 1 22 54
M  V30 59 1 22 55
M  V30 60 1 28 56
M  V30 61 1 28 57
M  V30 62 1 30 58
M  V30 63 1 31 59
M  V30 64 1 36 60
M  V30 END BOND
M  V30 END CTAB
M  END
>  <Dataset>  (540) 
ChEMBL_Kinases

>  <Ligand_Instance>  (540) 
nan

>  <PDB_ID>  (540) 
nan

>  <Standardized_SMILES>  (540) 
COC[C@H]1Cn2cc(-c3nc(Nc4ccnn4C)ncc3C)nc2C(=O)N1Cc1ccc(F)c(F)c1

>  <Name>  (540) 
nan

>  <Pocket>  (540) 
nan

>  <ATP_Site>  (540) 
nan

>  <Peripheral>  (540) 
nan

>  <Num_H_Atoms_ProtBoundConf>  (540) 
nan

>  <Num_Resolved_Atoms>  (540) 
nan

>  <Num_Not_Resolved_Atoms>  (540) 
nan

$$$$
CHEMBL4476843
     RDKit          3D

  0  0  0  0  0  0  0  0  0  0999 V3000
M  V30 BEGIN CTAB
M  V30 COUNTS 46 50 0 0 0
M  V30 BEGIN ATOM
M  V30 1 O 1.929528 -4.098864 3.893402 0
M  V30 2 C 0.685848 -4.110579 3.661650 0
M  V30 3 N 0.231923 -3.632004 2.429612 0
M  V30 4 C 0.656945 -3.075511 1.194581 0
M  V30 5 C 0.773459 -1.711634 1.052383 0
M  V30 6 C 1.184723 -1.165630 -0.158946 0
M  V30 7 C 1.349919 0.243828 -0.456187 0
M  V30 8 N 2.376977 1.031904 -0.831228 0
M  V30 9 C 1.960774 2.301951 -0.978973 0
M  V30 10 C 2.777907 3.442860 -1.376286 0
M  V30 11 C 2.382914 4.764114 -1.539887 0
M  V30 12 C 3.454760 5.546921 -1.925416 0
M  V30 13 C 4.488883 4.611830 -1.976491 0
M  V30 14 O 4.061733 3.418866 -1.655406 0
M  V30 15 N 0.646779 2.319453 -0.692469 0
M  V30 16 C 0.219140 1.064642 -0.361469 0
M  V30 17 C -1.156659 0.738562 0.004753 0
M  V30 18 C -2.007811 -0.121098 -0.702283 0
M  V30 19 C -3.274838 -0.313513 -0.206687 0
M  V30 20 C -3.793667 0.263349 0.929501 0
M  V30 21 F -5.061674 0.012418 1.343247 0
M  V30 22 C -2.941458 1.119642 1.631065 0
M  V30 23 C -1.660691 1.339027 1.165762 0
M  V30 24 C 1.451292 -2.074317 -1.152883 0
M  V30 25 C 1.344467 -3.451174 -1.043221 0
M  V30 26 N 0.940043 -3.909026 0.160301 0
M  V30 27 C -0.332673 -4.599837 4.610945 0
M  V30 28 C -1.615237 -3.786498 4.628943 0
M  V30 29 C -1.599714 -5.201814 4.127113 0
M  V30 30 H -0.804623 -3.623066 2.192775 0
M  V30 31 H 0.561264 -1.006398 1.843119 0
M  V30 32 H 3.319788 0.624151 -0.962016 0
M  V30 33 H 1.372913 5.163442 -1.392542 0
M  V30 34 H 3.497380 6.612203 -2.137369 0
M  V30 35 H 5.513077 4.899520 -2.257523 0
M  V30 36 H -1.600813 -0.566459 -1.584058 0
M  V30 37 H -3.946429 -0.987115 -0.756463 0
M  V30 38 H -3.293730 1.609823 2.543250 0
M  V30 39 H -1.026545 2.021601 1.752437 0
M  V30 40 H 1.781614 -1.731375 -2.141731 0
M  V30 41 H 1.564963 -4.126966 -1.851849 0
M  V30 42 H 0.060831 -4.974868 5.563258 0
M  V30 43 H -1.776296 -3.006151 3.876008 0
M  V30 44 H -2.031558 -3.603331 5.649988 0
M  V30 45 H -1.672888 -5.367413 3.022923 0
M  V30 46 H -2.104246 -5.951934 4.752269 0
M  V30 END ATOM
M  V30 BEGIN BOND
M  V30 1 2 1 2
M  V30 2 1 2 3
M  V30 3 1 3 4
M  V30 4 2 4 5
M  V30 5 1 5 6
M  V30 6 1 6 7
M  V30 7 1 7 8
M  V30 8 1 8 9
M  V30 9 1 9 10
M  V30 10 2 10 11
M  V30 11 1 11 12
M  V30 12 2 12 13
M  V30 13 1 13 14
M  V30 14 2 9 15
M  V30 15 1 15 16
M  V30 16 1 16 17
M  V30 17 2 17 18
M  V30 18 1 18 19
M  V30 19 2 19 20
M  V30 20 1 20 21
M  V30 21 1 20 22
M  V30 22 2 22 23
M  V30 23 2 6 24
M  V30 24 1 24 25
M  V30 25 2 25 26
M  V30 26 1 2 27
M  V30 27 1 27 28
M  V30 28 1 28 29
M  V30 29 1 26 4
M  V30 30 1 29 27
M  V30 31 2 16 7
M  V30 32 1 23 17
M  V30 33 1 14 10
M  V30 34 1 3 30
M  V30 35 1 5 31
M  V30 36 1 8 32
M  V30 37 1 11 33
M  V30 38 1 12 34
M  V30 39 1 13 35
M  V30 40 1 18 36
M  V30 41 1 19 37
M  V30 42 1 22 38
M  V30 43 1 23 39
M  V30 44 1 24 40
M  V30 45 1 25 41
M  V30 46 1 27 42
M  V30 47 1 28 43
M  V30 48 1 28 44
M  V30 49 1 29 45
M  V30 50 1 29 46
M  V30 END BOND
M  V30 END CTAB
M  END
>  <Dataset>  (541) 
ChEMBL_Kinases

>  <Ligand_Instance>  (541) 
nan

>  <PDB_ID>  (541) 
nan

>  <Standardized_SMILES>  (541) 
O=C(Nc1cc(-c2[nH]c(-c3ccco3)nc2-c2ccc(F)cc2)ccn1)C1CC1

>  <Name>  (541) 
nan

>  <Pocket>  (541) 
nan

>  <ATP_Site>  (541) 
nan

>  <Peripheral>  (541) 
nan

>  <Num_H_Atoms_ProtBoundConf>  (541) 
nan

>  <Num_Resolved_Atoms>  (541) 
nan

>  <Num_Not_Resolved_Atoms>  (541) 
nan

$$$$
CHEMBL234655
     RDKit          3D

  0  0  0  0  0  0  0  0  0  0999 V3000
M  V30 BEGIN CTAB
M  V30 COUNTS 59 63 0 0 0
M  V30 BEGIN ATOM
M  V30 1 O 1.132815 -1.641587 0.594413 0
M  V30 2 C 0.934590 -0.492548 0.995862 0
M  V30 3 N 2.207020 0.114972 1.265256 0
M  V30 4 C 3.393111 -0.711181 1.024024 0
M  V30 5 C 4.648848 0.091596 1.309263 0
M  V30 6 C 4.726933 1.310067 0.410690 0
M  V30 7 N 5.918606 2.084291 0.671744 0
M  V30 8 C 6.131016 3.203961 1.591353 0
M  V30 9 C 7.045261 4.148351 0.824518 0
M  V30 10 C 7.917395 3.234006 -0.020952 0
M  V30 11 C 7.192218 1.926990 0.047213 0
M  V30 12 O 7.685460 0.849366 -0.404488 0
M  V30 13 C -0.275263 0.276245 1.217745 0
M  V30 14 C -0.219935 1.513538 1.789258 0
M  V30 15 N -1.290782 2.276357 2.044747 0
M  V30 16 C -2.557427 1.861764 1.744470 0
M  V30 17 C -2.681353 0.619217 1.164983 0
M  V30 18 C -1.553423 -0.132303 0.918750 0
M  V30 19 N -1.730467 -1.396379 0.299498 0
M  V30 20 C -2.888339 -2.095084 -0.127752 0
M  V30 21 N -3.399300 -3.234727 0.345510 0
M  V30 22 C -4.493380 -3.863982 -0.077258 0
M  V30 23 C -4.933708 -5.117729 0.525797 0
M  V30 24 C -6.046009 -5.756116 0.018627 0
M  V30 25 C -6.447751 -6.961458 0.605456 0
M  V30 26 Br -7.976278 -7.878412 -0.074464 0
M  V30 27 C -5.725850 -7.473590 1.667316 0
M  V30 28 C -4.601049 -6.849056 2.197459 0
M  V30 29 C -4.244128 -5.660953 1.582651 0
M  V30 30 F -3.129664 -5.054832 2.119469 0
M  V30 31 N -5.153281 -3.285405 -1.089669 0
M  V30 32 C -4.770364 -2.145203 -1.668566 0
M  V30 33 N -5.497547 -1.608307 -2.693894 0
M  V30 34 C -5.070756 -0.434092 -3.255334 0
M  V30 35 C -3.925734 0.185708 -2.784575 0
M  V30 36 N -3.260143 -0.392175 -1.777995 0
M  V30 37 C -3.626021 -1.540927 -1.186078 0
M  V30 38 H 2.354355 1.086468 1.616479 0
M  V30 39 H 3.411734 -1.156817 0.026943 0
M  V30 40 H 3.348259 -1.489023 1.844260 0
M  V30 41 H 5.498573 -0.568361 1.079170 0
M  V30 42 H 4.688710 0.380586 2.362834 0
M  V30 43 H 4.684071 1.029177 -0.651292 0
M  V30 44 H 3.832707 1.974941 0.569025 0
M  V30 45 H 6.654599 2.879173 2.510877 0
M  V30 46 H 5.170478 3.709920 1.811218 0
M  V30 47 H 7.602778 4.782826 1.517101 0
M  V30 48 H 6.494299 4.811210 0.126775 0
M  V30 49 H 8.917280 3.201866 0.437255 0
M  V30 50 H 7.999540 3.575691 -1.062360 0
M  V30 51 H 0.666061 2.032003 2.103921 0
M  V30 52 H -3.428216 2.474488 1.949043 0
M  V30 53 H -3.677877 0.289292 0.926002 0
M  V30 54 H -1.051077 -2.108490 0.012958 0
M  V30 55 H -6.579624 -5.304531 -0.823849 0
M  V30 56 H -6.037878 -8.413394 2.117638 0
M  V30 57 H -4.081298 -7.301929 3.030419 0
M  V30 58 H -5.648429 0.003459 -4.076654 0
M  V30 59 H -3.585499 1.126122 -3.233264 0
M  V30 END ATOM
M  V30 BEGIN BOND
M  V30 1 2 1 2
M  V30 2 1 2 3
M  V30 3 1 3 4
M  V30 4 1 4 5
M  V30 5 1 5 6
M  V30 6 1 6 7
M  V30 7 1 7 8
M  V30 8 1 8 9
M  V30 9 1 9 10
M  V30 10 1 10 11
M  V30 11 2 11 12
M  V30 12 1 2 13
M  V30 13 2 13 14
M  V30 14 1 14 15
M  V30 15 2 15 16
M  V30 16 1 16 17
M  V30 17 2 17 18
M  V30 18 1 18 19
M  V30 19 1 19 20
M  V30 20 2 20 21
M  V30 21 1 21 22
M  V30 22 1 22 23
M  V30 23 2 23 24
M  V30 24 1 24 25
M  V30 25 1 25 26
M  V30 26 2 25 27
M  V30 27 1 27 28
M  V30 28 2 28 29
M  V30 29 1 29 30
M  V30 30 2 22 31
M  V30 31 1 31 32
M  V30 32 2 32 33
M  V30 33 1 33 34
M  V30 34 2 34 35
M  V30 35 1 35 36
M  V30 36 2 36 37
M  V30 37 1 11 7
M  V30 38 1 18 13
M  V30 39 1 37 20
M  V30 40 1 29 23
M  V30 41 1 37 32
M  V30 42 1 3 38
M  V30 43 1 4 39
M  V30 44 1 4 40
M  V30 45 1 5 41
M  V30 46 1 5 42
M  V30 47 1 6 43
M  V30 48 1 6 44
M  V30 49 1 8 45
M  V30 50 1 8 46
M  V30 51 1 9 47
M  V30 52 1 9 48
M  V30 53 1 10 49
M  V30 54 1 10 50
M  V30 55 1 14 51
M  V30 56 1 16 52
M  V30 57 1 17 53
M  V30 58 1 19 54
M  V30 59 1 24 55
M  V30 60 1 27 56
M  V30 61 1 28 57
M  V30 62 1 34 58
M  V30 63 1 35 59
M  V30 END BOND
M  V30 END CTAB
M  END
>  <Dataset>  (542) 
ChEMBL_Kinases

>  <Ligand_Instance>  (542) 
nan

>  <PDB_ID>  (542) 
nan

>  <Standardized_SMILES>  (542) 
O=C(NCCCN1CCCC1=O)c1cnccc1Nc1nc(-c2cc(Br)ccc2F)nc2nccnc12

>  <Name>  (542) 
nan

>  <Pocket>  (542) 
nan

>  <ATP_Site>  (542) 
nan

>  <Peripheral>  (542) 
nan

>  <Num_H_Atoms_ProtBoundConf>  (542) 
nan

>  <Num_Resolved_Atoms>  (542) 
nan

>  <Num_Not_Resolved_Atoms>  (542) 
nan

$$$$
CHEMBL2346665
     RDKit          3D

  0  0  0  0  0  0  0  0  0  0999 V3000
M  V30 BEGIN CTAB
M  V30 COUNTS 25 27 0 0 0
M  V30 BEGIN ATOM
M  V30 1 N 0.289338 -2.588180 4.223219 0
M  V30 2 C -0.243683 -2.345961 2.919341 0
M  V30 3 N -1.271041 -3.161422 2.611630 0
M  V30 4 C -1.888962 -3.055270 1.400448 0
M  V30 5 C -1.389602 -2.082641 0.558924 0
M  V30 6 C -0.321837 -1.234750 0.878120 0
M  V30 7 N 0.123945 -0.260800 -0.054859 0
M  V30 8 C -0.163649 -0.289665 -1.374131 0
M  V30 9 C 0.458350 0.829234 -1.906799 0
M  V30 10 C 1.124098 1.542467 -0.924574 0
M  V30 11 C 1.864728 2.702361 -1.006321 0
M  V30 12 N 2.388583 3.143317 0.151952 0
M  V30 13 C 2.197328 2.486583 1.317895 0
M  V30 14 Cl 2.939659 3.176192 2.751720 0
M  V30 15 C 1.456420 1.325651 1.401604 0
M  V30 16 C 0.882905 0.810183 0.238361 0
M  V30 17 N 0.240907 -1.394207 2.089133 0
M  V30 18 H 1.331733 -2.616620 4.279546 0
M  V30 19 H -0.264600 -2.734050 5.094892 0
M  V30 20 H -2.714016 -3.680810 1.102877 0
M  V30 21 H -1.874470 -1.980360 -0.424138 0
M  V30 22 H -0.754029 -1.028077 -1.905622 0
M  V30 23 H 0.385702 1.050133 -2.971392 0
M  V30 24 H 1.983132 3.185158 -1.972436 0
M  V30 25 H 1.304508 0.796897 2.350573 0
M  V30 END ATOM
M  V30 BEGIN BOND
M  V30 1 1 1 2
M  V30 2 2 2 3
M  V30 3 1 3 4
M  V30 4 2 4 5
M  V30 5 1 5 6
M  V30 6 1 6 7
M  V30 7 1 7 8
M  V30 8 2 8 9
M  V30 9 1 9 10
M  V30 10 2 10 11
M  V30 11 1 11 12
M  V30 12 2 12 13
M  V30 13 1 13 14
M  V30 14 1 13 15
M  V30 15 2 15 16
M  V30 16 2 6 17
M  V30 17 1 17 2
M  V30 18 1 16 7
M  V30 19 1 16 10
M  V30 20 1 1 18
M  V30 21 1 1 19
M  V30 22 1 4 20
M  V30 23 1 5 21
M  V30 24 1 8 22
M  V30 25 1 9 23
M  V30 26 1 11 24
M  V30 27 1 15 25
M  V30 END BOND
M  V30 END CTAB
M  END
>  <Dataset>  (543) 
ChEMBL_Kinases

>  <Ligand_Instance>  (543) 
nan

>  <PDB_ID>  (543) 
nan

>  <Standardized_SMILES>  (543) 
Nc1nccc(-n2ccc3cnc(Cl)cc32)n1

>  <Name>  (543) 
nan

>  <Pocket>  (543) 
nan

>  <ATP_Site>  (543) 
nan

>  <Peripheral>  (543) 
nan

>  <Num_H_Atoms_ProtBoundConf>  (543) 
nan

>  <Num_Resolved_Atoms>  (543) 
nan

>  <Num_Not_Resolved_Atoms>  (543) 
nan

$$$$
CHEMBL3699258
     RDKit          3D

  0  0  0  0  0  0  0  0  0  0999 V3000
M  V30 BEGIN CTAB
M  V30 COUNTS 67 71 0 0 0
M  V30 BEGIN ATOM
M  V30 1 C 4.070619 -3.918975 6.191287 0
M  V30 2 O 3.261160 -3.544013 5.134603 0
M  V30 3 C 2.749950 -2.266712 5.222221 0
M  V30 4 C 3.782940 -1.180505 5.276645 0
M  V30 5 O 4.634653 -1.120746 4.169043 0
M  V30 6 C 4.214454 -0.907933 2.874669 0
M  V30 7 O 2.949312 -0.775574 2.857008 0
M  V30 8 N 4.953538 -0.825041 1.663307 0
M  V30 9 C 4.245866 -0.594391 0.446082 0 CFG=2
M  V30 10 C 4.325860 -1.728069 -0.552630 0
M  V30 11 C 3.161041 -1.522092 -1.497374 0
M  V30 12 N 2.683263 -0.124989 -1.445341 0
M  V30 13 C 1.298345 0.179168 -1.296843 0
M  V30 14 C 0.928354 1.036987 -0.256972 0
M  V30 15 C -0.358895 1.437719 0.026881 0
M  V30 16 C -0.648215 2.323605 1.116566 0
M  V30 17 N -0.885657 3.054162 1.998010 0
M  V30 18 C -1.332771 0.930493 -0.803669 0
M  V30 19 C -1.038818 0.074887 -1.854251 0
M  V30 20 N -2.098508 -0.443188 -2.680730 0
M  V30 21 C -3.425660 -0.031108 -2.390334 0
M  V30 22 N -3.938934 -0.772307 -1.365275 0
M  V30 23 C -5.190526 -0.560618 -0.912827 0
M  V30 24 N -5.739548 -1.313659 0.157850 0
M  V30 25 C -5.102324 -2.358642 0.898023 0
M  V30 26 C -4.672855 -3.569791 0.141217 0
M  V30 27 C -5.794956 -3.637104 1.200192 0
M  V30 28 C -5.958225 0.420985 -1.500077 0
M  V30 29 N -7.221200 0.845049 -1.258142 0
M  V30 30 C -7.478786 1.845951 -2.136872 0
M  V30 31 C -6.344938 2.038551 -2.936074 0
M  V30 32 C -6.189268 3.001201 -3.997922 0
M  V30 33 N -6.079708 3.784467 -4.868477 0
M  V30 34 N -5.440893 1.142543 -2.507767 0
M  V30 35 N -4.198863 0.921667 -2.945130 0
M  V30 36 C 0.266262 -0.286456 -2.085074 0
M  V30 37 Cl 0.690744 -1.351342 -3.386106 0
M  V30 38 C 3.799928 0.832331 -1.548471 0
M  V30 39 C 4.649806 0.661101 -0.291908 0 CFG=1
M  V30 40 O 4.520001 1.790105 0.500773 0
M  V30 41 H 4.929352 -3.215154 6.230616 0
M  V30 42 H 3.512485 -3.998045 7.151335 0
M  V30 43 H 4.495763 -4.926053 5.933786 0
M  V30 44 H 1.975681 -2.133680 4.468356 0
M  V30 45 H 2.224151 -2.225013 6.220677 0
M  V30 46 H 3.217695 -0.218337 5.341636 0
M  V30 47 H 4.370303 -1.257442 6.195771 0
M  V30 48 H 5.966932 -0.946795 1.810113 0
M  V30 49 H 3.160967 -0.499318 0.689892 0
M  V30 50 H 5.300807 -1.752765 -1.076354 0
M  V30 51 H 4.209670 -2.710361 -0.065955 0
M  V30 52 H 3.559939 -1.761433 -2.503484 0
M  V30 53 H 2.360385 -2.208718 -1.164431 0
M  V30 54 H 1.711889 1.424579 0.384842 0
M  V30 55 H -2.350268 1.239030 -0.591376 0
M  V30 56 H -1.846168 -1.094875 -3.451652 0
M  V30 57 H -6.709247 -1.139375 0.495195 0
M  V30 58 H -4.347519 -1.976807 1.622748 0
M  V30 59 H -3.751256 -4.115356 0.456416 0
M  V30 60 H -5.001782 -3.686759 -0.910166 0
M  V30 61 H -5.544106 -4.077456 2.188839 0
M  V30 62 H -6.819167 -3.758952 0.807066 0
M  V30 63 H -8.397116 2.420976 -2.229904 0
M  V30 64 H 4.396086 0.653382 -2.458707 0
M  V30 65 H 3.463318 1.860710 -1.582491 0
M  V30 66 H 5.709167 0.592355 -0.610780 0
M  V30 67 H 4.166255 1.523734 1.396681 0
M  V30 END ATOM
M  V30 BEGIN BOND
M  V30 1 1 1 2
M  V30 2 1 2 3
M  V30 3 1 3 4
M  V30 4 1 4 5
M  V30 5 1 5 6
M  V30 6 2 6 7
M  V30 7 1 6 8
M  V30 8 1 8 9
M  V30 9 1 9 10
M  V30 10 1 10 11
M  V30 11 1 11 12
M  V30 12 1 12 13
M  V30 13 2 13 14
M  V30 14 1 14 15
M  V30 15 1 15 16
M  V30 16 3 16 17
M  V30 17 2 15 18
M  V30 18 1 18 19
M  V30 19 1 19 20
M  V30 20 1 20 21
M  V30 21 1 21 22
M  V30 22 2 22 23
M  V30 23 1 23 24
M  V30 24 1 24 25
M  V30 25 1 25 26
M  V30 26 1 26 27
M  V30 27 1 23 28
M  V30 28 2 28 29
M  V30 29 1 29 30
M  V30 30 2 30 31
M  V30 31 1 31 32
M  V30 32 3 32 33
M  V30 33 1 31 34
M  V30 34 1 34 35
M  V30 35 2 19 36
M  V30 36 1 36 37
M  V30 37 1 12 38
M  V30 38 1 38 39
M  V30 39 1 39 40
M  V30 40 1 39 9
M  V30 41 1 36 13
M  V30 42 2 35 21
M  V30 43 1 27 25
M  V30 44 1 34 28
M  V30 45 1 1 41
M  V30 46 1 1 42
M  V30 47 1 1 43
M  V30 48 1 3 44
M  V30 49 1 3 45
M  V30 50 1 4 46
M  V30 51 1 4 47
M  V30 52 1 8 48
M  V30 53 1 9 49 CFG=1
M  V30 54 1 10 50
M  V30 55 1 10 51
M  V30 56 1 11 52
M  V30 57 1 11 53
M  V30 58 1 14 54
M  V30 59 1 18 55
M  V30 60 1 20 56
M  V30 61 1 24 57
M  V30 62 1 25 58
M  V30 63 1 26 59
M  V30 64 1 26 60
M  V30 65 1 27 61
M  V30 66 1 27 62
M  V30 67 1 30 63
M  V30 68 1 38 64
M  V30 69 1 38 65
M  V30 70 1 39 66 CFG=3
M  V30 71 1 40 67
M  V30 END BOND
M  V30 END CTAB
M  END
>  <Dataset>  (544) 
ChEMBL_Kinases

>  <Ligand_Instance>  (544) 
nan

>  <PDB_ID>  (544) 
nan

>  <Standardized_SMILES>  (544) 
COCCOC(=O)N[C@@H]1CCN(c2cc(C#N)cc(Nc3nc(NC4CC4)c4ncc(C#N)n4n3)c2Cl)C[C@H]1O

>  <Name>  (544) 
nan

>  <Pocket>  (544) 
nan

>  <ATP_Site>  (544) 
nan

>  <Peripheral>  (544) 
nan

>  <Num_H_Atoms_ProtBoundConf>  (544) 
nan

>  <Num_Resolved_Atoms>  (544) 
nan

>  <Num_Not_Resolved_Atoms>  (544) 
nan

$$$$
CHEMBL4476761
     RDKit          3D

  0  0  0  0  0  0  0  0  0  0999 V3000
M  V30 BEGIN CTAB
M  V30 COUNTS 48 50 0 0 0
M  V30 BEGIN ATOM
M  V30 1 C 4.669021 -6.221542 -0.475944 0
M  V30 2 C 3.911098 -4.893757 -0.412323 0
M  V30 3 C 3.953796 -4.232290 -1.768256 0
M  V30 4 O 3.302106 -3.023938 -1.863341 0
M  V30 5 C 3.482491 -1.838228 -1.244347 0
M  V30 6 C 4.380197 -1.357773 -0.290072 0
M  V30 7 C 4.343414 -0.079076 0.182438 0
M  V30 8 C 3.411030 0.807410 -0.263067 0
M  V30 9 C 2.479814 0.426171 -1.206891 0
M  V30 10 C 1.461444 1.389751 -1.693118 0
M  V30 11 N 0.283464 1.292792 -0.888853 0
M  V30 12 C 0.005597 1.777944 0.402558 0
M  V30 13 O 0.926607 2.401654 0.961515 0
M  V30 14 C -1.277046 1.577835 1.072104 0
M  V30 15 C -2.365729 0.911448 0.548803 0
M  V30 16 C -3.539950 0.790144 1.292845 0
M  V30 17 C -3.666613 1.327646 2.578982 0
M  V30 18 C -4.945072 1.139904 3.254592 0
M  V30 19 C -6.076914 1.098169 2.469055 0
M  V30 20 C -7.316219 0.922074 3.066004 0
M  V30 21 N -7.410640 0.793204 4.399792 0
M  V30 22 C -6.334076 0.827077 5.210592 0
M  V30 23 C -5.072368 1.003355 4.637626 0
M  V30 24 C -2.580690 1.994239 3.105574 0
M  V30 25 C -1.427180 2.106187 2.358947 0
M  V30 26 C 2.541339 -0.892021 -1.673761 0
M  V30 27 H 5.512823 -6.052943 -1.192052 0
M  V30 28 H 5.014038 -6.528243 0.532148 0
M  V30 29 H 3.999319 -7.002376 -0.928533 0
M  V30 30 H 2.830502 -5.053891 -0.156149 0
M  V30 31 H 4.407698 -4.323408 0.389359 0
M  V30 32 H 3.455728 -4.934652 -2.497396 0
M  V30 33 H 5.044466 -4.163775 -2.046662 0
M  V30 34 H 5.087678 -2.116796 0.003924 0
M  V30 35 H 5.106995 0.135341 0.917514 0
M  V30 36 H 3.463252 1.796573 0.166287 0
M  V30 37 H 1.278578 1.302394 -2.768859 0
M  V30 38 H 1.902371 2.419869 -1.536733 0
M  V30 39 H -0.499587 0.759408 -1.369297 0
M  V30 40 H -2.275185 0.498339 -0.434461 0
M  V30 41 H -4.338999 0.253590 0.805864 0
M  V30 42 H -6.066490 1.196652 1.382955 0
M  V30 43 H -8.229700 0.883753 2.493663 0
M  V30 44 H -6.382156 0.726893 6.275408 0
M  V30 45 H -4.167973 1.040563 5.219563 0
M  V30 46 H -2.688079 2.399565 4.084778 0
M  V30 47 H -0.605152 2.636157 2.813299 0
M  V30 48 H 1.754975 -1.088608 -2.421352 0
M  V30 END ATOM
M  V30 BEGIN BOND
M  V30 1 1 1 2
M  V30 2 1 2 3
M  V30 3 1 3 4
M  V30 4 1 4 5
M  V30 5 2 5 6
M  V30 6 1 6 7
M  V30 7 2 7 8
M  V30 8 1 8 9
M  V30 9 1 9 10
M  V30 10 1 10 11
M  V30 11 1 11 12
M  V30 12 2 12 13
M  V30 13 1 12 14
M  V30 14 2 14 15
M  V30 15 1 15 16
M  V30 16 2 16 17
M  V30 17 1 17 18
M  V30 18 2 18 19
M  V30 19 1 19 20
M  V30 20 2 20 21
M  V30 21 1 21 22
M  V30 22 2 22 23
M  V30 23 1 17 24
M  V30 24 2 24 25
M  V30 25 2 9 26
M  V30 26 1 26 5
M  V30 27 1 25 14
M  V30 28 1 23 18
M  V30 29 1 1 27
M  V30 30 1 1 28
M  V30 31 1 1 29
M  V30 32 1 2 30
M  V30 33 1 2 31
M  V30 34 1 3 32
M  V30 35 1 3 33
M  V30 36 1 6 34
M  V30 37 1 7 35
M  V30 38 1 8 36
M  V30 39 1 10 37
M  V30 40 1 10 38
M  V30 41 1 11 39
M  V30 42 1 15 40
M  V30 43 1 16 41
M  V30 44 1 19 42
M  V30 45 1 20 43
M  V30 46 1 22 44
M  V30 47 1 23 45
M  V30 48 1 24 46
M  V30 49 1 25 47
M  V30 50 1 26 48
M  V30 END BOND
M  V30 END CTAB
M  END
>  <Dataset>  (545) 
ChEMBL_Kinases

>  <Ligand_Instance>  (545) 
nan

>  <PDB_ID>  (545) 
nan

>  <Standardized_SMILES>  (545) 
CCCOc1cccc(CNC(=O)c2ccc(-c3ccncc3)cc2)c1

>  <Name>  (545) 
nan

>  <Pocket>  (545) 
nan

>  <ATP_Site>  (545) 
nan

>  <Peripheral>  (545) 
nan

>  <Num_H_Atoms_ProtBoundConf>  (545) 
nan

>  <Num_Resolved_Atoms>  (545) 
nan

>  <Num_Not_Resolved_Atoms>  (545) 
nan

$$$$
CHEMBL3699257
     RDKit          3D

  0  0  0  0  0  0  0  0  0  0999 V3000
M  V30 BEGIN CTAB
M  V30 COUNTS 60 64 0 0 0
M  V30 BEGIN ATOM
M  V30 1 C 4.634385 -2.736663 7.329236 0
M  V30 2 O 4.514109 -1.369845 6.946991 0
M  V30 3 C 3.869394 -1.019240 5.761762 0
M  V30 4 O 3.452258 -2.042383 5.172427 0
M  V30 5 N 3.707707 0.331294 5.280817 0
M  V30 6 C 3.007878 0.436577 4.016863 0 CFG=1
M  V30 7 C 2.049663 1.563999 4.064897 0
M  V30 8 C 1.833934 2.169959 2.720546 0
M  V30 9 N 2.044363 1.209396 1.697333 0
M  V30 10 C 1.183311 0.660017 0.704175 0
M  V30 11 C 1.622884 0.615710 -0.626440 0
M  V30 12 C 0.918769 0.098720 -1.689493 0
M  V30 13 C 1.508369 0.117729 -2.999020 0
M  V30 14 N 1.980253 0.129884 -4.050666 0
M  V30 15 C -0.323860 -0.411778 -1.381963 0
M  V30 16 C -0.819392 -0.400438 -0.097583 0
M  V30 17 N -2.104809 -0.944322 0.170463 0
M  V30 18 C -2.913357 -1.514044 -0.840097 0
M  V30 19 N -3.303642 -1.054346 -2.065318 0
M  V30 20 C -4.071862 -1.813575 -2.868310 0
M  V30 21 N -4.437120 -1.257664 -4.116114 0
M  V30 22 C -4.181597 0.019051 -4.711190 0
M  V30 23 C -4.533439 0.276889 -6.136679 0
M  V30 24 C -3.069164 0.110233 -5.732205 0
M  V30 25 C -4.473225 -3.051647 -2.470866 0
M  V30 26 N -5.240094 -3.957604 -3.122807 0
M  V30 27 C -5.358475 -5.040317 -2.304065 0
M  V30 28 C -4.648414 -4.751690 -1.165683 0
M  V30 29 C -4.459731 -5.551917 -0.017953 0
M  V30 30 N -4.303895 -6.233349 0.922991 0
M  V30 31 N -4.093719 -3.511217 -1.264586 0
M  V30 32 N -3.343434 -2.757525 -0.492989 0
M  V30 33 C -0.069795 0.128396 0.916245 0
M  V30 34 Cl -0.733511 0.129330 2.506841 0
M  V30 35 C 3.408913 0.651148 1.563180 0
M  V30 36 C 4.053486 0.587157 2.922648 0 CFG=2
M  V30 37 O 4.876901 -0.526352 2.968578 0
M  V30 38 H 3.910092 -3.016517 8.111753 0
M  V30 39 H 5.674466 -2.900242 7.696082 0
M  V30 40 H 4.481824 -3.408357 6.473161 0
M  V30 41 H 4.099758 1.093485 5.867829 0
M  V30 42 H 2.533454 -0.560597 3.819690 0
M  V30 43 H 2.394463 2.354539 4.815472 0
M  V30 44 H 1.113849 1.181710 4.559839 0
M  V30 45 H 0.911084 2.765745 2.606939 0
M  V30 46 H 2.660274 2.942957 2.603920 0
M  V30 47 H 2.620137 1.041361 -0.801069 0
M  V30 48 H -0.895366 -0.835633 -2.225367 0
M  V30 49 H -2.479041 -0.918684 1.164828 0
M  V30 50 H -5.012638 -1.895693 -4.741094 0
M  V30 51 H -4.235231 0.897723 -4.030367 0
M  V30 52 H -4.888919 1.296320 -6.383407 0
M  V30 53 H -4.920132 -0.546580 -6.769803 0
M  V30 54 H -2.526165 -0.785070 -6.034069 0
M  V30 55 H -2.475756 1.054470 -5.783564 0
M  V30 56 H -5.910248 -5.934453 -2.537240 0
M  V30 57 H 3.451277 -0.269987 0.999514 0
M  V30 58 H 3.949894 1.441159 0.995818 0
M  V30 59 H 4.648678 1.493342 3.131559 0
M  V30 60 H 4.666876 -1.125537 2.212479 0
M  V30 END ATOM
M  V30 BEGIN BOND
M  V30 1 1 1 2
M  V30 2 1 2 3
M  V30 3 2 3 4
M  V30 4 1 3 5
M  V30 5 1 5 6
M  V30 6 1 6 7
M  V30 7 1 7 8
M  V30 8 1 8 9
M  V30 9 1 9 10
M  V30 10 2 10 11
M  V30 11 1 11 12
M  V30 12 1 12 13
M  V30 13 3 13 14
M  V30 14 2 12 15
M  V30 15 1 15 16
M  V30 16 1 16 17
M  V30 17 1 17 18
M  V30 18 1 18 19
M  V30 19 2 19 20
M  V30 20 1 20 21
M  V30 21 1 21 22
M  V30 22 1 22 23
M  V30 23 1 23 24
M  V30 24 1 20 25
M  V30 25 2 25 26
M  V30 26 1 26 27
M  V30 27 2 27 28
M  V30 28 1 28 29
M  V30 29 3 29 30
M  V30 30 1 28 31
M  V30 31 1 31 32
M  V30 32 2 16 33
M  V30 33 1 33 34
M  V30 34 1 9 35
M  V30 35 1 35 36
M  V30 36 1 36 37
M  V30 37 1 36 6
M  V30 38 1 33 10
M  V30 39 2 32 18
M  V30 40 1 24 22
M  V30 41 1 31 25
M  V30 42 1 1 38
M  V30 43 1 1 39
M  V30 44 1 1 40
M  V30 45 1 5 41
M  V30 46 1 6 42 CFG=3
M  V30 47 1 7 43
M  V30 48 1 7 44
M  V30 49 1 8 45
M  V30 50 1 8 46
M  V30 51 1 11 47
M  V30 52 1 15 48
M  V30 53 1 17 49
M  V30 54 1 21 50
M  V30 55 1 22 51
M  V30 56 1 23 52
M  V30 57 1 23 53
M  V30 58 1 24 54
M  V30 59 1 24 55
M  V30 60 1 27 56
M  V30 61 1 35 57
M  V30 62 1 35 58
M  V30 63 1 36 59 CFG=1
M  V30 64 1 37 60
M  V30 END BOND
M  V30 END CTAB
M  END
>  <Dataset>  (546) 
ChEMBL_Kinases

>  <Ligand_Instance>  (546) 
nan

>  <PDB_ID>  (546) 
nan

>  <Standardized_SMILES>  (546) 
COC(=O)N[C@H]1CCN(c2cc(C#N)cc(Nc3nc(NC4CC4)c4ncc(C#N)n4n3)c2Cl)C[C@@H]1O

>  <Name>  (546) 
nan

>  <Pocket>  (546) 
nan

>  <ATP_Site>  (546) 
nan

>  <Peripheral>  (546) 
nan

>  <Num_H_Atoms_ProtBoundConf>  (546) 
nan

>  <Num_Resolved_Atoms>  (546) 
nan

>  <Num_Not_Resolved_Atoms>  (546) 
nan

$$$$
CHEMBL3699256
     RDKit          3D

  0  0  0  0  0  0  0  0  0  0999 V3000
M  V30 BEGIN CTAB
M  V30 COUNTS 60 64 0 0 0
M  V30 BEGIN ATOM
M  V30 1 C 4.307526 -2.409818 7.341708 0
M  V30 2 O 3.686088 -1.896286 6.165863 0
M  V30 3 C 4.364160 -0.978844 5.385248 0
M  V30 4 O 5.518079 -0.554943 5.644361 0
M  V30 5 N 3.626216 -0.553142 4.247049 0
M  V30 6 C 4.010440 0.393322 3.208532 0 CFG=2
M  V30 7 C 3.144064 1.590825 3.304784 0
M  V30 8 C 2.165798 1.818760 2.211799 0
M  V30 9 N 2.356976 1.067083 1.016853 0
M  V30 10 C 1.340130 0.650114 0.126897 0
M  V30 11 C 1.423407 1.113436 -1.169262 0
M  V30 12 C 0.437518 0.726269 -2.073337 0
M  V30 13 C 0.456627 1.167349 -3.439598 0
M  V30 14 N 0.472105 1.537092 -4.558709 0
M  V30 15 C -0.554071 -0.100137 -1.589641 0
M  V30 16 C -0.685434 -0.590723 -0.307746 0
M  V30 17 N -1.734951 -1.448922 0.098758 0
M  V30 18 C -2.877772 -1.897751 -0.598453 0
M  V30 19 N -3.319420 -1.500463 -1.796827 0
M  V30 20 C -4.393395 -1.975000 -2.419602 0
M  V30 21 N -4.908179 -1.564310 -3.673442 0
M  V30 22 C -4.496465 -0.524524 -4.566632 0
M  V30 23 C -3.056825 -0.409644 -4.960887 0
M  V30 24 C -3.662010 0.597438 -4.014282 0
M  V30 25 C -5.080157 -2.966988 -1.723012 0
M  V30 26 N -6.193023 -3.678885 -2.013871 0
M  V30 27 C -6.461593 -4.517883 -1.021015 0
M  V30 28 C -5.503308 -4.350953 -0.059281 0
M  V30 29 C -5.466244 -5.082931 1.155946 0
M  V30 30 N -5.430881 -5.670569 2.142237 0
M  V30 31 N -4.687797 -3.398822 -0.531926 0
M  V30 32 N -3.613152 -2.851769 -0.023279 0
M  V30 33 C 0.330268 -0.170930 0.555211 0
M  V30 34 Cl 0.266547 -0.741557 2.223660 0
M  V30 35 C 3.761099 0.769768 0.808402 0
M  V30 36 C 4.142157 -0.238803 1.868041 0 CFG=1
M  V30 37 O 5.438331 -0.625618 1.627670 0
M  V30 38 H 4.671898 -1.608152 8.016943 0
M  V30 39 H 5.127298 -3.066494 7.033231 0
M  V30 40 H 3.584043 -3.032686 7.921618 0
M  V30 41 H 2.664771 -0.890847 4.007764 0
M  V30 42 H 5.055373 0.710298 3.510397 0
M  V30 43 H 3.803337 2.510059 3.326500 0
M  V30 44 H 2.674266 1.616154 4.326639 0
M  V30 45 H 2.110067 2.904348 1.903795 0
M  V30 46 H 1.143231 1.603145 2.631475 0
M  V30 47 H 2.207829 1.752256 -1.505063 0
M  V30 48 H -1.289168 -0.387479 -2.323361 0
M  V30 49 H -1.605709 -1.784950 1.090228 0
M  V30 50 H -5.738071 -2.103050 -4.042389 0
M  V30 51 H -5.258909 -0.206056 -5.327081 0
M  V30 52 H -2.856424 -0.006984 -5.981699 0
M  V30 53 H -2.307537 -1.133708 -4.594382 0
M  V30 54 H -3.862471 1.626343 -4.404741 0
M  V30 55 H -3.310272 0.543720 -2.977152 0
M  V30 56 H -7.318976 -5.167373 -1.084180 0
M  V30 57 H 4.399253 1.675360 0.986697 0
M  V30 58 H 3.953704 0.382464 -0.214228 0
M  V30 59 H 3.487849 -1.111652 1.698603 0
M  V30 60 H 5.498437 -0.900922 0.673038 0
M  V30 END ATOM
M  V30 BEGIN BOND
M  V30 1 1 1 2
M  V30 2 1 2 3
M  V30 3 2 3 4
M  V30 4 1 3 5
M  V30 5 1 5 6
M  V30 6 1 6 7
M  V30 7 1 7 8
M  V30 8 1 8 9
M  V30 9 1 9 10
M  V30 10 2 10 11
M  V30 11 1 11 12
M  V30 12 1 12 13
M  V30 13 3 13 14
M  V30 14 2 12 15
M  V30 15 1 15 16
M  V30 16 1 16 17
M  V30 17 1 17 18
M  V30 18 1 18 19
M  V30 19 2 19 20
M  V30 20 1 20 21
M  V30 21 1 21 22
M  V30 22 1 22 23
M  V30 23 1 23 24
M  V30 24 1 20 25
M  V30 25 2 25 26
M  V30 26 1 26 27
M  V30 27 2 27 28
M  V30 28 1 28 29
M  V30 29 3 29 30
M  V30 30 1 28 31
M  V30 31 1 31 32
M  V30 32 2 16 33
M  V30 33 1 33 34
M  V30 34 1 9 35
M  V30 35 1 35 36
M  V30 36 1 36 37
M  V30 37 1 36 6
M  V30 38 1 33 10
M  V30 39 2 32 18
M  V30 40 1 24 22
M  V30 41 1 31 25
M  V30 42 1 1 38
M  V30 43 1 1 39
M  V30 44 1 1 40
M  V30 45 1 5 41
M  V30 46 1 6 42 CFG=1
M  V30 47 1 7 43
M  V30 48 1 7 44
M  V30 49 1 8 45
M  V30 50 1 8 46
M  V30 51 1 11 47
M  V30 52 1 15 48
M  V30 53 1 17 49
M  V30 54 1 21 50
M  V30 55 1 22 51
M  V30 56 1 23 52
M  V30 57 1 23 53
M  V30 58 1 24 54
M  V30 59 1 24 55
M  V30 60 1 27 56
M  V30 61 1 35 57
M  V30 62 1 35 58
M  V30 63 1 36 59 CFG=1
M  V30 64 1 37 60
M  V30 END BOND
M  V30 END CTAB
M  END
>  <Dataset>  (547) 
ChEMBL_Kinases

>  <Ligand_Instance>  (547) 
nan

>  <PDB_ID>  (547) 
nan

>  <Standardized_SMILES>  (547) 
COC(=O)N[C@@H]1CCN(c2cc(C#N)cc(Nc3nc(NC4CC4)c4ncc(C#N)n4n3)c2Cl)C[C@H]1O

>  <Name>  (547) 
nan

>  <Pocket>  (547) 
nan

>  <ATP_Site>  (547) 
nan

>  <Peripheral>  (547) 
nan

>  <Num_H_Atoms_ProtBoundConf>  (547) 
nan

>  <Num_Resolved_Atoms>  (547) 
nan

>  <Num_Not_Resolved_Atoms>  (547) 
nan

$$$$
CHEMBL4483063
     RDKit          3D

  0  0  0  0  0  0  0  0  0  0999 V3000
M  V30 BEGIN CTAB
M  V30 COUNTS 28 29 0 0 0
M  V30 BEGIN ATOM
M  V30 1 C -0.866831 -3.129868 1.386775 0
M  V30 2 C -0.832138 -2.206304 2.526700 0
M  V30 3 N -1.316752 -2.493490 3.748163 0
M  V30 4 C -1.276524 -1.635895 4.787390 0
M  V30 5 C -0.699600 -0.387530 4.573399 0
M  V30 6 C -0.192498 -0.062157 3.329089 0
M  V30 7 C -0.254378 -0.977509 2.282794 0
M  V30 8 C 0.320450 -0.483088 1.035889 0
M  V30 9 C -0.285820 -0.614206 -0.197659 0
M  V30 10 C 0.269119 -0.143580 -1.370589 0
M  V30 11 C 1.499378 0.496238 -1.321148 0
M  V30 12 C 2.205263 1.046905 -2.497388 0
M  V30 13 N 1.514021 0.872234 -3.723612 0
M  V30 14 O 3.318775 1.630903 -2.495898 0
M  V30 15 C 2.093151 0.619404 -0.078043 0
M  V30 16 C 1.563574 0.159482 1.112075 0
M  V30 17 H -0.682171 -4.170820 1.777522 0
M  V30 18 H -0.037363 -2.949012 0.683308 0
M  V30 19 H -1.876900 -3.111949 0.890436 0
M  V30 20 H -1.701164 -2.000324 5.703382 0
M  V30 21 H -0.688242 0.268665 5.433422 0
M  V30 22 H 0.227019 0.934542 3.295288 0
M  V30 23 H -1.245358 -1.108034 -0.261822 0
M  V30 24 H -0.201054 -0.243881 -2.336648 0
M  V30 25 H 1.005533 0.759438 -4.621117 0
M  V30 26 H 1.173785 0.236193 -4.485357 0
M  V30 27 H 3.045022 1.122594 -0.092667 0
M  V30 28 H 2.127309 0.318062 2.018928 0
M  V30 END ATOM
M  V30 BEGIN BOND
M  V30 1 1 1 2
M  V30 2 2 2 3
M  V30 3 1 3 4
M  V30 4 2 4 5
M  V30 5 1 5 6
M  V30 6 2 6 7
M  V30 7 1 7 8
M  V30 8 2 8 9
M  V30 9 1 9 10
M  V30 10 2 10 11
M  V30 11 1 11 12
M  V30 12 1 12 13
M  V30 13 2 12 14
M  V30 14 1 11 15
M  V30 15 2 15 16
M  V30 16 1 7 2
M  V30 17 1 16 8
M  V30 18 1 1 17
M  V30 19 1 1 18
M  V30 20 1 1 19
M  V30 21 1 4 20
M  V30 22 1 5 21
M  V30 23 1 6 22
M  V30 24 1 9 23
M  V30 25 1 10 24
M  V30 26 1 13 25
M  V30 27 1 13 26
M  V30 28 1 15 27
M  V30 29 1 16 28
M  V30 END BOND
M  V30 END CTAB
M  END
>  <Dataset>  (548) 
ChEMBL_Kinases

>  <Ligand_Instance>  (548) 
nan

>  <PDB_ID>  (548) 
nan

>  <Standardized_SMILES>  (548) 
Cc1ncccc1-c1ccc(C(N)=O)cc1

>  <Name>  (548) 
nan

>  <Pocket>  (548) 
nan

>  <ATP_Site>  (548) 
nan

>  <Peripheral>  (548) 
nan

>  <Num_H_Atoms_ProtBoundConf>  (548) 
nan

>  <Num_Resolved_Atoms>  (548) 
nan

>  <Num_Not_Resolved_Atoms>  (548) 
nan

$$$$
CHEMBL4565958
     RDKit          3D

  0  0  0  0  0  0  0  0  0  0999 V3000
M  V30 BEGIN CTAB
M  V30 COUNTS 49 52 0 0 0
M  V30 BEGIN ATOM
M  V30 1 C 5.636919 -4.077329 2.117054 0
M  V30 2 C 6.259933 -2.717252 2.101563 0
M  V30 3 N 7.528244 -2.401738 2.394053 0
M  V30 4 N 7.683577 -1.095163 2.262422 0
M  V30 5 C 6.505573 -0.573705 1.883187 0
M  V30 6 C 5.561539 -1.552174 1.763689 0
M  V30 7 N 4.201108 -1.472599 1.394749 0
M  V30 8 C 3.544497 -0.257201 1.061185 0
M  V30 9 N 4.152586 0.940156 1.063232 0
M  V30 10 C 3.537894 2.092668 0.748996 0
M  V30 11 C 2.222332 2.097903 0.401645 0
M  V30 12 C 1.587165 0.890534 0.393788 0
M  V30 13 C 0.177886 0.743568 0.041843 0
M  V30 14 C -0.403743 -0.508016 0.053954 0
M  V30 15 C -1.749490 -0.718623 -0.272878 0
M  V30 16 N -2.519987 0.332015 -0.614778 0
M  V30 17 C -3.900751 0.062265 -0.942971 0 CFG=2
M  V30 18 C -4.821166 1.213402 -0.968291 0
M  V30 19 O -4.972320 1.937307 0.180100 0
M  V30 20 C -4.410694 -0.964632 -0.006500 0
M  V30 21 C -4.850560 -0.767642 1.286515 0
M  V30 22 C -5.316161 -1.741131 2.113347 0
M  V30 23 C -5.374769 -3.031256 1.682799 0
M  V30 24 Cl -5.972720 -4.283216 2.743833 0
M  V30 25 C -4.959469 -3.330679 0.410612 0
M  V30 26 F -5.008868 -4.607443 -0.038678 0
M  V30 27 C -4.498226 -2.296637 -0.376867 0
M  V30 28 C -1.963247 1.552444 -0.629333 0
M  V30 29 O -2.663361 2.528901 -0.942885 0
M  V30 30 C -0.652006 1.773610 -0.312990 0
M  V30 31 N 2.264449 -0.224279 0.719541 0
M  V30 32 H 6.269776 -4.707312 2.768354 0
M  V30 33 H 5.620478 -4.508736 1.100796 0
M  V30 34 H 4.648812 -3.983350 2.577692 0
M  V30 35 H 8.630712 -0.714186 2.461649 0
M  V30 36 H 6.382633 0.466190 1.713456 0
M  V30 37 H 3.635751 -2.353210 1.362133 0
M  V30 38 H 4.075970 3.043507 0.765164 0
M  V30 39 H 1.705724 3.008320 0.145246 0
M  V30 40 H 0.202650 -1.378070 0.328749 0
M  V30 41 H -2.102499 -1.740192 -0.230958 0
M  V30 42 H -3.940555 -0.414533 -1.954332 0
M  V30 43 H -5.844924 0.767024 -1.162234 0
M  V30 44 H -4.698582 1.867796 -1.882775 0
M  V30 45 H -5.903676 2.116476 0.442572 0
M  V30 46 H -4.827293 0.229499 1.692944 0
M  V30 47 H -5.646887 -1.520377 3.118383 0
M  V30 48 H -4.185065 -2.602040 -1.372583 0
M  V30 49 H -0.256288 2.771687 -0.340594 0
M  V30 END ATOM
M  V30 BEGIN BOND
M  V30 1 1 1 2
M  V30 2 2 2 3
M  V30 3 1 3 4
M  V30 4 1 4 5
M  V30 5 2 5 6
M  V30 6 1 6 7
M  V30 7 1 7 8
M  V30 8 2 8 9
M  V30 9 1 9 10
M  V30 10 2 10 11
M  V30 11 1 11 12
M  V30 12 1 12 13
M  V30 13 1 13 14
M  V30 14 2 14 15
M  V30 15 1 15 16
M  V30 16 1 16 17
M  V30 17 1 17 18
M  V30 18 1 18 19
M  V30 19 1 17 20
M  V30 20 2 20 21
M  V30 21 1 21 22
M  V30 22 2 22 23
M  V30 23 1 23 24
M  V30 24 1 23 25
M  V30 25 1 25 26
M  V30 26 2 25 27
M  V30 27 1 16 28
M  V30 28 2 28 29
M  V30 29 1 28 30
M  V30 30 2 12 31
M  V30 31 1 6 2
M  V30 32 1 31 8
M  V30 33 2 30 13
M  V30 34 1 27 20
M  V30 35 1 1 32
M  V30 36 1 1 33
M  V30 37 1 1 34
M  V30 38 1 4 35
M  V30 39 1 5 36
M  V30 40 1 7 37
M  V30 41 1 10 38
M  V30 42 1 11 39
M  V30 43 1 14 40
M  V30 44 1 15 41
M  V30 45 1 17 42 CFG=3
M  V30 46 1 18 43
M  V30 47 1 18 44
M  V30 48 1 19 45
M  V30 49 1 21 46
M  V30 50 1 22 47
M  V30 51 1 27 48
M  V30 52 1 30 49
M  V30 END BOND
M  V30 END CTAB
M  END
>  <Dataset>  (549) 
ChEMBL_Kinases

>  <Ligand_Instance>  (549) 
nan

>  <PDB_ID>  (549) 
nan

>  <Standardized_SMILES>  (549) 
Cc1n[nH]cc1Nc1nccc(-c2ccn([C@H](CO)c3ccc(Cl)c(F)c3)c(=O)c2)n1

>  <Name>  (549) 
nan

>  <Pocket>  (549) 
nan

>  <ATP_Site>  (549) 
nan

>  <Peripheral>  (549) 
nan

>  <Num_H_Atoms_ProtBoundConf>  (549) 
nan

>  <Num_Resolved_Atoms>  (549) 
nan

>  <Num_Not_Resolved_Atoms>  (549) 
nan

$$$$
CHEMBL3699278
     RDKit          3D

  0  0  0  0  0  0  0  0  0  0999 V3000
M  V30 BEGIN CTAB
M  V30 COUNTS 61 66 0 0 0
M  V30 BEGIN ATOM
M  V30 1 C 2.005516 -3.890594 5.508376 0 CHG=-1 VAL=3
M  V30 2 N 2.691477 -2.974165 5.270728 0 CHG=1 VAL=4
M  V30 3 C 3.490558 -1.900161 4.989086 0
M  V30 4 C 4.682466 -1.597731 5.640522 0
M  V30 5 N 5.175294 -0.477964 5.090297 0
M  V30 6 C 4.369068 -0.051288 4.129603 0
M  V30 7 C 4.332210 0.995453 3.238032 0
M  V30 8 N 5.375245 1.961048 3.232383 0
M  V30 9 C 6.500091 1.903405 4.136445 0
M  V30 10 C 7.541662 2.971591 4.031723 0
M  V30 11 C 7.819335 1.539513 3.518610 0
M  V30 12 N 3.316784 1.099121 2.384139 0
M  V30 13 C 2.292880 0.244088 2.314875 0
M  V30 14 N 1.253933 0.433790 1.369874 0
M  V30 15 C 0.095479 -0.354016 1.155943 0
M  V30 16 C -0.231308 -1.485026 1.871521 0
M  V30 17 C -1.353210 -2.256927 1.674635 0
M  V30 18 C -1.632070 -3.422382 2.456126 0
M  V30 19 N -1.869906 -4.379645 3.092819 0
M  V30 20 C -2.231950 -1.891657 0.692967 0
M  V30 21 C -1.951014 -0.766767 -0.052463 0
M  V30 22 N -2.868034 -0.404259 -1.062588 0
M  V30 23 C -2.549028 -0.312474 -2.459582 0
M  V30 24 C -2.965801 -1.602541 -3.179998 0
M  V30 25 N -4.376429 -1.699293 -3.378891 0
M  V30 26 C -4.830039 -2.415328 -4.499654 0
M  V30 27 C -4.514218 -3.823916 -4.713795 0
M  V30 28 O -3.651912 -3.571286 -5.781381 0
M  V30 29 C -4.141517 -2.265147 -5.808355 0
M  V30 30 C -5.070955 -1.839627 -2.164917 0
M  V30 31 C -5.280057 -0.486201 -1.524266 0
M  V30 32 F -5.441052 0.432166 -2.523610 0
M  V30 33 C -4.208577 -0.126035 -0.522647 0
M  V30 34 C -0.813739 -0.030299 0.186513 0
M  V30 35 Cl -0.544481 1.380587 -0.811843 0
M  V30 36 N 2.390118 -0.748493 3.207474 0
M  V30 37 N 3.349184 -0.921928 4.076260 0
M  V30 38 H 5.146059 -2.154296 6.449385 0
M  V30 39 H 5.338752 2.753057 2.548749 0
M  V30 40 H 6.282610 1.612692 5.198337 0
M  V30 41 H 7.494144 3.726891 3.216197 0
M  V30 42 H 8.134946 3.251894 4.920059 0
M  V30 43 H 8.466305 0.896264 4.179774 0
M  V30 44 H 7.865253 1.369120 2.438310 0
M  V30 45 H 1.353250 1.275250 0.738041 0
M  V30 46 H 0.412975 -1.835793 2.661749 0
M  V30 47 H -3.113029 -2.457232 0.503207 0
M  V30 48 H -3.138542 0.491482 -2.950188 0
M  V30 49 H -1.499776 -0.058266 -2.686861 0
M  V30 50 H -2.371323 -1.592449 -4.114934 0
M  V30 51 H -2.691336 -2.497008 -2.561566 0
M  V30 52 H -5.932166 -2.228195 -4.641245 0
M  V30 53 H -3.948763 -4.385603 -3.954636 0
M  V30 54 H -5.344055 -4.470911 -5.069089 0
M  V30 55 H -3.316075 -1.564130 -5.914742 0
M  V30 56 H -4.825304 -2.198323 -6.705304 0
M  V30 57 H -4.551327 -2.494229 -1.415174 0
M  V30 58 H -6.090731 -2.266676 -2.243379 0
M  V30 59 H -6.235659 -0.446142 -0.922138 0
M  V30 60 H -4.254983 0.990538 -0.448998 0
M  V30 61 H -4.365042 -0.644163 0.424917 0
M  V30 END ATOM
M  V30 BEGIN BOND
M  V30 1 3 1 2
M  V30 2 1 2 3
M  V30 3 2 3 4
M  V30 4 1 4 5
M  V30 5 2 5 6
M  V30 6 1 6 7
M  V30 7 1 7 8
M  V30 8 1 8 9
M  V30 9 1 9 10
M  V30 10 1 10 11
M  V30 11 2 7 12
M  V30 12 1 12 13
M  V30 13 1 13 14
M  V30 14 1 14 15
M  V30 15 2 15 16
M  V30 16 1 16 17
M  V30 17 1 17 18
M  V30 18 3 18 19
M  V30 19 2 17 20
M  V30 20 1 20 21
M  V30 21 1 21 22
M  V30 22 1 22 23
M  V30 23 1 23 24
M  V30 24 1 24 25
M  V30 25 1 25 26
M  V30 26 1 26 27
M  V30 27 1 27 28
M  V30 28 1 28 29
M  V30 29 1 25 30
M  V30 30 1 30 31
M  V30 31 1 31 32
M  V30 32 1 31 33
M  V30 33 2 21 34
M  V30 34 1 34 35
M  V30 35 2 13 36
M  V30 36 1 36 37
M  V30 37 1 37 3
M  V30 38 1 37 6
M  V30 39 1 11 9
M  V30 40 1 34 15
M  V30 41 1 33 22
M  V30 42 1 29 26
M  V30 43 1 4 38
M  V30 44 1 8 39
M  V30 45 1 9 40
M  V30 46 1 10 41
M  V30 47 1 10 42
M  V30 48 1 11 43
M  V30 49 1 11 44
M  V30 50 1 14 45
M  V30 51 1 16 46
M  V30 52 1 20 47
M  V30 53 1 23 48
M  V30 54 1 23 49
M  V30 55 1 24 50
M  V30 56 1 24 51
M  V30 57 1 26 52
M  V30 58 1 27 53
M  V30 59 1 27 54
M  V30 60 1 29 55
M  V30 61 1 29 56
M  V30 62 1 30 57
M  V30 63 1 30 58
M  V30 64 1 31 59
M  V30 65 1 33 60
M  V30 66 1 33 61
M  V30 END BOND
M  V30 END CTAB
M  END
>  <Dataset>  (550) 
ChEMBL_Kinases

>  <Ligand_Instance>  (550) 
nan

>  <PDB_ID>  (550) 
nan

>  <Standardized_SMILES>  (550) 
[C-]#[N+]c1cnc2c(NC3CC3)nc(Nc3cc(C#N)cc(N4CCN(C5COC5)CC(F)C4)c3Cl)nn12

>  <Name>  (550) 
nan

>  <Pocket>  (550) 
nan

>  <ATP_Site>  (550) 
nan

>  <Peripheral>  (550) 
nan

>  <Num_H_Atoms_ProtBoundConf>  (550) 
nan

>  <Num_Resolved_Atoms>  (550) 
nan

>  <Num_Not_Resolved_Atoms>  (550) 
nan

$$$$
CHEMBL3699277
     RDKit          3D

  0  0  0  0  0  0  0  0  0  0999 V3000
M  V30 BEGIN CTAB
M  V30 COUNTS 59 63 0 0 0
M  V30 BEGIN ATOM
M  V30 1 C 4.781377 -2.704392 6.989262 0
M  V30 2 O 4.082524 -2.187391 5.872079 0
M  V30 3 C 4.160193 -0.839697 5.602299 0
M  V30 4 O 4.810211 -0.001330 6.271945 0
M  V30 5 N 3.444888 -0.322331 4.461326 0
M  V30 6 C 3.465190 1.103614 4.089256 0 CFG=2
M  V30 7 C 2.098254 1.615822 4.266793 0
M  V30 8 C 1.419199 2.232255 3.100552 0
M  V30 9 N 1.850666 1.560511 1.896650 0
M  V30 10 C 0.988310 1.014838 0.933081 0
M  V30 11 C 1.168706 1.626814 -0.310471 0
M  V30 12 C 0.396019 1.215623 -1.401757 0
M  V30 13 C 0.547172 1.816444 -2.697893 0
M  V30 14 N 0.649813 2.307486 -3.749207 0
M  V30 15 C -0.511872 0.208198 -1.161781 0
M  V30 16 C -0.732874 -0.429514 0.036147 0
M  V30 17 N -1.669152 -1.462993 0.268457 0
M  V30 18 C -2.554889 -2.051040 -0.665479 0
M  V30 19 N -2.688027 -1.754179 -1.962867 0
M  V30 20 C -3.542268 -2.341670 -2.805188 0
M  V30 21 N -3.616402 -1.963386 -4.171419 0
M  V30 22 C -2.807061 -0.946678 -4.769208 0
M  V30 23 C -2.901019 -0.563428 -6.196093 0
M  V30 24 C -1.783938 -1.462505 -5.797047 0
M  V30 25 C -4.359773 -3.334001 -2.319784 0
M  V30 26 N -5.310945 -4.131636 -2.827489 0
M  V30 27 C -5.793353 -4.945484 -1.856516 0
M  V30 28 C -5.113374 -4.639915 -0.699739 0
M  V30 29 C -5.347507 -5.296119 0.555558 0
M  V30 30 N -5.545802 -5.808434 1.571823 0
M  V30 31 N -4.251171 -3.656435 -1.021002 0
M  V30 32 N -3.387239 -3.022031 -0.290087 0
M  V30 33 C 0.056644 0.017678 1.072861 0
M  V30 34 Cl -0.093628 -0.681961 2.651600 0
M  V30 35 C 3.265057 1.418376 1.598708 0
M  V30 36 C 4.131123 1.220894 2.782313 0 CFG=2
M  V30 37 F 4.987461 0.139319 2.512411 0
M  V30 38 H 5.154180 -1.865194 7.636594 0
M  V30 39 H 5.673326 -3.282935 6.689988 0
M  V30 40 H 4.122386 -3.310057 7.649644 0
M  V30 41 H 2.894700 -1.003779 3.886997 0
M  V30 42 H 4.123668 1.570666 4.880379 0
M  V30 43 H 2.090282 2.421778 5.072826 0
M  V30 44 H 1.386865 0.861106 4.715234 0
M  V30 45 H 1.778584 3.281050 3.018709 0
M  V30 46 H 0.320413 2.178067 3.240059 0
M  V30 47 H 1.885564 2.433274 -0.531611 0
M  V30 48 H -1.087476 -0.079831 -2.026062 0
M  V30 49 H -1.715919 -1.843185 1.251794 0
M  V30 50 H -4.279981 -2.425498 -4.801217 0
M  V30 51 H -2.361421 -0.214076 -4.054895 0
M  V30 52 H -3.704819 -0.942663 -6.847862 0
M  V30 53 H -2.573486 0.481212 -6.436780 0
M  V30 54 H -1.848550 -2.547108 -6.065263 0
M  V30 55 H -0.743838 -1.114886 -5.729068 0
M  V30 56 H -6.573542 -5.666649 -2.072408 0
M  V30 57 H 3.524922 2.380062 1.060013 0
M  V30 58 H 3.448138 0.640166 0.826199 0
M  V30 59 H 4.862360 2.082218 2.816184 0
M  V30 END ATOM
M  V30 BEGIN BOND
M  V30 1 1 1 2
M  V30 2 1 2 3
M  V30 3 2 3 4
M  V30 4 1 3 5
M  V30 5 1 5 6
M  V30 6 1 6 7
M  V30 7 1 7 8
M  V30 8 1 8 9
M  V30 9 1 9 10
M  V30 10 2 10 11
M  V30 11 1 11 12
M  V30 12 1 12 13
M  V30 13 3 13 14
M  V30 14 2 12 15
M  V30 15 1 15 16
M  V30 16 1 16 17
M  V30 17 1 17 18
M  V30 18 1 18 19
M  V30 19 2 19 20
M  V30 20 1 20 21
M  V30 21 1 21 22
M  V30 22 1 22 23
M  V30 23 1 23 24
M  V30 24 1 20 25
M  V30 25 2 25 26
M  V30 26 1 26 27
M  V30 27 2 27 28
M  V30 28 1 28 29
M  V30 29 3 29 30
M  V30 30 1 28 31
M  V30 31 1 31 32
M  V30 32 2 16 33
M  V30 33 1 33 34
M  V30 34 1 9 35
M  V30 35 1 35 36
M  V30 36 1 36 37
M  V30 37 1 36 6
M  V30 38 1 33 10
M  V30 39 2 32 18
M  V30 40 1 24 22
M  V30 41 1 31 25
M  V30 42 1 1 38
M  V30 43 1 1 39
M  V30 44 1 1 40
M  V30 45 1 5 41
M  V30 46 1 6 42 CFG=1
M  V30 47 1 7 43
M  V30 48 1 7 44
M  V30 49 1 8 45
M  V30 50 1 8 46
M  V30 51 1 11 47
M  V30 52 1 15 48
M  V30 53 1 17 49
M  V30 54 1 21 50
M  V30 55 1 22 51
M  V30 56 1 23 52
M  V30 57 1 23 53
M  V30 58 1 24 54
M  V30 59 1 24 55
M  V30 60 1 27 56
M  V30 61 1 35 57
M  V30 62 1 35 58
M  V30 63 1 36 59 CFG=1
M  V30 END BOND
M  V30 END CTAB
M  END
>  <Dataset>  (551) 
ChEMBL_Kinases

>  <Ligand_Instance>  (551) 
nan

>  <PDB_ID>  (551) 
nan

>  <Standardized_SMILES>  (551) 
COC(=O)N[C@@H]1CCN(c2cc(C#N)cc(Nc3nc(NC4CC4)c4ncc(C#N)n4n3)c2Cl)C[C@@H]1F

>  <Name>  (551) 
nan

>  <Pocket>  (551) 
nan

>  <ATP_Site>  (551) 
nan

>  <Peripheral>  (551) 
nan

>  <Num_H_Atoms_ProtBoundConf>  (551) 
nan

>  <Num_Resolved_Atoms>  (551) 
nan

>  <Num_Not_Resolved_Atoms>  (551) 
nan

$$$$
CHEMBL3699276
     RDKit          3D

  0  0  0  0  0  0  0  0  0  0999 V3000
M  V30 BEGIN CTAB
M  V30 COUNTS 65 69 0 0 0
M  V30 BEGIN ATOM
M  V30 1 C 5.938405 -0.566913 4.890364 0
M  V30 2 O 5.888372 0.619040 4.112738 0
M  V30 3 C 4.818947 0.864140 3.263667 0
M  V30 4 O 3.992834 -0.083028 3.321353 0
M  V30 5 N 4.582506 1.976101 2.411836 0
M  V30 6 C 3.356652 1.990571 1.606203 0 CFG=2
M  V30 7 C 3.646575 2.094747 0.134466 0
M  V30 8 C 2.362029 2.107834 -0.623281 0
M  V30 9 N 1.273385 2.103798 0.271881 0
M  V30 10 C 0.294862 1.100140 0.227555 0
M  V30 11 C 0.010798 0.249398 1.286494 0
M  V30 12 C -0.939371 -0.750179 1.290474 0
M  V30 13 C -1.163149 -1.580968 2.431790 0
M  V30 14 N -1.347488 -2.275491 3.358135 0
M  V30 15 C -1.683248 -0.931759 0.142239 0
M  V30 16 C -1.468103 -0.123604 -0.973220 0
M  V30 17 N -2.244386 -0.327426 -2.136049 0
M  V30 18 C -3.235893 -1.353219 -2.173813 0
M  V30 19 N -2.799896 -2.539165 -2.629569 0
M  V30 20 C -3.624826 -3.615672 -2.723472 0
M  V30 21 N -3.151266 -4.866431 -3.208609 0
M  V30 22 C -3.953218 -6.065792 -3.345777 0
M  V30 23 C -3.282381 -7.309279 -3.880501 0
M  V30 24 C -3.763140 -7.218987 -2.459357 0
M  V30 25 C -4.936602 -3.429552 -2.326121 0
M  V30 26 N -6.003904 -4.245430 -2.280942 0
M  V30 27 C -7.056375 -3.587105 -1.815428 0
M  V30 28 C -6.671902 -2.293999 -1.544075 0
M  V30 29 C -7.511303 -1.257879 -1.025233 0
M  V30 30 N -8.200955 -0.424625 -0.602347 0
M  V30 31 N -5.371318 -2.220147 -1.863962 0
M  V30 32 N -4.523418 -1.203999 -1.793603 0
M  V30 33 C -0.492558 0.857378 -0.890858 0
M  V30 34 Cl -0.250699 1.851629 -2.309235 0
M  V30 35 C 1.280867 3.226995 1.217045 0
M  V30 36 C 2.482668 3.119818 2.117755 0 CFG=1
M  V30 37 O 2.162075 2.730304 3.408401 0
M  V30 38 P 2.660911 3.679156 4.646552 0
M  V30 39 O 1.595451 4.691583 4.989281 0
M  V30 40 O 4.109433 4.493851 4.427021 0
M  V30 41 O 2.850374 2.697187 6.036371 0
M  V30 42 H 5.322618 -0.392107 5.800734 0
M  V30 43 H 6.975797 -0.744356 5.223785 0
M  V30 44 H 5.540976 -1.435037 4.348568 0
M  V30 45 H 5.333500 2.697127 2.447208 0
M  V30 46 H 2.813103 1.052539 1.839249 0
M  V30 47 H 4.269961 1.179046 -0.090795 0
M  V30 48 H 4.337881 2.935229 -0.100659 0
M  V30 49 H 2.371961 3.084669 -1.199326 0
M  V30 50 H 2.316892 1.390285 -1.457671 0
M  V30 51 H 0.560736 0.345196 2.212062 0
M  V30 52 H -2.430794 -1.702762 0.116452 0
M  V30 53 H -2.072468 0.290478 -2.962052 0
M  V30 54 H -2.146725 -4.926965 -3.488539 0
M  V30 55 H -5.007692 -5.867872 -3.697192 0
M  V30 56 H -2.170645 -7.201416 -4.016246 0
M  V30 57 H -3.847283 -7.841380 -4.648686 0
M  V30 58 H -2.998202 -7.259993 -1.655460 0
M  V30 59 H -4.630194 -7.882567 -2.244791 0
M  V30 60 H -8.047183 -3.974711 -1.666979 0
M  V30 61 H 1.354657 4.132822 0.559159 0
M  V30 62 H 0.380019 3.250945 1.851827 0
M  V30 63 H 3.056319 4.070105 2.217147 0
M  V30 64 H 4.907893 3.936785 4.570483 0
M  V30 65 H 3.496064 3.073115 6.660345 0
M  V30 END ATOM
M  V30 BEGIN BOND
M  V30 1 1 1 2
M  V30 2 1 2 3
M  V30 3 2 3 4
M  V30 4 1 3 5
M  V30 5 1 5 6
M  V30 6 1 6 7
M  V30 7 1 7 8
M  V30 8 1 8 9
M  V30 9 1 9 10
M  V30 10 2 10 11
M  V30 11 1 11 12
M  V30 12 1 12 13
M  V30 13 3 13 14
M  V30 14 2 12 15
M  V30 15 1 15 16
M  V30 16 1 16 17
M  V30 17 1 17 18
M  V30 18 1 18 19
M  V30 19 2 19 20
M  V30 20 1 20 21
M  V30 21 1 21 22
M  V30 22 1 22 23
M  V30 23 1 23 24
M  V30 24 1 20 25
M  V30 25 2 25 26
M  V30 26 1 26 27
M  V30 27 2 27 28
M  V30 28 1 28 29
M  V30 29 3 29 30
M  V30 30 1 28 31
M  V30 31 1 31 32
M  V30 32 2 16 33
M  V30 33 1 33 34
M  V30 34 1 9 35
M  V30 35 1 35 36
M  V30 36 1 36 37
M  V30 37 1 37 38
M  V30 38 2 38 39
M  V30 39 1 38 40
M  V30 40 1 38 41
M  V30 41 1 36 6
M  V30 42 1 33 10
M  V30 43 2 32 18
M  V30 44 1 24 22
M  V30 45 1 31 25
M  V30 46 1 1 42
M  V30 47 1 1 43
M  V30 48 1 1 44
M  V30 49 1 5 45
M  V30 50 1 6 46 CFG=3
M  V30 51 1 7 47
M  V30 52 1 7 48
M  V30 53 1 8 49
M  V30 54 1 8 50
M  V30 55 1 11 51
M  V30 56 1 15 52
M  V30 57 1 17 53
M  V30 58 1 21 54
M  V30 59 1 22 55
M  V30 60 1 23 56
M  V30 61 1 23 57
M  V30 62 1 24 58
M  V30 63 1 24 59
M  V30 64 1 27 60
M  V30 65 1 35 61
M  V30 66 1 35 62
M  V30 67 1 36 63 CFG=1
M  V30 68 1 40 64
M  V30 69 1 41 65
M  V30 END BOND
M  V30 END CTAB
M  END
>  <Dataset>  (552) 
ChEMBL_Kinases

>  <Ligand_Instance>  (552) 
nan

>  <PDB_ID>  (552) 
nan

>  <Standardized_SMILES>  (552) 
COC(=O)N[C@@H]1CCN(c2cc(C#N)cc(Nc3nc(NC4CC4)c4ncc(C#N)n4n3)c2Cl)C[C@H]1OP(=O)(O)O

>  <Name>  (552) 
nan

>  <Pocket>  (552) 
nan

>  <ATP_Site>  (552) 
nan

>  <Peripheral>  (552) 
nan

>  <Num_H_Atoms_ProtBoundConf>  (552) 
nan

>  <Num_Resolved_Atoms>  (552) 
nan

>  <Num_Not_Resolved_Atoms>  (552) 
nan

$$$$
CHEMBL3699275
     RDKit          3D

  0  0  0  0  0  0  0  0  0  0999 V3000
M  V30 BEGIN CTAB
M  V30 COUNTS 61 66 0 0 0
M  V30 BEGIN ATOM
M  V30 1 N 6.242369 -1.209281 1.001397 0
M  V30 2 C 5.773345 -0.152567 1.226260 0
M  V30 3 C 5.221525 1.151839 1.497522 0
M  V30 4 C 5.926109 2.348905 1.571761 0
M  V30 5 N 5.033121 3.310922 1.844322 0
M  V30 6 C 3.841234 2.701817 1.927744 0
M  V30 7 C 2.615946 3.247831 2.185591 0
M  V30 8 N 2.433239 4.631298 2.407840 0
M  V30 9 C 3.516974 5.574036 2.402766 0
M  V30 10 C 4.563203 5.554568 3.442274 0
M  V30 11 C 3.585220 6.724210 3.304176 0
M  V30 12 N 1.507383 2.475740 2.232058 0
M  V30 13 C 1.573961 1.149660 2.026229 0
M  V30 14 N 0.630601 0.095496 2.019353 0
M  V30 15 C -0.212454 -0.152582 0.873512 0
M  V30 16 C -0.206287 0.691358 -0.215338 0
M  V30 17 C -1.003986 0.505641 -1.324014 0
M  V30 18 C -1.000859 1.407914 -2.503562 0
M  V30 19 F -1.352442 2.706636 -2.106757 0
M  V30 20 F 0.326819 1.490220 -2.938223 0
M  V30 21 C -1.858562 -0.582113 -1.356425 0
M  V30 22 C -1.889289 -1.461310 -0.266209 0
M  V30 23 N -2.750234 -2.579674 -0.389999 0
M  V30 24 C -3.764670 -3.228054 0.378998 0
M  V30 25 C -4.448275 -4.354213 -0.325454 0
M  V30 26 C -3.585928 -5.372388 -0.969003 0
M  V30 27 C -3.404049 -6.664189 -0.248128 0
M  V30 28 C -2.451878 -7.637703 -0.939423 0
M  V30 29 O -3.427216 -7.952764 -1.885595 0
M  V30 30 C -4.368549 -7.707547 -0.852480 0
M  V30 31 C -2.239277 -4.750770 -1.331681 0
M  V30 32 C -2.589674 -3.291890 -1.644235 0
M  V30 33 C -1.077601 -1.223258 0.800947 0
M  V30 34 Cl -1.112653 -2.315969 2.167647 0
M  V30 35 N 2.804294 0.643968 1.773061 0
M  V30 36 N 3.907397 1.373550 1.721638 0
M  V30 37 H 6.985958 2.512705 1.439430 0
M  V30 38 H 1.512730 5.068191 2.587820 0
M  V30 39 H 3.904317 5.771216 1.358136 0
M  V30 40 H 5.620532 5.735409 3.153788 0
M  V30 41 H 4.442874 5.046771 4.420176 0
M  V30 42 H 4.055692 7.688593 2.985962 0
M  V30 43 H 2.803221 6.859416 4.080030 0
M  V30 44 H 0.504342 -0.542242 2.834875 0
M  V30 45 H 0.425066 1.544812 -0.259685 0
M  V30 46 H -1.664739 1.048459 -3.291679 0
M  V30 47 H -2.499409 -0.736406 -2.238484 0
M  V30 48 H -3.354346 -3.667892 1.336240 0
M  V30 49 H -4.514987 -2.438231 0.654615 0
M  V30 50 H -5.217150 -3.918281 -1.022949 0
M  V30 51 H -5.084565 -4.916002 0.429894 0
M  V30 52 H -4.069365 -5.584601 -1.983206 0
M  V30 53 H -3.369235 -6.679011 0.837466 0
M  V30 54 H -2.232181 -8.515362 -0.314898 0
M  V30 55 H -1.522683 -7.186404 -1.306197 0
M  V30 56 H -5.283996 -7.250468 -1.288679 0
M  V30 57 H -4.502125 -8.613208 -0.253718 0
M  V30 58 H -1.823545 -5.174116 -2.269852 0
M  V30 59 H -1.551611 -4.714164 -0.486653 0
M  V30 60 H -3.551044 -3.279493 -2.210057 0
M  V30 61 H -1.800421 -2.869643 -2.265513 0
M  V30 END ATOM
M  V30 BEGIN BOND
M  V30 1 3 1 2
M  V30 2 1 2 3
M  V30 3 2 3 4
M  V30 4 1 4 5
M  V30 5 2 5 6
M  V30 6 1 6 7
M  V30 7 1 7 8
M  V30 8 1 8 9
M  V30 9 1 9 10
M  V30 10 1 10 11
M  V30 11 2 7 12
M  V30 12 1 12 13
M  V30 13 1 13 14
M  V30 14 1 14 15
M  V30 15 2 15 16
M  V30 16 1 16 17
M  V30 17 1 17 18
M  V30 18 1 18 19
M  V30 19 1 18 20
M  V30 20 2 17 21
M  V30 21 1 21 22
M  V30 22 1 22 23
M  V30 23 1 23 24
M  V30 24 1 24 25
M  V30 25 1 25 26
M  V30 26 1 26 27
M  V30 27 1 27 28
M  V30 28 1 28 29
M  V30 29 1 29 30
M  V30 30 1 26 31
M  V30 31 1 31 32
M  V30 32 2 22 33
M  V30 33 1 33 34
M  V30 34 2 13 35
M  V30 35 1 35 36
M  V30 36 1 36 3
M  V30 37 1 36 6
M  V30 38 1 11 9
M  V30 39 1 33 15
M  V30 40 1 32 23
M  V30 41 1 30 27
M  V30 42 1 4 37
M  V30 43 1 8 38
M  V30 44 1 9 39
M  V30 45 1 10 40
M  V30 46 1 10 41
M  V30 47 1 11 42
M  V30 48 1 11 43
M  V30 49 1 14 44
M  V30 50 1 16 45
M  V30 51 1 18 46
M  V30 52 1 21 47
M  V30 53 1 24 48
M  V30 54 1 24 49
M  V30 55 1 25 50
M  V30 56 1 25 51
M  V30 57 1 26 52
M  V30 58 1 27 53
M  V30 59 1 28 54
M  V30 60 1 28 55
M  V30 61 1 30 56
M  V30 62 1 30 57
M  V30 63 1 31 58
M  V30 64 1 31 59
M  V30 65 1 32 60
M  V30 66 1 32 61
M  V30 END BOND
M  V30 END CTAB
M  END
>  <Dataset>  (553) 
ChEMBL_Kinases

>  <Ligand_Instance>  (553) 
nan

>  <PDB_ID>  (553) 
nan

>  <Standardized_SMILES>  (553) 
N#Cc1cnc2c(NC3CC3)nc(Nc3cc(C(F)F)cc(N4CCC(C5COC5)CC4)c3Cl)nn12

>  <Name>  (553) 
nan

>  <Pocket>  (553) 
nan

>  <ATP_Site>  (553) 
nan

>  <Peripheral>  (553) 
nan

>  <Num_H_Atoms_ProtBoundConf>  (553) 
nan

>  <Num_Resolved_Atoms>  (553) 
nan

>  <Num_Not_Resolved_Atoms>  (553) 
nan

$$$$
CHEMBL3699274
     RDKit          3D

  0  0  0  0  0  0  0  0  0  0999 V3000
M  V30 BEGIN CTAB
M  V30 COUNTS 63 68 0 0 0
M  V30 BEGIN ATOM
M  V30 1 C 1.679687 0.839143 5.523106 0
M  V30 2 C 2.972088 0.595395 4.771937 0
M  V30 3 N 2.935205 0.855583 3.403491 0
M  V30 4 C 2.618155 2.173968 3.005205 0
M  V30 5 C 2.162792 2.306584 1.575995 0
M  V30 6 N 2.434791 1.081706 0.844439 0
M  V30 7 C 1.614071 0.327434 -0.072814 0
M  V30 8 C 2.036478 0.133989 -1.376336 0
M  V30 9 C 1.188785 -0.603816 -2.200388 0
M  V30 10 C 1.580109 -0.852931 -3.621924 0
M  V30 11 F 2.790911 -1.540668 -3.624852 0
M  V30 12 F 1.748673 0.333644 -4.327327 0
M  V30 13 C 0.001849 -1.090279 -1.684138 0
M  V30 14 C -0.403025 -0.887261 -0.380718 0
M  V30 15 N -1.647769 -1.441989 0.031561 0
M  V30 16 C -2.526865 -2.194745 -0.795342 0
M  V30 17 N -3.516025 -1.583559 -1.510964 0
M  V30 18 C -4.345877 -2.296164 -2.292821 0
M  V30 19 N -5.361802 -1.673253 -3.027375 0
M  V30 20 C -5.656293 -0.262139 -3.056184 0
M  V30 21 C -6.022256 0.390683 -1.741485 0
M  V30 22 C -7.049686 0.171537 -2.786412 0
M  V30 23 C -4.220364 -3.665975 -2.393448 0
M  V30 24 N -4.860047 -4.632732 -3.058234 0
M  V30 25 C -4.292952 -5.818975 -2.771947 0
M  V30 26 C -3.248655 -5.573496 -1.884357 0
M  V30 27 C -2.354014 -6.550194 -1.300156 0
M  V30 28 N -1.634103 -7.337921 -0.807434 0
M  V30 29 N -3.226211 -4.242163 -1.668587 0
M  V30 30 N -2.393790 -3.542459 -0.886505 0
M  V30 31 C 0.435397 -0.151761 0.451694 0
M  V30 32 Cl -0.098825 0.085155 2.075834 0
M  V30 33 C 3.785813 0.567707 1.123179 0
M  V30 34 C 3.878000 0.186635 2.567698 0
M  V30 35 C 3.632892 -0.628805 5.296258 0
M  V30 36 O 3.940560 0.121491 6.459376 0
M  V30 37 C 4.130769 1.189668 5.561063 0
M  V30 38 H 1.379646 -0.032804 6.156167 0
M  V30 39 H 1.791670 1.771381 6.097835 0
M  V30 40 H 0.828974 0.999304 4.824902 0
M  V30 41 H 3.477200 2.841325 3.224622 0
M  V30 42 H 1.787058 2.537617 3.678044 0
M  V30 43 H 2.786253 3.098467 1.095356 0
M  V30 44 H 1.111886 2.645496 1.470635 0
M  V30 45 H 2.962352 0.530106 -1.727933 0
M  V30 46 H 0.803209 -1.442799 -4.123867 0
M  V30 47 H -0.603580 -1.652000 -2.378790 0
M  V30 48 H -2.057330 -1.366742 0.965432 0
M  V30 49 H -6.021498 -2.180265 -3.640634 0
M  V30 50 H -5.046337 0.303133 -3.786090 0
M  V30 51 H -6.078776 -0.260696 -0.838111 0
M  V30 52 H -5.546043 1.375020 -1.578098 0
M  V30 53 H -7.414061 1.039801 -3.341327 0
M  V30 54 H -7.837035 -0.589531 -2.587618 0
M  V30 55 H -4.554579 -6.820592 -3.133738 0
M  V30 56 H 4.479711 1.387553 0.825350 0
M  V30 57 H 4.029499 -0.269652 0.428336 0
M  V30 58 H 4.905937 0.501463 2.912553 0
M  V30 59 H 3.853923 -0.894329 2.628729 0
M  V30 60 H 4.568909 -0.977321 4.870905 0
M  V30 61 H 2.964850 -1.486901 5.532361 0
M  V30 62 H 5.113150 1.026718 5.049107 0
M  V30 63 H 3.951082 2.194644 5.975078 0
M  V30 END ATOM
M  V30 BEGIN BOND
M  V30 1 1 1 2
M  V30 2 1 2 3
M  V30 3 1 3 4
M  V30 4 1 4 5
M  V30 5 1 5 6
M  V30 6 1 6 7
M  V30 7 2 7 8
M  V30 8 1 8 9
M  V30 9 1 9 10
M  V30 10 1 10 11
M  V30 11 1 10 12
M  V30 12 2 9 13
M  V30 13 1 13 14
M  V30 14 1 14 15
M  V30 15 1 15 16
M  V30 16 1 16 17
M  V30 17 2 17 18
M  V30 18 1 18 19
M  V30 19 1 19 20
M  V30 20 1 20 21
M  V30 21 1 21 22
M  V30 22 1 18 23
M  V30 23 2 23 24
M  V30 24 1 24 25
M  V30 25 2 25 26
M  V30 26 1 26 27
M  V30 27 3 27 28
M  V30 28 1 26 29
M  V30 29 1 29 30
M  V30 30 2 14 31
M  V30 31 1 31 32
M  V30 32 1 6 33
M  V30 33 1 33 34
M  V30 34 1 2 35
M  V30 35 1 35 36
M  V30 36 1 36 37
M  V30 37 1 37 2
M  V30 38 1 34 3
M  V30 39 1 31 7
M  V30 40 2 30 16
M  V30 41 1 22 20
M  V30 42 1 29 23
M  V30 43 1 1 38
M  V30 44 1 1 39
M  V30 45 1 1 40
M  V30 46 1 4 41
M  V30 47 1 4 42
M  V30 48 1 5 43
M  V30 49 1 5 44
M  V30 50 1 8 45
M  V30 51 1 10 46
M  V30 52 1 13 47
M  V30 53 1 15 48
M  V30 54 1 19 49
M  V30 55 1 20 50
M  V30 56 1 21 51
M  V30 57 1 21 52
M  V30 58 1 22 53
M  V30 59 1 22 54
M  V30 60 1 25 55
M  V30 61 1 33 56
M  V30 62 1 33 57
M  V30 63 1 34 58
M  V30 64 1 34 59
M  V30 65 1 35 60
M  V30 66 1 35 61
M  V30 67 1 37 62
M  V30 68 1 37 63
M  V30 END BOND
M  V30 END CTAB
M  END
>  <Dataset>  (554) 
ChEMBL_Kinases

>  <Ligand_Instance>  (554) 
nan

>  <PDB_ID>  (554) 
nan

>  <Standardized_SMILES>  (554) 
CC1(N2CCN(c3cc(C(F)F)cc(Nc4nc(NC5CC5)c5ncc(C#N)n5n4)c3Cl)CC2)COC1

>  <Name>  (554) 
nan

>  <Pocket>  (554) 
nan

>  <ATP_Site>  (554) 
nan

>  <Peripheral>  (554) 
nan

>  <Num_H_Atoms_ProtBoundConf>  (554) 
nan

>  <Num_Resolved_Atoms>  (554) 
nan

>  <Num_Not_Resolved_Atoms>  (554) 
nan

$$$$
CHEMBL3699273
     RDKit          3D

  0  0  0  0  0  0  0  0  0  0999 V3000
M  V30 BEGIN CTAB
M  V30 COUNTS 76 82 0 0 0
M  V30 BEGIN ATOM
M  V30 1 N -7.591439 -5.153477 5.482769 0
M  V30 2 C -7.758225 -4.390369 4.628955 0
M  V30 3 C -7.984174 -3.442333 3.581257 0
M  V30 4 C -9.231619 -3.107360 3.115055 0
M  V30 5 N -9.031981 -2.210651 2.155848 0
M  V30 6 C -7.702916 -1.969733 2.001691 0
M  V30 7 C -7.039316 -1.115863 1.125348 0
M  V30 8 N -7.765113 -0.334997 0.191248 0
M  V30 9 C -7.396799 0.625227 -0.790781 0
M  V30 10 C -6.375226 0.197044 -1.794585 0
M  V30 11 C -6.103256 1.316589 -0.807096 0
M  V30 12 N -5.700551 -1.128842 1.247702 0
M  V30 13 C -5.032464 -1.887053 2.126689 0
M  V30 14 N -3.634755 -1.979452 2.314622 0
M  V30 15 C -2.558779 -1.385889 1.607128 0
M  V30 16 C -2.734185 -0.605350 0.483954 0
M  V30 17 C -1.750281 -0.000768 -0.267325 0
M  V30 18 C -2.111943 0.827928 -1.469584 0
M  V30 19 F -2.758828 0.056402 -2.402131 0
M  V30 20 F -2.941774 1.837886 -1.063702 0
M  V30 21 C -0.444771 -0.189873 0.137669 0
M  V30 22 C -0.195183 -0.960415 1.253473 0
M  V30 23 N 1.121737 -1.206046 1.720854 0
M  V30 24 C 1.542587 -2.615814 1.739848 0
M  V30 25 C 2.661080 -2.825342 0.736159 0
M  V30 26 N 3.380581 -1.595393 0.472310 0
M  V30 27 C 4.530211 -1.719226 -0.315139 0
M  V30 28 C 5.051732 -0.612885 -1.148618 0
M  V30 29 S 5.514345 0.895896 -0.456753 0
M  V30 30 O 4.250512 1.625239 0.014790 0
M  V30 31 O 6.472725 0.899690 0.646885 0
M  V30 32 C 6.153179 2.013779 -1.699102 0
M  V30 33 C 5.350134 2.906645 -2.398805 0
M  V30 34 C 5.974818 3.707784 -3.330009 0
M  V30 35 C 7.311783 3.683894 -3.607676 0
M  V30 36 C 8.109545 2.803994 -2.919683 0
M  V30 37 C 7.502103 1.994982 -1.984789 0
M  V30 38 C 5.637070 -2.631689 0.216069 0
M  V30 39 O 5.883874 -2.879127 -1.158904 0
M  V30 40 C 4.468511 -2.983324 -1.194125 0
M  V30 41 C 3.527609 -0.919280 1.736606 0
M  V30 42 C 2.207972 -0.326546 2.211655 0
M  V30 43 C -1.215184 -1.542476 1.969916 0
M  V30 44 Cl -0.864799 -2.519942 3.405557 0
M  V30 45 N -5.772600 -2.674290 2.924574 0
M  V30 46 N -7.082262 -2.737644 2.888249 0
M  V30 47 H -10.232106 -3.418878 3.372727 0
M  V30 48 H -8.820639 -0.501970 0.225275 0
M  V30 49 H -8.271133 1.184127 -1.245174 0
M  V30 50 H -5.801557 -0.745283 -1.612356 0
M  V30 51 H -6.540254 0.440126 -2.846479 0
M  V30 52 H -6.095818 2.351862 -1.273815 0
M  V30 53 H -5.408715 1.151306 0.024485 0
M  V30 54 H -3.267899 -2.580808 3.101865 0
M  V30 55 H -3.730011 -0.453729 0.147922 0
M  V30 56 H -1.204992 1.233039 -1.923342 0
M  V30 57 H 0.361193 0.265260 -0.419467 0
M  V30 58 H 0.705679 -3.295241 1.579820 0
M  V30 59 H 1.900664 -2.803080 2.784295 0
M  V30 60 H 3.360638 -3.521373 1.230008 0
M  V30 61 H 2.225102 -3.315101 -0.125933 0
M  V30 62 H 4.274808 -0.465242 -1.969059 0
M  V30 63 H 5.941167 -0.944057 -1.779057 0
M  V30 64 H 4.294654 2.911983 -2.165162 0
M  V30 65 H 5.350777 4.418780 -3.891699 0
M  V30 66 H 7.730980 4.358912 -4.366999 0
M  V30 67 H 9.163140 2.772047 -3.125874 0
M  V30 68 H 8.154544 1.297125 -1.442623 0
M  V30 69 H 6.496895 -2.135837 0.640519 0
M  V30 70 H 5.273038 -3.551761 0.653999 0
M  V30 71 H 4.253157 -3.902035 -0.627621 0
M  V30 72 H 4.031198 -2.838882 -2.176782 0
M  V30 73 H 4.303364 -0.222374 1.875950 0
M  V30 74 H 3.721138 -1.755930 2.480931 0
M  V30 75 H 2.068013 0.714041 1.915776 0
M  V30 76 H 2.121893 -0.368391 3.317248 0
M  V30 END ATOM
M  V30 BEGIN BOND
M  V30 1 3 1 2
M  V30 2 1 2 3
M  V30 3 2 3 4
M  V30 4 1 4 5
M  V30 5 2 5 6
M  V30 6 1 6 7
M  V30 7 1 7 8
M  V30 8 1 8 9
M  V30 9 1 9 10
M  V30 10 1 10 11
M  V30 11 2 7 12
M  V30 12 1 12 13
M  V30 13 1 13 14
M  V30 14 1 14 15
M  V30 15 2 15 16
M  V30 16 1 16 17
M  V30 17 1 17 18
M  V30 18 1 18 19
M  V30 19 1 18 20
M  V30 20 2 17 21
M  V30 21 1 21 22
M  V30 22 1 22 23
M  V30 23 1 23 24
M  V30 24 1 24 25
M  V30 25 1 25 26
M  V30 26 1 26 27
M  V30 27 1 27 28
M  V30 28 1 28 29
M  V30 29 2 29 30
M  V30 30 2 29 31
M  V30 31 1 29 32
M  V30 32 2 32 33
M  V30 33 1 33 34
M  V30 34 2 34 35
M  V30 35 1 35 36
M  V30 36 2 36 37
M  V30 37 1 27 38
M  V30 38 1 38 39
M  V30 39 1 39 40
M  V30 40 1 26 41
M  V30 41 1 41 42
M  V30 42 2 22 43
M  V30 43 1 43 44
M  V30 44 2 13 45
M  V30 45 1 45 46
M  V30 46 1 46 3
M  V30 47 1 46 6
M  V30 48 1 11 9
M  V30 49 1 43 15
M  V30 50 1 42 23
M  V30 51 1 40 27
M  V30 52 1 37 32
M  V30 53 1 4 47
M  V30 54 1 8 48
M  V30 55 1 9 49
M  V30 56 1 10 50
M  V30 57 1 10 51
M  V30 58 1 11 52
M  V30 59 1 11 53
M  V30 60 1 14 54
M  V30 61 1 16 55
M  V30 62 1 18 56
M  V30 63 1 21 57
M  V30 64 1 24 58
M  V30 65 1 24 59
M  V30 66 1 25 60
M  V30 67 1 25 61
M  V30 68 1 28 62
M  V30 69 1 28 63
M  V30 70 1 33 64
M  V30 71 1 34 65
M  V30 72 1 35 66
M  V30 73 1 36 67
M  V30 74 1 37 68
M  V30 75 1 38 69
M  V30 76 1 38 70
M  V30 77 1 40 71
M  V30 78 1 40 72
M  V30 79 1 41 73
M  V30 80 1 41 74
M  V30 81 1 42 75
M  V30 82 1 42 76
M  V30 END BOND
M  V30 END CTAB
M  END
>  <Dataset>  (555) 
ChEMBL_Kinases

>  <Ligand_Instance>  (555) 
nan

>  <PDB_ID>  (555) 
nan

>  <Standardized_SMILES>  (555) 
N#Cc1cnc2c(NC3CC3)nc(Nc3cc(C(F)F)cc(N4CCN(C5(CS(=O)(=O)c6ccccc6)COC5)CC4)c3Cl)nn12

>  <Name>  (555) 
nan

>  <Pocket>  (555) 
nan

>  <ATP_Site>  (555) 
nan

>  <Peripheral>  (555) 
nan

>  <Num_H_Atoms_ProtBoundConf>  (555) 
nan

>  <Num_Resolved_Atoms>  (555) 
nan

>  <Num_Not_Resolved_Atoms>  (555) 
nan

$$$$
CHEMBL3699272
     RDKit          3D

  0  0  0  0  0  0  0  0  0  0999 V3000
M  V30 BEGIN CTAB
M  V30 COUNTS 61 66 0 0 0
M  V30 BEGIN ATOM
M  V30 1 N 3.449406 1.351591 7.808205 0
M  V30 2 C 3.301465 1.978897 6.842140 0
M  V30 3 C 3.141077 2.763923 5.634304 0
M  V30 4 C 3.620541 4.049412 5.485737 0
M  V30 5 N 3.265961 4.425721 4.231327 0
M  V30 6 C 2.605476 3.441885 3.630694 0
M  V30 7 C 2.047127 3.318304 2.383842 0
M  V30 8 N 2.065878 4.329023 1.397214 0
M  V30 9 C 2.679009 5.616227 1.542622 0
M  V30 10 C 4.146885 5.718926 1.735233 0
M  V30 11 C 3.532463 6.215103 0.480163 0
M  V30 12 N 1.445578 2.150262 2.105435 0
M  V30 13 C 1.344763 1.109100 2.931604 0
M  V30 14 N 0.723765 -0.123871 2.622303 0
M  V30 15 C 0.193926 -0.557507 1.384644 0
M  V30 16 C 0.246273 0.155934 0.206186 0
M  V30 17 C -0.250347 -0.260385 -1.019555 0
M  V30 18 C -0.147402 0.570083 -2.231324 0
M  V30 19 F -0.600282 1.855147 -2.092399 0
M  V30 20 F 1.205096 0.657414 -2.588886 0
M  V30 21 C -0.848917 -1.495047 -1.074206 0
M  V30 22 C -0.936006 -2.270367 0.088861 0
M  V30 23 N -1.561835 -3.560291 0.031998 0
M  V30 24 C -2.736224 -4.217092 0.559370 0
M  V30 25 C -3.608643 -4.856575 -0.482230 0
M  V30 26 N -3.053206 -5.045066 -1.753071 0
M  V30 27 C -3.546679 -6.171444 -2.469137 0
M  V30 28 C -3.359865 -7.476205 -1.841027 0
M  V30 29 N -3.230745 -8.509459 -1.347610 0
M  V30 30 C -2.916201 -6.207436 -3.860341 0
M  V30 31 O -4.148404 -6.638601 -4.364067 0
M  V30 32 C -4.774976 -5.997428 -3.304344 0
M  V30 33 C -1.674683 -4.884807 -1.944454 0
M  V30 34 C -0.848239 -4.540274 -0.760276 0
M  V30 35 C -0.417257 -1.773907 1.258256 0
M  V30 36 Cl -0.572416 -2.801297 2.664653 0
M  V30 37 N 1.906057 1.285012 4.134249 0
M  V30 38 N 2.518112 2.402696 4.487397 0
M  V30 39 H 4.165017 4.640063 6.206322 0
M  V30 40 H 1.622015 4.205582 0.470968 0
M  V30 41 H 2.086919 6.360172 2.148948 0
M  V30 42 H 4.690020 4.724334 1.745412 0
M  V30 43 H 4.546303 6.458334 2.453160 0
M  V30 44 H 3.559565 5.639095 -0.477663 0
M  V30 45 H 3.515835 7.322843 0.300820 0
M  V30 46 H 0.638094 -0.821769 3.414060 0
M  V30 47 H 0.705915 1.132719 0.177988 0
M  V30 48 H -0.692692 0.059332 -3.067287 0
M  V30 49 H -1.238772 -1.818327 -2.025248 0
M  V30 50 H -2.398072 -5.015168 1.251988 0
M  V30 51 H -3.302610 -3.477473 1.170076 0
M  V30 52 H -4.049142 -5.829210 -0.119760 0
M  V30 53 H -4.508451 -4.179815 -0.590924 0
M  V30 54 H -2.137977 -6.981815 -3.988257 0
M  V30 55 H -2.672643 -5.203909 -4.209809 0
M  V30 56 H -5.694080 -6.517159 -2.954855 0
M  V30 57 H -4.927781 -4.923825 -3.550970 0
M  V30 58 H -1.519466 -4.093205 -2.723370 0
M  V30 59 H -1.201194 -5.796714 -2.414988 0
M  V30 60 H 0.120855 -4.140605 -1.157870 0
M  V30 61 H -0.542004 -5.411696 -0.136817 0
M  V30 END ATOM
M  V30 BEGIN BOND
M  V30 1 3 1 2
M  V30 2 1 2 3
M  V30 3 2 3 4
M  V30 4 1 4 5
M  V30 5 2 5 6
M  V30 6 1 6 7
M  V30 7 1 7 8
M  V30 8 1 8 9
M  V30 9 1 9 10
M  V30 10 1 10 11
M  V30 11 2 7 12
M  V30 12 1 12 13
M  V30 13 1 13 14
M  V30 14 1 14 15
M  V30 15 2 15 16
M  V30 16 1 16 17
M  V30 17 1 17 18
M  V30 18 1 18 19
M  V30 19 1 18 20
M  V30 20 2 17 21
M  V30 21 1 21 22
M  V30 22 1 22 23
M  V30 23 1 23 24
M  V30 24 1 24 25
M  V30 25 1 25 26
M  V30 26 1 26 27
M  V30 27 1 27 28
M  V30 28 3 28 29
M  V30 29 1 27 30
M  V30 30 1 30 31
M  V30 31 1 31 32
M  V30 32 1 26 33
M  V30 33 1 33 34
M  V30 34 2 22 35
M  V30 35 1 35 36
M  V30 36 2 13 37
M  V30 37 1 37 38
M  V30 38 1 38 3
M  V30 39 1 38 6
M  V30 40 1 11 9
M  V30 41 1 35 15
M  V30 42 1 34 23
M  V30 43 1 32 27
M  V30 44 1 4 39
M  V30 45 1 8 40
M  V30 46 1 9 41
M  V30 47 1 10 42
M  V30 48 1 10 43
M  V30 49 1 11 44
M  V30 50 1 11 45
M  V30 51 1 14 46
M  V30 52 1 16 47
M  V30 53 1 18 48
M  V30 54 1 21 49
M  V30 55 1 24 50
M  V30 56 1 24 51
M  V30 57 1 25 52
M  V30 58 1 25 53
M  V30 59 1 30 54
M  V30 60 1 30 55
M  V30 61 1 32 56
M  V30 62 1 32 57
M  V30 63 1 33 58
M  V30 64 1 33 59
M  V30 65 1 34 60
M  V30 66 1 34 61
M  V30 END BOND
M  V30 END CTAB
M  END
>  <Dataset>  (556) 
ChEMBL_Kinases

>  <Ligand_Instance>  (556) 
nan

>  <PDB_ID>  (556) 
nan

>  <Standardized_SMILES>  (556) 
N#Cc1cnc2c(NC3CC3)nc(Nc3cc(C(F)F)cc(N4CCN(C5(C#N)COC5)CC4)c3Cl)nn12

>  <Name>  (556) 
nan

>  <Pocket>  (556) 
nan

>  <ATP_Site>  (556) 
nan

>  <Peripheral>  (556) 
nan

>  <Num_H_Atoms_ProtBoundConf>  (556) 
nan

>  <Num_Resolved_Atoms>  (556) 
nan

>  <Num_Not_Resolved_Atoms>  (556) 
nan

$$$$
CHEMBL3699271
     RDKit          3D

  0  0  0  0  0  0  0  0  0  0999 V3000
M  V30 BEGIN CTAB
M  V30 COUNTS 67 72 0 0 0
M  V30 BEGIN ATOM
M  V30 1 C 2.236851 -2.305237 5.732173 0
M  V30 2 N 2.942749 -2.818412 4.593342 0
M  V30 3 C 2.217032 -2.699778 3.371180 0
M  V30 4 C 3.319623 -1.850602 2.713088 0
M  V30 5 C 2.762664 -0.496449 2.442214 0
M  V30 6 N 3.613152 0.445089 1.784176 0
M  V30 7 C 3.973349 0.156425 0.448810 0
M  V30 8 C 3.375819 0.947062 -0.659769 0
M  V30 9 N 2.422170 1.912241 -0.233815 0
M  V30 10 C 1.132723 2.174710 -0.661226 0
M  V30 11 C 0.437422 3.306061 -0.987631 0
M  V30 12 C -0.879237 3.428326 -1.353688 0
M  V30 13 C -1.404639 4.771950 -1.653278 0
M  V30 14 F -0.502610 5.485675 -2.383838 0
M  V30 15 F -1.820887 5.450932 -0.512714 0
M  V30 16 C -1.634354 2.247700 -1.404951 0
M  V30 17 C -0.991280 1.043295 -1.081489 0
M  V30 18 N -1.895542 -0.017969 -1.082023 0
M  V30 19 C -2.850050 -0.999535 -1.124147 0
M  V30 20 N -2.762640 -2.305695 -1.555033 0
M  V30 21 C -3.798698 -3.139779 -1.488199 0
M  V30 22 N -3.505490 -4.437582 -1.936929 0
M  V30 23 C -2.170572 -4.758795 -2.380085 0
M  V30 24 C -1.025893 -4.647919 -1.433658 0
M  V30 25 C -1.569858 -6.006930 -1.752902 0
M  V30 26 C -4.922494 -2.572829 -0.961417 0
M  V30 27 N -6.076275 -3.254092 -0.795593 0
M  V30 28 C -7.021971 -2.489044 -0.252477 0
M  V30 29 C -6.378988 -1.278594 -0.090214 0
M  V30 30 C -6.959198 -0.081597 0.451749 0
M  V30 31 N -7.433764 0.880199 0.903418 0
M  V30 32 N -5.111932 -1.341337 -0.520565 0
M  V30 33 N -4.046319 -0.570615 -0.616643 0
M  V30 34 C 0.339637 1.063875 -0.735126 0
M  V30 35 Cl 0.932988 -0.569137 -0.528041 0
M  V30 36 C 3.061071 2.680628 0.836269 0
M  V30 37 C 3.069118 1.752191 2.023255 0
M  V30 38 C 4.013625 -2.047914 4.050846 0
M  V30 39 H 1.259565 -1.869100 5.396555 0
M  V30 40 H 1.921237 -3.167195 6.388808 0
M  V30 41 H 2.801471 -1.579845 6.332111 0
M  V30 42 H 2.050494 -3.690611 2.865038 0
M  V30 43 H 1.235279 -2.180814 3.453186 0
M  V30 44 H 3.761417 -2.429105 1.898135 0
M  V30 45 H 2.670595 -0.038333 3.509389 0
M  V30 46 H 1.723322 -0.565282 2.152388 0
M  V30 47 H 5.108581 0.194758 0.429123 0
M  V30 48 H 3.777032 -0.924510 0.248467 0
M  V30 49 H 4.221796 1.549025 -1.125368 0
M  V30 50 H 3.037615 0.340634 -1.535968 0
M  V30 51 H 1.059190 4.188836 -0.931065 0
M  V30 52 H -2.335393 4.636380 -2.266434 0
M  V30 53 H -2.652214 2.446598 -1.706779 0
M  V30 54 H -1.322660 -0.701635 -0.501714 0
M  V30 55 H -4.288319 -5.129565 -1.933885 0
M  V30 56 H -1.980084 -4.636096 -3.450603 0
M  V30 57 H -0.056079 -4.367203 -1.899980 0
M  V30 58 H -1.159689 -4.276012 -0.392060 0
M  V30 59 H -0.899328 -6.658646 -2.346054 0
M  V30 60 H -2.150594 -6.525161 -0.969213 0
M  V30 61 H -8.014850 -2.783944 -0.013959 0
M  V30 62 H 4.078453 3.010121 0.565644 0
M  V30 63 H 2.429154 3.559179 1.121533 0
M  V30 64 H 3.519916 2.210599 2.924216 0
M  V30 65 H 1.973253 1.608557 2.273039 0
M  V30 66 H 4.913641 -2.696235 3.919028 0
M  V30 67 H 4.240659 -1.082127 4.536130 0
M  V30 END ATOM
M  V30 BEGIN BOND
M  V30 1 1 1 2
M  V30 2 1 2 3
M  V30 3 1 3 4
M  V30 4 1 4 5
M  V30 5 1 5 6
M  V30 6 1 6 7
M  V30 7 1 7 8
M  V30 8 1 8 9
M  V30 9 1 9 10
M  V30 10 2 10 11
M  V30 11 1 11 12
M  V30 12 1 12 13
M  V30 13 1 13 14
M  V30 14 1 13 15
M  V30 15 2 12 16
M  V30 16 1 16 17
M  V30 17 1 17 18
M  V30 18 1 18 19
M  V30 19 1 19 20
M  V30 20 2 20 21
M  V30 21 1 21 22
M  V30 22 1 22 23
M  V30 23 1 23 24
M  V30 24 1 24 25
M  V30 25 1 21 26
M  V30 26 2 26 27
M  V30 27 1 27 28
M  V30 28 2 28 29
M  V30 29 1 29 30
M  V30 30 3 30 31
M  V30 31 1 29 32
M  V30 32 1 32 33
M  V30 33 2 17 34
M  V30 34 1 34 35
M  V30 35 1 9 36
M  V30 36 1 36 37
M  V30 37 1 4 38
M  V30 38 1 38 2
M  V30 39 1 37 6
M  V30 40 1 34 10
M  V30 41 2 33 19
M  V30 42 1 25 23
M  V30 43 1 32 26
M  V30 44 1 1 39
M  V30 45 1 1 40
M  V30 46 1 1 41
M  V30 47 1 3 42
M  V30 48 1 3 43
M  V30 49 1 4 44
M  V30 50 1 5 45
M  V30 51 1 5 46
M  V30 52 1 7 47
M  V30 53 1 7 48
M  V30 54 1 8 49
M  V30 55 1 8 50
M  V30 56 1 11 51
M  V30 57 1 13 52
M  V30 58 1 16 53
M  V30 59 1 18 54
M  V30 60 1 22 55
M  V30 61 1 23 56
M  V30 62 1 24 57
M  V30 63 1 24 58
M  V30 64 1 25 59
M  V30 65 1 25 60
M  V30 66 1 28 61
M  V30 67 1 36 62
M  V30 68 1 36 63
M  V30 69 1 37 64
M  V30 70 1 37 65
M  V30 71 1 38 66
M  V30 72 1 38 67
M  V30 END BOND
M  V30 END CTAB
M  END
>  <Dataset>  (557) 
ChEMBL_Kinases

>  <Ligand_Instance>  (557) 
nan

>  <PDB_ID>  (557) 
nan

>  <Standardized_SMILES>  (557) 
CN1CC(CN2CCN(c3cc(C(F)F)cc(Nc4nc(NC5CC5)c5ncc(C#N)n5n4)c3Cl)CC2)C1

>  <Name>  (557) 
nan

>  <Pocket>  (557) 
nan

>  <ATP_Site>  (557) 
nan

>  <Peripheral>  (557) 
nan

>  <Num_H_Atoms_ProtBoundConf>  (557) 
nan

>  <Num_Resolved_Atoms>  (557) 
nan

>  <Num_Not_Resolved_Atoms>  (557) 
nan

$$$$
CHEMBL450487
     RDKit          3D

  0  0  0  0  0  0  0  0  0  0999 V3000
M  V30 BEGIN CTAB
M  V30 COUNTS 46 49 0 0 0
M  V30 BEGIN ATOM
M  V30 1 C 0.500516 -3.471260 0.647944 0
M  V30 2 C 0.751071 -2.414329 -0.433815 0
M  V30 3 N 1.111539 -1.145675 0.167464 0
M  V30 4 C 2.345597 -0.705432 0.475265 0
M  V30 5 C 3.583363 -1.417243 0.266672 0
M  V30 6 N 3.734040 -2.641062 -0.268798 0
M  V30 7 O 4.994139 -2.951650 -0.295456 0
M  V30 8 N 5.689213 -1.974855 0.204826 0
M  V30 9 C 4.857290 -0.991326 0.571610 0
M  V30 10 N 5.173890 0.258297 1.160435 0
M  V30 11 N 2.227723 0.522740 1.015578 0
M  V30 12 C 0.933280 0.888901 1.064061 0
M  V30 13 C 0.345366 2.047478 1.531113 0
M  V30 14 C 1.193298 3.100315 2.079130 0
M  V30 15 C 1.032969 4.452679 1.759524 0
M  V30 16 N 1.991483 5.104696 2.453973 0
M  V30 17 N 2.703125 4.251905 3.155668 0
M  V30 18 C 2.255048 2.990196 2.964245 0
M  V30 19 N -0.997520 2.117493 1.442417 0
M  V30 20 C -1.742217 1.118455 0.927745 0
M  V30 21 C -1.133830 -0.019961 0.471570 0
M  V30 22 O -1.907512 -1.050838 -0.059969 0
M  V30 23 C -3.301172 -0.954636 -0.141466 0
M  V30 24 C -3.964727 -2.161916 -0.742327 0
M  V30 25 C -3.682018 -3.416178 0.062456 0
M  V30 26 N -4.183126 -3.239811 1.411543 0
M  V30 27 C 0.229326 -0.179984 0.521707 0
M  V30 28 H 1.417424 -3.742395 1.178605 0
M  V30 29 H -0.179853 -2.945935 1.380721 0
M  V30 30 H -0.087872 -4.305507 0.255116 0
M  V30 31 H -0.188455 -2.351881 -1.016576 0
M  V30 32 H 1.527187 -2.730933 -1.156451 0
M  V30 33 H 5.253854 1.200832 0.701065 0
M  V30 34 H 5.248036 1.195123 0.673507 0
M  V30 35 H 0.306972 4.915339 1.100377 0
M  V30 36 H 3.521592 4.355552 3.811742 0
M  V30 37 H 2.540919 2.016156 3.334026 0
M  V30 38 H -2.829059 1.225858 0.878714 0
M  V30 39 H -3.594904 -0.089961 -0.796850 0
M  V30 40 H -3.805439 -0.793779 0.849555 0
M  V30 41 H -5.048650 -1.987028 -0.717182 0
M  V30 42 H -3.702040 -2.293038 -1.808267 0
M  V30 43 H -4.111881 -4.286051 -0.436717 0
M  V30 44 H -2.589296 -3.611691 0.137950 0
M  V30 45 H -5.111588 -2.742535 1.343505 0
M  V30 46 H -4.418803 -4.191594 1.761947 0
M  V30 END ATOM
M  V30 BEGIN BOND
M  V30 1 1 1 2
M  V30 2 1 2 3
M  V30 3 1 3 4
M  V30 4 1 4 5
M  V30 5 2 5 6
M  V30 6 1 6 7
M  V30 7 1 7 8
M  V30 8 2 8 9
M  V30 9 1 9 10
M  V30 10 2 4 11
M  V30 11 1 11 12
M  V30 12 2 12 13
M  V30 13 1 13 14
M  V30 14 1 14 15
M  V30 15 2 15 16
M  V30 16 1 16 17
M  V30 17 1 17 18
M  V30 18 1 13 19
M  V30 19 2 19 20
M  V30 20 1 20 21
M  V30 21 1 21 22
M  V30 22 1 22 23
M  V30 23 1 23 24
M  V30 24 1 24 25
M  V30 25 1 25 26
M  V30 26 2 21 27
M  V30 27 1 27 3
M  V30 28 1 9 5
M  V30 29 1 27 12
M  V30 30 2 18 14
M  V30 31 1 1 28
M  V30 32 1 1 29
M  V30 33 1 1 30
M  V30 34 1 2 31
M  V30 35 1 2 32
M  V30 36 1 10 33
M  V30 37 1 10 34
M  V30 38 1 15 35
M  V30 39 1 17 36
M  V30 40 1 18 37
M  V30 41 1 20 38
M  V30 42 1 23 39
M  V30 43 1 23 40
M  V30 44 1 24 41
M  V30 45 1 24 42
M  V30 46 1 25 43
M  V30 47 1 25 44
M  V30 48 1 26 45
M  V30 49 1 26 46
M  V30 END BOND
M  V30 END CTAB
M  END
>  <Dataset>  (558) 
ChEMBL_Kinases

>  <Ligand_Instance>  (558) 
nan

>  <PDB_ID>  (558) 
nan

>  <Standardized_SMILES>  (558) 
CCn1c(-c2nonc2N)nc2c(-c3cn[nH]c3)ncc(OCCCN)c21

>  <Name>  (558) 
nan

>  <Pocket>  (558) 
nan

>  <ATP_Site>  (558) 
nan

>  <Peripheral>  (558) 
nan

>  <Num_H_Atoms_ProtBoundConf>  (558) 
nan

>  <Num_Resolved_Atoms>  (558) 
nan

>  <Num_Not_Resolved_Atoms>  (558) 
nan

$$$$
CHEMBL4513323
     RDKit          3D

  0  0  0  0  0  0  0  0  0  0999 V3000
M  V30 BEGIN CTAB
M  V30 COUNTS 61 64 0 0 0
M  V30 BEGIN ATOM
M  V30 1 C 1.795407 -2.281036 6.195733 0
M  V30 2 O 1.027585 -1.211548 5.629004 0
M  V30 3 C 1.481434 -0.730695 4.374477 0
M  V30 4 C 2.516847 -1.066436 3.578605 0
M  V30 5 C 2.609483 -0.335120 2.431678 0
M  V30 6 C 3.682807 -0.608671 1.407237 0
M  V30 7 C 2.994584 -1.131164 0.165855 0
M  V30 8 O 2.378493 -2.207316 -0.005291 0
M  V30 9 N 3.049087 -0.274703 -0.969850 0
M  V30 10 C 2.365019 -0.804713 -2.109613 0
M  V30 11 C 1.014295 -0.460163 -1.899973 0
M  V30 12 C 0.030221 -0.824345 -2.855440 0
M  V30 13 C -1.370823 -0.434598 -2.560469 0
M  V30 14 N -2.030749 0.766399 -2.571781 0
M  V30 15 C -3.304216 0.521594 -2.182833 0
M  V30 16 S -4.212293 2.069892 -2.180546 0
M  V30 17 C -4.037266 2.884348 -0.544442 0
M  V30 18 N -3.427136 -0.789846 -1.940441 0
M  V30 19 C -2.245674 -1.425353 -2.162684 0
M  V30 20 C -2.065393 -2.859973 -1.986923 0
M  V30 21 C -2.148078 -3.241278 -0.639920 0
M  V30 22 C -2.008768 -4.552062 -0.235825 0
M  V30 23 C -1.779304 -5.527289 -1.185428 0
M  V30 24 F -1.627575 -6.842298 -0.904469 0
M  V30 25 C -1.693601 -5.180192 -2.516079 0
M  V30 26 C -1.834814 -3.863834 -2.905666 0
M  V30 27 C 0.451598 -1.514395 -3.970373 0
M  V30 28 C 1.795249 -1.814467 -4.098723 0
M  V30 29 N 2.727912 -1.467962 -3.191087 0
M  V30 30 C 1.773465 0.681958 2.020542 0
M  V30 31 C 0.712131 1.012700 2.853684 0
M  V30 32 O -0.155688 2.032300 2.479185 0
M  V30 33 C 0.062568 2.696220 1.273514 0
M  V30 34 C 0.567969 0.290606 4.050349 0
M  V30 35 O -0.550611 0.741665 4.782324 0
M  V30 36 C -1.845300 0.204268 4.622491 0
M  V30 37 H 2.162453 -2.964502 5.413109 0
M  V30 38 H 1.181902 -2.871060 6.908920 0
M  V30 39 H 2.573677 -1.794157 6.796574 0
M  V30 40 H 3.147783 -1.847996 3.913084 0
M  V30 41 H 4.219134 0.306731 1.204514 0
M  V30 42 H 4.312104 -1.402243 1.829492 0
M  V30 43 H 3.559598 0.660218 -0.928717 0
M  V30 44 H 0.582937 0.089514 -1.042119 0
M  V30 45 H -1.367170 1.530927 -2.875821 0
M  V30 46 H -3.734538 2.113258 0.201524 0
M  V30 47 H -3.207125 3.627077 -0.566656 0
M  V30 48 H -4.962245 3.338579 -0.193372 0
M  V30 49 H -2.326876 -2.547913 0.195009 0
M  V30 50 H -2.074458 -4.851035 0.813623 0
M  V30 51 H -1.519167 -5.830710 -3.374096 0
M  V30 52 H -1.787913 -3.476928 -3.911573 0
M  V30 53 H -0.302037 -1.781953 -4.687060 0
M  V30 54 H 2.141872 -2.359698 -4.971173 0
M  V30 55 H 1.881170 1.237672 1.104942 0
M  V30 56 H 1.050637 3.213655 1.268241 0
M  V30 57 H -0.695580 3.490998 1.068654 0
M  V30 58 H 0.026806 1.998369 0.396770 0
M  V30 59 H -2.413355 0.115929 5.558001 0
M  V30 60 H -1.746089 -0.846507 4.223469 0
M  V30 61 H -2.430202 0.738667 3.843271 0
M  V30 END ATOM
M  V30 BEGIN BOND
M  V30 1 1 1 2
M  V30 2 1 2 3
M  V30 3 2 3 4
M  V30 4 1 4 5
M  V30 5 1 5 6
M  V30 6 1 6 7
M  V30 7 2 7 8
M  V30 8 1 7 9
M  V30 9 1 9 10
M  V30 10 2 10 11
M  V30 11 1 11 12
M  V30 12 1 12 13
M  V30 13 1 13 14
M  V30 14 1 14 15
M  V30 15 1 15 16
M  V30 16 1 16 17
M  V30 17 2 15 18
M  V30 18 1 18 19
M  V30 19 1 19 20
M  V30 20 2 20 21
M  V30 21 1 21 22
M  V30 22 2 22 23
M  V30 23 1 23 24
M  V30 24 1 23 25
M  V30 25 2 25 26
M  V30 26 2 12 27
M  V30 27 1 27 28
M  V30 28 2 28 29
M  V30 29 2 5 30
M  V30 30 1 30 31
M  V30 31 1 31 32
M  V30 32 1 32 33
M  V30 33 2 31 34
M  V30 34 1 34 35
M  V30 35 1 35 36
M  V30 36 1 34 3
M  V30 37 1 29 10
M  V30 38 2 19 13
M  V30 39 1 26 20
M  V30 40 1 1 37
M  V30 41 1 1 38
M  V30 42 1 1 39
M  V30 43 1 4 40
M  V30 44 1 6 41
M  V30 45 1 6 42
M  V30 46 1 9 43
M  V30 47 1 11 44
M  V30 48 1 14 45
M  V30 49 1 17 46
M  V30 50 1 17 47
M  V30 51 1 17 48
M  V30 52 1 21 49
M  V30 53 1 22 50
M  V30 54 1 25 51
M  V30 55 1 26 52
M  V30 56 1 27 53
M  V30 57 1 28 54
M  V30 58 1 30 55
M  V30 59 1 33 56
M  V30 60 1 33 57
M  V30 61 1 33 58
M  V30 62 1 36 59
M  V30 63 1 36 60
M  V30 64 1 36 61
M  V30 END BOND
M  V30 END CTAB
M  END
>  <Dataset>  (559) 
ChEMBL_Kinases

>  <Ligand_Instance>  (559) 
nan

>  <PDB_ID>  (559) 
nan

>  <Standardized_SMILES>  (559) 
COc1cc(CC(=O)Nc2cc(-c3[nH]c(SC)nc3-c3ccc(F)cc3)ccn2)cc(OC)c1OC

>  <Name>  (559) 
nan

>  <Pocket>  (559) 
nan

>  <ATP_Site>  (559) 
nan

>  <Peripheral>  (559) 
nan

>  <Num_H_Atoms_ProtBoundConf>  (559) 
nan

>  <Num_Resolved_Atoms>  (559) 
nan

>  <Num_Not_Resolved_Atoms>  (559) 
nan

$$$$
CHEMBL3699269
     RDKit          3D

  0  0  0  0  0  0  0  0  0  0999 V3000
M  V30 BEGIN CTAB
M  V30 COUNTS 64 69 0 0 0
M  V30 BEGIN ATOM
M  V30 1 C 5.976689 0.999745 5.772917 0
M  V30 2 N 6.542341 0.058388 4.823444 0
M  V30 3 C 5.499455 -0.826233 4.321769 0
M  V30 4 C 5.121496 0.302423 3.382815 0
M  V30 5 N 4.660455 -0.151934 2.087348 0
M  V30 6 C 3.499768 -0.965895 2.356991 0
M  V30 7 C 2.749916 -1.327740 1.095618 0
M  V30 8 N 2.252435 -0.044433 0.590709 0
M  V30 9 C 0.842923 0.125501 0.517445 0
M  V30 10 C 0.256888 1.142102 1.236267 0
M  V30 11 C -1.100172 1.287679 1.151438 0
M  V30 12 C -1.783674 2.384672 1.919449 0
M  V30 13 F -2.392447 3.273004 1.048887 0
M  V30 14 F -2.740568 1.826044 2.757488 0
M  V30 15 C -1.812357 0.423593 0.361953 0
M  V30 16 C -1.277691 -0.604799 -0.373789 0
M  V30 17 N -2.015023 -1.497580 -1.189862 0
M  V30 18 C -3.412055 -1.539265 -1.428239 0
M  V30 19 N -3.922340 -2.470404 -2.242725 0
M  V30 20 C -5.224931 -2.587469 -2.526972 0
M  V30 21 N -5.674195 -3.610897 -3.405722 0
M  V30 22 C -4.769930 -4.546573 -4.015657 0
M  V30 23 C -3.678059 -3.970372 -4.908221 0
M  V30 24 C -4.808079 -4.727668 -5.506659 0
M  V30 25 C -6.126679 -1.712285 -1.964280 0
M  V30 26 N -7.449972 -1.538818 -2.020898 0
M  V30 27 C -7.810529 -0.486424 -1.237983 0
M  V30 28 C -6.624655 -0.020385 -0.693640 0
M  V30 29 C -6.539928 1.089136 0.199969 0
M  V30 30 N -6.482666 1.987132 0.935499 0
M  V30 31 N -5.609143 -0.782365 -1.149683 0
M  V30 32 N -4.320870 -0.711857 -0.904507 0
M  V30 33 C 0.086772 -0.715068 -0.259889 0
M  V30 34 Cl 0.925865 -1.980641 -1.138535 0
M  V30 35 C 3.316141 0.839124 0.249822 0
M  V30 36 C 4.423376 0.957867 1.230917 0
M  V30 37 C 6.601800 0.588946 3.468908 0
M  V30 38 H 4.886256 1.005975 5.817770 0
M  V30 39 H 6.333482 0.786596 6.814505 0
M  V30 40 H 6.292830 2.037596 5.465986 0
M  V30 41 H 4.670567 -1.006007 5.034014 0
M  V30 42 H 5.868851 -1.689835 3.748565 0
M  V30 43 H 4.551462 1.128969 3.807397 0
M  V30 44 H 3.851199 -1.858143 2.923919 0
M  V30 45 H 2.817252 -0.370276 3.006915 0
M  V30 46 H 1.949748 -2.014041 1.373376 0
M  V30 47 H 3.442620 -1.713222 0.337162 0
M  V30 48 H 0.836772 1.812153 1.852622 0
M  V30 49 H -1.042520 2.969698 2.492478 0
M  V30 50 H -2.873777 0.601027 0.345917 0
M  V30 51 H -1.435162 -2.235863 -1.689866 0
M  V30 52 H -6.689035 -3.697307 -3.623610 0
M  V30 53 H -4.497684 -5.400271 -3.367991 0
M  V30 54 H -3.612994 -2.874444 -5.006855 0
M  V30 55 H -2.669096 -4.461511 -4.853441 0
M  V30 56 H -5.614636 -4.135779 -6.022222 0
M  V30 57 H -4.666641 -5.761910 -5.854608 0
M  V30 58 H -8.825198 -0.115609 -1.092516 0
M  V30 59 H 3.719029 0.488498 -0.741531 0
M  V30 60 H 2.934541 1.879424 0.031330 0
M  V30 61 H 4.311284 1.915039 1.820130 0
M  V30 62 H 5.372882 1.117467 0.656136 0
M  V30 63 H 7.216450 -0.098421 2.837745 0
M  V30 64 H 6.901626 1.638568 3.477995 0
M  V30 END ATOM
M  V30 BEGIN BOND
M  V30 1 1 1 2
M  V30 2 1 2 3
M  V30 3 1 3 4
M  V30 4 1 4 5
M  V30 5 1 5 6
M  V30 6 1 6 7
M  V30 7 1 7 8
M  V30 8 1 8 9
M  V30 9 2 9 10
M  V30 10 1 10 11
M  V30 11 1 11 12
M  V30 12 1 12 13
M  V30 13 1 12 14
M  V30 14 2 11 15
M  V30 15 1 15 16
M  V30 16 1 16 17
M  V30 17 1 17 18
M  V30 18 1 18 19
M  V30 19 2 19 20
M  V30 20 1 20 21
M  V30 21 1 21 22
M  V30 22 1 22 23
M  V30 23 1 23 24
M  V30 24 1 20 25
M  V30 25 2 25 26
M  V30 26 1 26 27
M  V30 27 2 27 28
M  V30 28 1 28 29
M  V30 29 3 29 30
M  V30 30 1 28 31
M  V30 31 1 31 32
M  V30 32 2 16 33
M  V30 33 1 33 34
M  V30 34 1 8 35
M  V30 35 1 35 36
M  V30 36 1 4 37
M  V30 37 1 37 2
M  V30 38 1 36 5
M  V30 39 1 33 9
M  V30 40 2 32 18
M  V30 41 1 24 22
M  V30 42 1 31 25
M  V30 43 1 1 38
M  V30 44 1 1 39
M  V30 45 1 1 40
M  V30 46 1 3 41
M  V30 47 1 3 42
M  V30 48 1 4 43
M  V30 49 1 6 44
M  V30 50 1 6 45
M  V30 51 1 7 46
M  V30 52 1 7 47
M  V30 53 1 10 48
M  V30 54 1 12 49
M  V30 55 1 15 50
M  V30 56 1 17 51
M  V30 57 1 21 52
M  V30 58 1 22 53
M  V30 59 1 23 54
M  V30 60 1 23 55
M  V30 61 1 24 56
M  V30 62 1 24 57
M  V30 63 1 27 58
M  V30 64 1 35 59
M  V30 65 1 35 60
M  V30 66 1 36 61
M  V30 67 1 36 62
M  V30 68 1 37 63
M  V30 69 1 37 64
M  V30 END BOND
M  V30 END CTAB
M  END
>  <Dataset>  (560) 
ChEMBL_Kinases

>  <Ligand_Instance>  (560) 
nan

>  <PDB_ID>  (560) 
nan

>  <Standardized_SMILES>  (560) 
CN1CC(N2CCN(c3cc(C(F)F)cc(Nc4nc(NC5CC5)c5ncc(C#N)n5n4)c3Cl)CC2)C1

>  <Name>  (560) 
nan

>  <Pocket>  (560) 
nan

>  <ATP_Site>  (560) 
nan

>  <Peripheral>  (560) 
nan

>  <Num_H_Atoms_ProtBoundConf>  (560) 
nan

>  <Num_Resolved_Atoms>  (560) 
nan

>  <Num_Not_Resolved_Atoms>  (560) 
nan

$$$$
CHEMBL3699268
     RDKit          3D

  0  0  0  0  0  0  0  0  0  0999 V3000
M  V30 BEGIN CTAB
M  V30 COUNTS 62 66 0 0 0
M  V30 BEGIN ATOM
M  V30 1 C 5.805196 -3.117322 6.053230 0
M  V30 2 O 4.833492 -2.402652 5.308025 0
M  V30 3 C 5.122319 -1.256774 4.618103 0
M  V30 4 O 6.174850 -0.605793 4.468500 0
M  V30 5 N 3.964633 -0.733549 3.951104 0
M  V30 6 C 3.786813 0.401663 3.139835 0 CFG=1
M  V30 7 C 3.384183 0.121228 1.712990 0
M  V30 8 N 2.281931 0.967594 1.425004 0
M  V30 9 C 1.193039 0.682305 0.572874 0
M  V30 10 C 1.016127 1.591969 -0.447360 0
M  V30 11 C -0.041174 1.391713 -1.334349 0
M  V30 12 C -0.274295 2.333957 -2.444849 0
M  V30 13 F 0.832143 2.233859 -3.299526 0
M  V30 14 F -0.345689 3.643394 -2.034156 0
M  V30 15 C -0.826481 0.282819 -1.105313 0
M  V30 16 C -0.691766 -0.653392 -0.103944 0
M  V30 17 N -1.569786 -1.760796 0.044292 0
M  V30 18 C -2.661756 -2.188250 -0.737927 0
M  V30 19 N -3.132848 -1.652907 -1.873752 0
M  V30 20 C -4.201954 -2.219678 -2.453905 0
M  V30 21 N -4.792751 -1.739596 -3.670130 0
M  V30 22 C -4.680215 -0.752372 -4.696332 0
M  V30 23 C -3.645769 -0.706889 -5.727649 0
M  V30 24 C -3.402497 0.095101 -4.529120 0
M  V30 25 C -4.815360 -3.325289 -1.912274 0
M  V30 26 N -5.871437 -4.103155 -2.243097 0
M  V30 27 C -6.032725 -5.075159 -1.338670 0
M  V30 28 C -5.059056 -4.925438 -0.398632 0
M  V30 29 C -4.773690 -5.683574 0.773497 0
M  V30 30 N -4.551557 -6.318386 1.727878 0
M  V30 31 N -4.345754 -3.854409 -0.785868 0
M  V30 32 N -3.299957 -3.263262 -0.259364 0
M  V30 33 C 0.372175 -0.406679 0.746788 0
M  V30 34 Cl 0.662902 -1.530480 2.061453 0
M  V30 35 C 2.625975 2.131612 2.220626 0
M  V30 36 C 2.863308 1.459855 3.562580 0 CFG=1
M  V30 37 O 1.575568 1.051956 3.934027 0
M  V30 38 C 1.198148 1.665737 5.119600 0
M  V30 39 H 5.895538 -4.189114 5.726874 0
M  V30 40 H 5.416255 -3.163520 7.112243 0
M  V30 41 H 6.775477 -2.613672 6.121502 0
M  V30 42 H 2.995106 -1.153757 3.968437 0
M  V30 43 H 4.794441 0.899857 3.066479 0
M  V30 44 H 3.175779 -0.959436 1.657427 0
M  V30 45 H 4.199356 0.316378 0.983657 0
M  V30 46 H 1.652529 2.451937 -0.597740 0
M  V30 47 H -1.147707 2.049961 -3.062738 0
M  V30 48 H -1.634231 0.171865 -1.807873 0
M  V30 49 H -1.304033 -2.320919 0.911243 0
M  V30 50 H -5.645144 -2.256455 -4.053031 0
M  V30 51 H -5.612339 -0.129206 -4.861378 0
M  V30 52 H -3.891808 -0.147105 -6.661305 0
M  V30 53 H -2.994966 -1.601614 -5.924903 0
M  V30 54 H -2.608183 -0.271063 -3.859088 0
M  V30 55 H -3.567231 1.171962 -4.465446 0
M  V30 56 H -6.787246 -5.875012 -1.301542 0
M  V30 57 H 3.544229 2.604330 1.817901 0
M  V30 58 H 1.785913 2.847974 2.309461 0
M  V30 59 H 3.282452 2.180096 4.301592 0
M  V30 60 H 0.167892 1.300490 5.360350 0
M  V30 61 H 1.177049 2.759800 4.967263 0
M  V30 62 H 1.853405 1.325021 5.930132 0
M  V30 END ATOM
M  V30 BEGIN BOND
M  V30 1 1 1 2
M  V30 2 1 2 3
M  V30 3 2 3 4
M  V30 4 1 3 5
M  V30 5 1 5 6
M  V30 6 1 6 7
M  V30 7 1 7 8
M  V30 8 1 8 9
M  V30 9 2 9 10
M  V30 10 1 10 11
M  V30 11 1 11 12
M  V30 12 1 12 13
M  V30 13 1 12 14
M  V30 14 2 11 15
M  V30 15 1 15 16
M  V30 16 1 16 17
M  V30 17 1 17 18
M  V30 18 1 18 19
M  V30 19 2 19 20
M  V30 20 1 20 21
M  V30 21 1 21 22
M  V30 22 1 22 23
M  V30 23 1 23 24
M  V30 24 1 20 25
M  V30 25 2 25 26
M  V30 26 1 26 27
M  V30 27 2 27 28
M  V30 28 1 28 29
M  V30 29 3 29 30
M  V30 30 1 28 31
M  V30 31 1 31 32
M  V30 32 2 16 33
M  V30 33 1 33 34
M  V30 34 1 8 35
M  V30 35 1 35 36
M  V30 36 1 36 37
M  V30 37 1 37 38
M  V30 38 1 36 6
M  V30 39 1 33 9
M  V30 40 2 32 18
M  V30 41 1 24 22
M  V30 42 1 31 25
M  V30 43 1 1 39
M  V30 44 1 1 40
M  V30 45 1 1 41
M  V30 46 1 5 42
M  V30 47 1 6 43 CFG=3
M  V30 48 1 7 44
M  V30 49 1 7 45
M  V30 50 1 10 46
M  V30 51 1 12 47
M  V30 52 1 15 48
M  V30 53 1 17 49
M  V30 54 1 21 50
M  V30 55 1 22 51
M  V30 56 1 23 52
M  V30 57 1 23 53
M  V30 58 1 24 54
M  V30 59 1 24 55
M  V30 60 1 27 56
M  V30 61 1 35 57
M  V30 62 1 35 58
M  V30 63 1 36 59 CFG=1
M  V30 64 1 38 60
M  V30 65 1 38 61
M  V30 66 1 38 62
M  V30 END BOND
M  V30 END CTAB
M  END
>  <Dataset>  (561) 
ChEMBL_Kinases

>  <Ligand_Instance>  (561) 
nan

>  <PDB_ID>  (561) 
nan

>  <Standardized_SMILES>  (561) 
COC(=O)N[C@H]1CN(c2cc(C(F)F)cc(Nc3nc(NC4CC4)c4ncc(C#N)n4n3)c2Cl)C[C@H]1OC

>  <Name>  (561) 
nan

>  <Pocket>  (561) 
nan

>  <ATP_Site>  (561) 
nan

>  <Peripheral>  (561) 
nan

>  <Num_H_Atoms_ProtBoundConf>  (561) 
nan

>  <Num_Resolved_Atoms>  (561) 
nan

>  <Num_Not_Resolved_Atoms>  (561) 
nan

$$$$
CHEMBL4513243
     RDKit          3D

  0  0  0  0  0  0  0  0  0  0999 V3000
M  V30 BEGIN CTAB
M  V30 COUNTS 38 40 0 0 0
M  V30 BEGIN ATOM
M  V30 1 C 0.876533 -2.528537 3.781678 0
M  V30 2 C 0.586926 -2.881513 2.311795 0
M  V30 3 C -0.527008 -3.956389 2.434593 0
M  V30 4 N 0.232618 -1.800848 1.485740 0
M  V30 5 C -0.090452 -0.690543 0.658406 0
M  V30 6 N 0.679551 0.383473 0.434329 0
M  V30 7 C 0.381759 1.426414 -0.332759 0
M  V30 8 C 1.305090 2.542497 -0.500833 0
M  V30 9 C 0.867382 3.557380 -1.324972 0
M  V30 10 C 1.736244 4.630711 -1.496655 0
M  V30 11 N 2.930225 4.640172 -0.874693 0
M  V30 12 C 3.317353 3.627937 -0.078686 0
M  V30 13 C 2.508560 2.509663 0.150875 0
M  V30 14 Cl 3.005181 1.192012 1.183212 0
M  V30 15 N -0.814752 1.337325 -0.909502 0
M  V30 16 C -1.688628 0.333472 -0.781232 0
M  V30 17 C -2.861391 0.483521 -1.486914 0
M  V30 18 N -3.759950 -0.537104 -1.363548 0
M  V30 19 C -3.477881 -1.609641 -0.587795 0
M  V30 20 C -2.282359 -1.689646 0.088947 0
M  V30 21 C -1.313715 -0.714147 0.029079 0
M  V30 22 C 1.789167 -3.708775 1.842907 0
M  V30 23 F 2.930021 -2.968790 1.959359 0
M  V30 24 F 1.780768 -4.834108 2.642207 0
M  V30 25 F 1.503235 -4.079743 0.540251 0
M  V30 26 H -0.091334 -2.503621 4.316412 0
M  V30 27 H 1.513421 -3.307527 4.238499 0
M  V30 28 H 1.306187 -1.510601 3.877198 0
M  V30 29 H -1.445063 -3.478561 2.817055 0
M  V30 30 H -0.681837 -4.444284 1.452539 0
M  V30 31 H -0.220837 -4.705977 3.180394 0
M  V30 32 H 1.204257 -1.493389 1.797378 0
M  V30 33 H -0.115554 3.505972 -1.811459 0
M  V30 34 H 1.386949 5.432322 -2.149482 0
M  V30 35 H 4.294898 3.660261 0.416143 0
M  V30 36 H -3.062250 1.341145 -2.094254 0
M  V30 37 H -4.166288 -2.439350 -0.465403 0
M  V30 38 H -2.062309 -2.542312 0.701370 0
M  V30 END ATOM
M  V30 BEGIN BOND
M  V30 1 1 1 2
M  V30 2 1 2 3
M  V30 3 1 2 4
M  V30 4 1 4 5
M  V30 5 2 5 6
M  V30 6 1 6 7
M  V30 7 1 7 8
M  V30 8 2 8 9
M  V30 9 1 9 10
M  V30 10 2 10 11
M  V30 11 1 11 12
M  V30 12 2 12 13
M  V30 13 1 13 14
M  V30 14 2 7 15
M  V30 15 1 15 16
M  V30 16 2 16 17
M  V30 17 1 17 18
M  V30 18 2 18 19
M  V30 19 1 19 20
M  V30 20 2 20 21
M  V30 21 1 2 22
M  V30 22 1 22 23
M  V30 23 1 22 24
M  V30 24 1 22 25
M  V30 25 1 21 5
M  V30 26 1 13 8
M  V30 27 1 21 16
M  V30 28 1 1 26
M  V30 29 1 1 27
M  V30 30 1 1 28
M  V30 31 1 3 29
M  V30 32 1 3 30
M  V30 33 1 3 31
M  V30 34 1 4 32
M  V30 35 1 9 33
M  V30 36 1 10 34
M  V30 37 1 12 35
M  V30 38 1 17 36
M  V30 39 1 19 37
M  V30 40 1 20 38
M  V30 END BOND
M  V30 END CTAB
M  END
>  <Dataset>  (562) 
ChEMBL_Kinases

>  <Ligand_Instance>  (562) 
nan

>  <PDB_ID>  (562) 
nan

>  <Standardized_SMILES>  (562) 
CC(C)(Nc1nc(-c2ccncc2Cl)nc2cnccc12)C(F)(F)F

>  <Name>  (562) 
nan

>  <Pocket>  (562) 
nan

>  <ATP_Site>  (562) 
nan

>  <Peripheral>  (562) 
nan

>  <Num_H_Atoms_ProtBoundConf>  (562) 
nan

>  <Num_Resolved_Atoms>  (562) 
nan

>  <Num_Not_Resolved_Atoms>  (562) 
nan

$$$$
CHEMBL3699267
     RDKit          3D

  0  0  0  0  0  0  0  0  0  0999 V3000
M  V30 BEGIN CTAB
M  V30 COUNTS 62 67 0 0 0
M  V30 BEGIN ATOM
M  V30 1 N -3.979914 0.424258 4.604786 0
M  V30 2 C -3.165680 -0.041756 3.952419 0
M  V30 3 C -2.140432 -0.604596 3.145970 0
M  V30 4 C -1.013506 0.088668 2.768342 0
M  V30 5 C -0.060545 -0.518005 1.986304 0
M  V30 6 N 1.100954 0.226003 1.599928 0
M  V30 7 C 1.270035 1.557939 2.023064 0
M  V30 8 N 0.700132 2.430416 1.201297 0
M  V30 9 C 0.710953 3.770248 1.364862 0
M  V30 10 N 0.108514 4.684491 0.463738 0
M  V30 11 C -0.205539 6.029877 0.151346 0
M  V30 12 C 0.943916 7.042842 0.154030 0
M  V30 13 C -0.250452 7.173231 1.063454 0
M  V30 14 C 1.390336 4.224846 2.506224 0
M  V30 15 N 1.657867 5.401327 3.050191 0
M  V30 16 C 2.369080 5.257526 4.170578 0
M  V30 17 C 2.579964 3.911000 4.372837 0
M  V30 18 C 3.303238 3.335033 5.468629 0
M  V30 19 N 3.879856 2.850393 6.355828 0
M  V30 20 N 1.961418 3.343106 3.328930 0
M  V30 21 N 1.895411 2.066178 3.084262 0
M  V30 22 C -0.219202 -1.815463 1.574529 0
M  V30 23 Cl 1.051153 -2.495797 0.595135 0
M  V30 24 C -1.301988 -2.598540 1.891558 0
M  V30 25 C -1.567786 -3.998569 1.487575 0
M  V30 26 C -2.423649 -4.129644 0.258530 0
M  V30 27 C -1.606970 -4.061434 -1.002853 0
M  V30 28 N -0.569120 -5.062221 -0.856270 0
M  V30 29 C -0.048523 -5.696463 -2.020783 0
M  V30 30 O 0.837077 -6.581058 -2.127190 0
M  V30 31 O -0.514364 -5.366766 -3.277501 0
M  V30 32 C -0.112666 -5.886329 -4.473554 0
M  V30 33 C -1.267669 -6.441991 -5.277422 0
M  V30 34 O -1.183334 -5.353675 -6.153306 0
M  V30 35 C 0.110693 -5.078035 -5.672753 0
M  V30 36 C 0.071288 -5.555341 0.343581 0
M  V30 37 C -0.432605 -4.935273 1.600098 0
M  V30 38 C -2.223403 -1.900677 2.690655 0
M  V30 39 H -0.891746 1.103873 3.091837 0
M  V30 40 H 1.828198 -0.211588 1.003754 0
M  V30 41 H -0.275209 4.080163 -0.340289 0
M  V30 42 H -0.876947 6.135587 -0.773756 0
M  V30 43 H 1.909730 6.741050 0.618097 0
M  V30 44 H 1.034463 7.681928 -0.738851 0
M  V30 45 H -0.195001 7.078403 2.143396 0
M  V30 46 H -0.905273 8.051643 0.762699 0
M  V30 47 H 2.687663 6.116967 4.765436 0
M  V30 48 H -2.300436 -4.359061 2.294925 0
M  V30 49 H -3.233537 -3.407168 0.203231 0
M  V30 50 H -2.929564 -5.135546 0.221471 0
M  V30 51 H -2.275420 -4.423958 -1.837290 0
M  V30 52 H -1.210895 -3.053194 -1.235764 0
M  V30 53 H 0.672131 -6.657436 -4.335236 0
M  V30 54 H -1.074864 -7.416889 -5.757404 0
M  V30 55 H -2.250615 -6.423756 -4.792476 0
M  V30 56 H 0.296317 -4.017203 -5.616117 0
M  V30 57 H 0.842778 -5.528693 -6.381193 0
M  V30 58 H 1.183066 -5.557615 0.265035 0
M  V30 59 H -0.164971 -6.662382 0.320474 0
M  V30 60 H -0.618918 -5.796365 2.320342 0
M  V30 61 H 0.416812 -4.410758 2.088800 0
M  V30 62 H -3.123486 -2.445993 2.995538 0
M  V30 END ATOM
M  V30 BEGIN BOND
M  V30 1 3 1 2
M  V30 2 1 2 3
M  V30 3 2 3 4
M  V30 4 1 4 5
M  V30 5 1 5 6
M  V30 6 1 6 7
M  V30 7 1 7 8
M  V30 8 2 8 9
M  V30 9 1 9 10
M  V30 10 1 10 11
M  V30 11 1 11 12
M  V30 12 1 12 13
M  V30 13 1 9 14
M  V30 14 2 14 15
M  V30 15 1 15 16
M  V30 16 2 16 17
M  V30 17 1 17 18
M  V30 18 3 18 19
M  V30 19 1 17 20
M  V30 20 1 20 21
M  V30 21 2 5 22
M  V30 22 1 22 23
M  V30 23 1 22 24
M  V30 24 1 24 25
M  V30 25 1 25 26
M  V30 26 1 26 27
M  V30 27 1 27 28
M  V30 28 1 28 29
M  V30 29 2 29 30
M  V30 30 1 29 31
M  V30 31 1 31 32
M  V30 32 1 32 33
M  V30 33 1 33 34
M  V30 34 1 34 35
M  V30 35 1 28 36
M  V30 36 1 36 37
M  V30 37 2 24 38
M  V30 38 1 38 3
M  V30 39 2 21 7
M  V30 40 1 37 25
M  V30 41 1 13 11
M  V30 42 1 20 14
M  V30 43 1 35 32
M  V30 44 1 4 39
M  V30 45 1 6 40
M  V30 46 1 10 41
M  V30 47 1 11 42
M  V30 48 1 12 43
M  V30 49 1 12 44
M  V30 50 1 13 45
M  V30 51 1 13 46
M  V30 52 1 16 47
M  V30 53 1 25 48
M  V30 54 1 26 49
M  V30 55 1 26 50
M  V30 56 1 27 51
M  V30 57 1 27 52
M  V30 58 1 32 53
M  V30 59 1 33 54
M  V30 60 1 33 55
M  V30 61 1 35 56
M  V30 62 1 35 57
M  V30 63 1 36 58
M  V30 64 1 36 59
M  V30 65 1 37 60
M  V30 66 1 37 61
M  V30 67 1 38 62
M  V30 END BOND
M  V30 END CTAB
M  END
>  <Dataset>  (563) 
ChEMBL_Kinases

>  <Ligand_Instance>  (563) 
nan

>  <PDB_ID>  (563) 
nan

>  <Standardized_SMILES>  (563) 
N#Cc1cc(Nc2nc(NC3CC3)c3ncc(C#N)n3n2)c(Cl)c(C2CCN(C(=O)OC3COC3)CC2)c1

>  <Name>  (563) 
nan

>  <Pocket>  (563) 
nan

>  <ATP_Site>  (563) 
nan

>  <Peripheral>  (563) 
nan

>  <Num_H_Atoms_ProtBoundConf>  (563) 
nan

>  <Num_Resolved_Atoms>  (563) 
nan

>  <Num_Not_Resolved_Atoms>  (563) 
nan

$$$$
CHEMBL3699266
     RDKit          3D

  0  0  0  0  0  0  0  0  0  0999 V3000
M  V30 BEGIN CTAB
M  V30 COUNTS 56 60 0 0 0
M  V30 BEGIN ATOM
M  V30 1 C 5.405950 -2.262851 2.885356 0
M  V30 2 C 4.491447 -1.102119 2.704962 0
M  V30 3 O 3.712782 -0.856055 3.658258 0
M  V30 4 N 4.342242 -0.203142 1.617094 0
M  V30 5 C 3.319737 0.787698 1.850143 0
M  V30 6 C 3.472275 1.925160 0.870028 0
M  V30 7 C 3.187965 1.325390 -0.522441 0
M  V30 8 C 1.801163 0.962014 -0.510289 0
M  V30 9 C 0.905663 2.047846 -0.510967 0
M  V30 10 C -0.449647 1.893099 -0.465227 0
M  V30 11 C -1.358923 3.010730 -0.468473 0
M  V30 12 N -2.099485 3.897438 -0.457304 0
M  V30 13 C -0.942874 0.606968 -0.416065 0
M  V30 14 C -0.153211 -0.525911 -0.410891 0
M  V30 15 N -0.663321 -1.851118 -0.371973 0
M  V30 16 C -1.984219 -2.286310 -0.203516 0
M  V30 17 N -3.066213 -1.539620 0.063102 0
M  V30 18 C -4.291719 -2.059007 0.195180 0
M  V30 19 N -5.475793 -1.341633 0.492630 0
M  V30 20 C -5.637052 0.053176 0.764154 0
M  V30 21 C -5.096208 1.070848 -0.208872 0
M  V30 22 C -4.524125 0.940171 1.209749 0
M  V30 23 C -4.414432 -3.445007 0.042605 0
M  V30 24 N -5.466348 -4.312611 0.105497 0
M  V30 25 C -5.042726 -5.568796 -0.117110 0
M  V30 26 C -3.681718 -5.500200 -0.328455 0
M  V30 27 C -2.797444 -6.608464 -0.606713 0
M  V30 28 N -2.078254 -7.486896 -0.843739 0
M  V30 29 N -3.350524 -4.213347 -0.223571 0
M  V30 30 N -2.202623 -3.604655 -0.332119 0
M  V30 31 C 1.206615 -0.253808 -0.461227 0
M  V30 32 Cl 2.263042 -1.649279 -0.492015 0
M  V30 33 C 4.276173 0.408932 -0.793814 0
M  V30 34 C 5.049224 -0.156139 0.357445 0
M  V30 35 H 4.868643 -3.144812 3.294531 0
M  V30 36 H 5.859329 -2.592650 1.919093 0
M  V30 37 H 6.261144 -2.003257 3.542844 0
M  V30 38 H 3.403622 1.249946 2.875865 0
M  V30 39 H 2.289069 0.365548 1.832292 0
M  V30 40 H 2.656351 2.651270 1.120630 0
M  V30 41 H 4.471345 2.348793 0.944727 0
M  V30 42 H 3.287658 2.243033 -1.186404 0
M  V30 43 H 1.259429 3.091285 -0.549375 0
M  V30 44 H -2.001786 0.506746 -0.390176 0
M  V30 45 H 0.091892 -2.589788 -0.491180 0
M  V30 46 H -6.374843 -1.880679 0.521718 0
M  V30 47 H -6.623485 0.346612 1.235613 0
M  V30 48 H -4.445272 0.756948 -1.048729 0
M  V30 49 H -5.710852 1.960986 -0.450501 0
M  V30 50 H -4.748143 1.829803 1.837741 0
M  V30 51 H -3.538512 0.516867 1.382043 0
M  V30 52 H -5.661978 -6.474859 -0.126963 0
M  V30 53 H 4.102767 -0.362920 -1.610208 0
M  V30 54 H 5.074993 1.020147 -1.349487 0
M  V30 55 H 5.458108 -1.174325 0.138221 0
M  V30 56 H 5.986606 0.426938 0.609124 0
M  V30 END ATOM
M  V30 BEGIN BOND
M  V30 1 1 1 2
M  V30 2 2 2 3
M  V30 3 1 2 4
M  V30 4 1 4 5
M  V30 5 1 5 6
M  V30 6 1 6 7
M  V30 7 1 7 8
M  V30 8 2 8 9
M  V30 9 1 9 10
M  V30 10 1 10 11
M  V30 11 3 11 12
M  V30 12 2 10 13
M  V30 13 1 13 14
M  V30 14 1 14 15
M  V30 15 1 15 16
M  V30 16 1 16 17
M  V30 17 2 17 18
M  V30 18 1 18 19
M  V30 19 1 19 20
M  V30 20 1 20 21
M  V30 21 1 21 22
M  V30 22 1 18 23
M  V30 23 2 23 24
M  V30 24 1 24 25
M  V30 25 2 25 26
M  V30 26 1 26 27
M  V30 27 3 27 28
M  V30 28 1 26 29
M  V30 29 1 29 30
M  V30 30 2 14 31
M  V30 31 1 31 32
M  V30 32 1 7 33
M  V30 33 1 33 34
M  V30 34 1 34 4
M  V30 35 1 31 8
M  V30 36 2 30 16
M  V30 37 1 22 20
M  V30 38 1 29 23
M  V30 39 1 1 35
M  V30 40 1 1 36
M  V30 41 1 1 37
M  V30 42 1 5 38
M  V30 43 1 5 39
M  V30 44 1 6 40
M  V30 45 1 6 41
M  V30 46 1 7 42
M  V30 47 1 9 43
M  V30 48 1 13 44
M  V30 49 1 15 45
M  V30 50 1 19 46
M  V30 51 1 20 47
M  V30 52 1 21 48
M  V30 53 1 21 49
M  V30 54 1 22 50
M  V30 55 1 22 51
M  V30 56 1 25 52
M  V30 57 1 33 53
M  V30 58 1 33 54
M  V30 59 1 34 55
M  V30 60 1 34 56
M  V30 END BOND
M  V30 END CTAB
M  END
>  <Dataset>  (564) 
ChEMBL_Kinases

>  <Ligand_Instance>  (564) 
nan

>  <PDB_ID>  (564) 
nan

>  <Standardized_SMILES>  (564) 
CC(=O)N1CCC(c2cc(C#N)cc(Nc3nc(NC4CC4)c4ncc(C#N)n4n3)c2Cl)CC1

>  <Name>  (564) 
nan

>  <Pocket>  (564) 
nan

>  <ATP_Site>  (564) 
nan

>  <Peripheral>  (564) 
nan

>  <Num_H_Atoms_ProtBoundConf>  (564) 
nan

>  <Num_Resolved_Atoms>  (564) 
nan

>  <Num_Not_Resolved_Atoms>  (564) 
nan

$$$$
CHEMBL3699265
     RDKit          3D

  0  0  0  0  0  0  0  0  0  0999 V3000
M  V30 BEGIN CTAB
M  V30 COUNTS 60 64 0 0 0
M  V30 BEGIN ATOM
M  V30 1 N -2.619885 -1.966960 4.670778 0
M  V30 2 C -1.999615 -1.910089 3.692832 0
M  V30 3 C -1.239581 -1.834665 2.472864 0
M  V30 4 C -0.777932 -0.621589 2.011713 0
M  V30 5 C -0.042503 -0.400754 0.867057 0
M  V30 6 N 0.426157 0.883658 0.470436 0
M  V30 7 C 0.109179 2.043282 1.225239 0
M  V30 8 N -0.728457 2.943413 0.709133 0
M  V30 9 C -1.110506 4.078222 1.355558 0
M  V30 10 N -1.990553 4.972117 0.686463 0
M  V30 11 C -2.729412 6.180536 0.792702 0
M  V30 12 C -1.950016 7.391799 1.268936 0
M  V30 13 C -3.158199 6.858470 2.019225 0
M  V30 14 C -0.546832 4.218299 2.607966 0
M  V30 15 N -0.716208 5.211372 3.486777 0
M  V30 16 C 0.004216 4.976967 4.586966 0
M  V30 17 C 0.657470 3.790198 4.400604 0
M  V30 18 C 1.541049 3.145593 5.321601 0
M  V30 19 N 2.264712 2.599813 6.071648 0
M  V30 20 N 0.298949 3.347896 3.172911 0
M  V30 21 N 0.579214 2.311521 2.452308 0
M  V30 22 C 0.234442 -1.555326 0.137441 0
M  V30 23 Cl 1.160071 -1.386703 -1.341324 0
M  V30 24 C -0.194901 -2.833930 0.534467 0
M  V30 25 C 0.124269 -3.997816 -0.293279 0
M  V30 26 C -1.088664 -4.687237 -0.914318 0
M  V30 27 C -0.525030 -5.977977 -1.509979 0
M  V30 28 N 0.828796 -5.699813 -1.993187 0
M  V30 29 C 1.236325 -6.710514 -2.961219 0
M  V30 30 C 2.591805 -6.339701 -3.532878 0
M  V30 31 C 2.506387 -5.006410 -4.275397 0
M  V30 32 F 1.589903 -5.120583 -5.319150 0
M  V30 33 F 3.731128 -4.649249 -4.789014 0
M  V30 34 F 2.051980 -3.977816 -3.480738 0
M  V30 35 C 1.749109 -5.696728 -0.853655 0
M  V30 36 C 0.995468 -5.033681 0.305571 0
M  V30 37 C -0.928757 -2.949350 1.705339 0
M  V30 38 H -0.980821 0.308496 2.569879 0
M  V30 39 H 1.004240 0.971793 -0.373808 0
M  V30 40 H -2.193775 4.615698 -0.306973 0
M  V30 41 H -3.338318 6.445348 -0.140459 0
M  V30 42 H -0.947711 7.269680 1.679763 0
M  V30 43 H -2.090546 8.370704 0.753827 0
M  V30 44 H -4.095187 7.498903 1.938572 0
M  V30 45 H -3.088240 6.371233 2.982558 0
M  V30 46 H 0.025542 5.638224 5.434640 0
M  V30 47 H 0.682867 -3.621514 -1.218224 0
M  V30 48 H -1.773801 -4.930114 -0.046300 0
M  V30 49 H -1.610160 -4.071489 -1.656707 0
M  V30 50 H -0.446824 -6.729677 -0.718976 0
M  V30 51 H -1.138692 -6.338428 -2.350853 0
M  V30 52 H 1.273268 -7.698834 -2.480328 0
M  V30 53 H 0.504318 -6.681561 -3.795613 0
M  V30 54 H 2.932087 -7.096970 -4.256906 0
M  V30 55 H 3.361958 -6.198447 -2.760342 0
M  V30 56 H 2.589997 -5.017557 -1.100233 0
M  V30 57 H 2.105156 -6.700929 -0.579675 0
M  V30 58 H 1.715948 -4.643254 1.056100 0
M  V30 59 H 0.412941 -5.799390 0.816559 0
M  V30 60 H -1.281148 -3.903145 2.055967 0
M  V30 END ATOM
M  V30 BEGIN BOND
M  V30 1 3 1 2
M  V30 2 1 2 3
M  V30 3 2 3 4
M  V30 4 1 4 5
M  V30 5 1 5 6
M  V30 6 1 6 7
M  V30 7 1 7 8
M  V30 8 2 8 9
M  V30 9 1 9 10
M  V30 10 1 10 11
M  V30 11 1 11 12
M  V30 12 1 12 13
M  V30 13 1 9 14
M  V30 14 2 14 15
M  V30 15 1 15 16
M  V30 16 2 16 17
M  V30 17 1 17 18
M  V30 18 3 18 19
M  V30 19 1 17 20
M  V30 20 1 20 21
M  V30 21 2 5 22
M  V30 22 1 22 23
M  V30 23 1 22 24
M  V30 24 1 24 25
M  V30 25 1 25 26
M  V30 26 1 26 27
M  V30 27 1 27 28
M  V30 28 1 28 29
M  V30 29 1 29 30
M  V30 30 1 30 31
M  V30 31 1 31 32
M  V30 32 1 31 33
M  V30 33 1 31 34
M  V30 34 1 28 35
M  V30 35 1 35 36
M  V30 36 2 24 37
M  V30 37 1 37 3
M  V30 38 2 21 7
M  V30 39 1 36 25
M  V30 40 1 13 11
M  V30 41 1 20 14
M  V30 42 1 4 38
M  V30 43 1 6 39
M  V30 44 1 10 40
M  V30 45 1 11 41
M  V30 46 1 12 42
M  V30 47 1 12 43
M  V30 48 1 13 44
M  V30 49 1 13 45
M  V30 50 1 16 46
M  V30 51 1 25 47
M  V30 52 1 26 48
M  V30 53 1 26 49
M  V30 54 1 27 50
M  V30 55 1 27 51
M  V30 56 1 29 52
M  V30 57 1 29 53
M  V30 58 1 30 54
M  V30 59 1 30 55
M  V30 60 1 35 56
M  V30 61 1 35 57
M  V30 62 1 36 58
M  V30 63 1 36 59
M  V30 64 1 37 60
M  V30 END BOND
M  V30 END CTAB
M  END
>  <Dataset>  (565) 
ChEMBL_Kinases

>  <Ligand_Instance>  (565) 
nan

>  <PDB_ID>  (565) 
nan

>  <Standardized_SMILES>  (565) 
N#Cc1cc(Nc2nc(NC3CC3)c3ncc(C#N)n3n2)c(Cl)c(C2CCN(CCC(F)(F)F)CC2)c1

>  <Name>  (565) 
nan

>  <Pocket>  (565) 
nan

>  <ATP_Site>  (565) 
nan

>  <Peripheral>  (565) 
nan

>  <Num_H_Atoms_ProtBoundConf>  (565) 
nan

>  <Num_Resolved_Atoms>  (565) 
nan

>  <Num_Not_Resolved_Atoms>  (565) 
nan

$$$$
CHEMBL3699264
     RDKit          3D

  0  0  0  0  0  0  0  0  0  0999 V3000
M  V30 BEGIN CTAB
M  V30 COUNTS 69 74 0 0 0
M  V30 BEGIN ATOM
M  V30 1 N -1.635735 -1.572189 6.387873 0
M  V30 2 C -1.251683 -1.418957 5.309663 0
M  V30 3 C -0.789662 -1.247065 3.963166 0
M  V30 4 C -0.616911 -0.001425 3.406834 0
M  V30 5 C -0.173507 0.178764 2.113941 0
M  V30 6 N 0.020424 1.456321 1.533719 0
M  V30 7 C -0.256820 2.694779 2.157754 0
M  V30 8 N 0.035755 3.790147 1.473367 0
M  V30 9 C -0.135411 5.062338 1.827089 0
M  V30 10 N 0.247412 6.129319 0.986028 0
M  V30 11 C 0.275727 7.531846 0.806901 0
M  V30 12 C 0.868478 8.326759 1.967689 0
M  V30 13 C -0.551303 8.525940 1.505018 0
M  V30 14 C -0.691632 5.210045 3.075198 0
M  V30 15 N -1.029956 6.265465 3.821231 0
M  V30 16 C -1.548770 5.915127 5.005167 0
M  V30 17 C -1.541524 4.552388 5.016195 0
M  V30 18 C -2.017365 3.731695 6.112719 0
M  V30 19 N -2.418505 3.077031 6.988575 0
M  V30 20 N -1.020104 4.166240 3.840786 0
M  V30 21 N -0.786743 2.995557 3.343888 0
M  V30 22 C 0.091196 -0.978340 1.399458 0
M  V30 23 Cl 0.625645 -0.773056 -0.236113 0
M  V30 24 C -0.038189 -2.258533 1.835444 0
M  V30 25 C 0.218072 -3.525295 1.177523 0
M  V30 26 C -1.024336 -3.915235 0.406617 0
M  V30 27 C -0.842259 -5.184418 -0.379595 0
M  V30 28 N 0.327293 -5.063355 -1.205083 0
M  V30 29 C 0.466950 -6.096103 -2.205672 0
M  V30 30 C -0.629128 -6.178938 -3.202618 0
M  V30 31 C 0.115041 -5.192529 -4.083091 0
M  V30 32 C 0.266634 -5.636212 -5.538248 0
M  V30 33 O 0.967498 -4.618596 -6.192108 0
M  V30 34 C -0.345838 -3.779073 -3.919038 0
M  V30 35 O -1.692013 -3.629123 -4.231083 0
M  V30 36 C 1.369216 -5.547422 -3.318537 0
M  V30 37 C 1.467427 -5.077104 -0.302994 0
M  V30 38 C 1.466718 -3.679575 0.372476 0
M  V30 39 C -0.496680 -2.332665 3.167231 0
M  V30 40 H -0.854329 0.816420 4.060262 0
M  V30 41 H 0.400906 1.460890 0.564738 0
M  V30 42 H 0.717665 5.724676 0.116608 0
M  V30 43 H 0.731149 7.894898 -0.183094 0
M  V30 44 H 1.633955 9.118815 1.741474 0
M  V30 45 H 1.076902 7.829424 2.921379 0
M  V30 46 H -1.417942 8.308636 2.122985 0
M  V30 47 H -0.674330 9.519170 0.960853 0
M  V30 48 H -1.880765 6.637015 5.744647 0
M  V30 49 H 0.292734 -4.343733 1.972675 0
M  V30 50 H -1.870595 -4.068950 1.107615 0
M  V30 51 H -1.331858 -3.118993 -0.297995 0
M  V30 52 H -1.735533 -5.276952 -1.027918 0
M  V30 53 H -0.829991 -6.097654 0.249767 0
M  V30 54 H 0.894963 -7.053622 -1.850515 0
M  V30 55 H -0.679984 -7.198038 -3.672221 0
M  V30 56 H -1.628716 -5.836197 -2.956002 0
M  V30 57 H 0.858901 -6.585708 -5.507387 0
M  V30 58 H -0.703110 -5.843532 -6.016108 0
M  V30 59 H 0.420017 -4.147447 -6.854419 0
M  V30 60 H -0.166888 -3.451283 -2.881845 0
M  V30 61 H 0.248249 -3.132144 -4.607466 0
M  V30 62 H -2.035220 -2.894520 -3.660072 0
M  V30 63 H 1.995495 -6.314934 -3.804831 0
M  V30 64 H 1.935106 -4.637827 -3.054940 0
M  V30 65 H 1.239104 -5.780000 0.524059 0
M  V30 66 H 2.432336 -5.214694 -0.783405 0
M  V30 67 H 1.533230 -3.000706 -0.480135 0
M  V30 68 H 2.357019 -3.721673 1.028873 0
M  V30 69 H -0.645051 -3.301667 3.639372 0
M  V30 END ATOM
M  V30 BEGIN BOND
M  V30 1 3 1 2
M  V30 2 1 2 3
M  V30 3 2 3 4
M  V30 4 1 4 5
M  V30 5 1 5 6
M  V30 6 1 6 7
M  V30 7 1 7 8
M  V30 8 2 8 9
M  V30 9 1 9 10
M  V30 10 1 10 11
M  V30 11 1 11 12
M  V30 12 1 12 13
M  V30 13 1 9 14
M  V30 14 2 14 15
M  V30 15 1 15 16
M  V30 16 2 16 17
M  V30 17 1 17 18
M  V30 18 3 18 19
M  V30 19 1 17 20
M  V30 20 1 20 21
M  V30 21 2 5 22
M  V30 22 1 22 23
M  V30 23 1 22 24
M  V30 24 1 24 25
M  V30 25 1 25 26
M  V30 26 1 26 27
M  V30 27 1 27 28
M  V30 28 1 28 29
M  V30 29 1 29 30
M  V30 30 1 30 31
M  V30 31 1 31 32
M  V30 32 1 32 33
M  V30 33 1 31 34
M  V30 34 1 34 35
M  V30 35 1 31 36
M  V30 36 1 28 37
M  V30 37 1 37 38
M  V30 38 2 24 39
M  V30 39 1 39 3
M  V30 40 2 21 7
M  V30 41 1 38 25
M  V30 42 1 13 11
M  V30 43 1 20 14
M  V30 44 1 36 29
M  V30 45 1 4 40
M  V30 46 1 6 41
M  V30 47 1 10 42
M  V30 48 1 11 43
M  V30 49 1 12 44
M  V30 50 1 12 45
M  V30 51 1 13 46
M  V30 52 1 13 47
M  V30 53 1 16 48
M  V30 54 1 25 49
M  V30 55 1 26 50
M  V30 56 1 26 51
M  V30 57 1 27 52
M  V30 58 1 27 53
M  V30 59 1 29 54
M  V30 60 1 30 55
M  V30 61 1 30 56
M  V30 62 1 32 57
M  V30 63 1 32 58
M  V30 64 1 33 59
M  V30 65 1 34 60
M  V30 66 1 34 61
M  V30 67 1 35 62
M  V30 68 1 36 63
M  V30 69 1 36 64
M  V30 70 1 37 65
M  V30 71 1 37 66
M  V30 72 1 38 67
M  V30 73 1 38 68
M  V30 74 1 39 69
M  V30 END BOND
M  V30 END CTAB
M  END
>  <Dataset>  (566) 
ChEMBL_Kinases

>  <Ligand_Instance>  (566) 
nan

>  <PDB_ID>  (566) 
nan

>  <Standardized_SMILES>  (566) 
N#Cc1cc(Nc2nc(NC3CC3)c3ncc(C#N)n3n2)c(Cl)c(C2CCN(C3CC(CO)(CO)C3)CC2)c1

>  <Name>  (566) 
nan

>  <Pocket>  (566) 
nan

>  <ATP_Site>  (566) 
nan

>  <Peripheral>  (566) 
nan

>  <Num_H_Atoms_ProtBoundConf>  (566) 
nan

>  <Num_Resolved_Atoms>  (566) 
nan

>  <Num_Not_Resolved_Atoms>  (566) 
nan

$$$$
CHEMBL3699263
     RDKit          3D

  0  0  0  0  0  0  0  0  0  0999 V3000
M  V30 BEGIN CTAB
M  V30 COUNTS 91 96 0 0 0
M  V30 BEGIN ATOM
M  V30 1 C -5.709185 -0.351814 -3.033752 0
M  V30 2 C -4.215121 -0.677991 -3.045457 0
M  V30 3 C -4.192747 -2.216807 -3.004397 0
M  V30 4 C -3.704040 -0.295097 -4.381001 0
M  V30 5 Si -3.373484 -0.082753 -1.551177 0 VAL=4
M  V30 6 C -4.391172 -0.778865 -0.103726 0
M  V30 7 C -1.712456 -0.981567 -1.422370 0
M  V30 8 O -3.157363 1.497125 -1.234457 0
M  V30 9 C -2.533998 2.389005 -2.012132 0 CFG=2
M  V30 10 C -1.287660 3.038182 -1.505309 0
M  V30 11 C -1.421552 4.189806 -0.574390 0
M  V30 12 N -1.271310 3.917461 0.777670 0
M  V30 13 C -2.055982 3.088413 1.545863 0
M  V30 14 C -1.332270 1.789746 1.840626 0
M  V30 15 C 0.076026 1.964844 2.342980 0
M  V30 16 C 0.792061 0.685997 2.226025 0
M  V30 17 C 0.031639 -0.314473 2.852368 0
M  V30 18 C 0.426420 -1.657104 2.866995 0
M  V30 19 C -0.308087 -2.718689 3.486086 0
M  V30 20 N -0.913757 -3.560319 3.977625 0
M  V30 21 C 1.611970 -2.032308 2.244766 0
M  V30 22 C 2.354762 -1.074860 1.638527 0
M  V30 23 N 3.573200 -1.364618 0.998286 0
M  V30 24 C 4.004585 -2.709885 0.922934 0
M  V30 25 N 4.652730 -3.314540 1.900031 0
M  V30 26 C 5.070435 -4.612361 1.817367 0
M  V30 27 N 5.778902 -5.203038 2.875644 0
M  V30 28 C 6.363201 -6.373934 3.398150 0
M  V30 29 C 7.193960 -7.271309 2.546140 0
M  V30 30 C 5.831298 -7.728117 3.019999 0
M  V30 31 C 4.746634 -5.233552 0.601214 0
M  V30 32 N 4.995987 -6.453344 0.161486 0
M  V30 33 C 4.510080 -6.599449 -1.066426 0
M  V30 34 C 3.911902 -5.426948 -1.459066 0
M  V30 35 C 3.265664 -5.127158 -2.680047 0
M  V30 36 N 2.716731 -4.890967 -3.681327 0
M  V30 37 N 4.091544 -4.635145 -0.396263 0
M  V30 38 N 3.737282 -3.379127 -0.200699 0
M  V30 39 C 1.942153 0.232378 1.640369 0
M  V30 40 Cl 2.937739 1.451565 0.896108 0
M  V30 41 C 0.789446 3.078358 1.632265 0
M  V30 42 C -0.087221 4.308606 1.469913 0
M  V30 43 C -2.600729 5.090653 -0.918346 0
M  V30 44 C -3.115796 4.824463 -2.321922 0
M  V30 45 C -3.557844 3.390760 -2.515255 0 CFG=1
M  V30 46 N -3.814108 3.268519 -3.945404 0
M  V30 47 H -5.914953 0.720333 -2.936489 0
M  V30 48 H -6.145266 -0.717131 -4.014526 0
M  V30 49 H -6.187967 -0.987203 -2.268863 0
M  V30 50 H -5.020380 -2.631867 -3.584990 0
M  V30 51 H -4.221766 -2.534000 -1.937822 0
M  V30 52 H -3.229179 -2.534343 -3.461801 0
M  V30 53 H -4.180375 0.641473 -4.778093 0
M  V30 54 H -2.625722 -0.325050 -4.515812 0
M  V30 55 H -4.109963 -1.062864 -5.118148 0
M  V30 56 H -4.018290 -1.755617 0.228299 0
M  V30 57 H -5.456559 -0.896496 -0.381939 0
M  V30 58 H -4.383518 -0.101831 0.767551 0
M  V30 59 H -1.294399 -1.166991 -2.437770 0
M  V30 60 H -1.859020 -2.014673 -0.987134 0
M  V30 61 H -1.018719 -0.491602 -0.741587 0
M  V30 62 H -2.218991 1.831840 -2.946764 0
M  V30 63 H -0.661142 3.334108 -2.409584 0
M  V30 64 H -0.658456 2.264150 -1.030055 0
M  V30 65 H -0.533135 4.864658 -0.836635 0
M  V30 66 H -2.221028 3.579655 2.561657 0
M  V30 67 H -3.040549 2.777018 1.143866 0
M  V30 68 H -1.968245 1.285842 2.621889 0
M  V30 69 H -1.369308 1.181532 0.930730 0
M  V30 70 H 0.021542 2.222655 3.419697 0
M  V30 71 H -0.901247 -0.228854 3.383947 0
M  V30 72 H 1.987696 -3.041652 2.209752 0
M  V30 73 H 4.192592 -0.643751 0.566450 0
M  V30 74 H 5.976950 -4.453062 3.623017 0
M  V30 75 H 6.740811 -6.277874 4.480240 0
M  V30 76 H 8.039742 -7.774937 3.046715 0
M  V30 77 H 7.384778 -7.057070 1.482616 0
M  V30 78 H 5.006291 -7.890999 2.343011 0
M  V30 79 H 5.828270 -8.465171 3.875919 0
M  V30 80 H 4.549855 -7.492222 -1.710153 0
M  V30 81 H 0.994148 2.772133 0.585492 0
M  V30 82 H 1.714003 3.388543 2.117118 0
M  V30 83 H -0.263613 4.845423 2.414370 0
M  V30 84 H 0.481666 5.026436 0.815682 0
M  V30 85 H -3.450001 4.972639 -0.214541 0
M  V30 86 H -2.343785 6.170835 -0.902845 0
M  V30 87 H -2.341370 5.038909 -3.062615 0
M  V30 88 H -3.997365 5.448162 -2.462121 0
M  V30 89 H -4.560664 3.206770 -2.043693 0
M  V30 90 H -2.939791 3.248072 -4.499478 0
M  V30 91 H -4.481130 4.009321 -4.194852 0
M  V30 END ATOM
M  V30 BEGIN BOND
M  V30 1 1 1 2
M  V30 2 1 2 3
M  V30 3 1 2 4
M  V30 4 1 2 5
M  V30 5 1 5 6
M  V30 6 1 5 7
M  V30 7 1 5 8
M  V30 8 1 8 9
M  V30 9 1 9 10
M  V30 10 1 10 11
M  V30 11 1 11 12
M  V30 12 1 12 13
M  V30 13 1 13 14
M  V30 14 1 14 15
M  V30 15 1 15 16
M  V30 16 2 16 17
M  V30 17 1 17 18
M  V30 18 1 18 19
M  V30 19 3 19 20
M  V30 20 2 18 21
M  V30 21 1 21 22
M  V30 22 1 22 23
M  V30 23 1 23 24
M  V30 24 1 24 25
M  V30 25 2 25 26
M  V30 26 1 26 27
M  V30 27 1 27 28
M  V30 28 1 28 29
M  V30 29 1 29 30
M  V30 30 1 26 31
M  V30 31 2 31 32
M  V30 32 1 32 33
M  V30 33 2 33 34
M  V30 34 1 34 35
M  V30 35 3 35 36
M  V30 36 1 34 37
M  V30 37 1 37 38
M  V30 38 2 22 39
M  V30 39 1 39 40
M  V30 40 1 15 41
M  V30 41 1 41 42
M  V30 42 1 11 43
M  V30 43 1 43 44
M  V30 44 1 44 45
M  V30 45 1 45 46
M  V30 46 1 45 9
M  V30 47 1 42 12
M  V30 48 1 39 16
M  V30 49 2 38 24
M  V30 50 1 30 28
M  V30 51 1 37 31
M  V30 52 1 1 47
M  V30 53 1 1 48
M  V30 54 1 1 49
M  V30 55 1 3 50
M  V30 56 1 3 51
M  V30 57 1 3 52
M  V30 58 1 4 53
M  V30 59 1 4 54
M  V30 60 1 4 55
M  V30 61 1 6 56
M  V30 62 1 6 57
M  V30 63 1 6 58
M  V30 64 1 7 59
M  V30 65 1 7 60
M  V30 66 1 7 61
M  V30 67 1 9 62 CFG=3
M  V30 68 1 10 63
M  V30 69 1 10 64
M  V30 70 1 11 65
M  V30 71 1 13 66
M  V30 72 1 13 67
M  V30 73 1 14 68
M  V30 74 1 14 69
M  V30 75 1 15 70
M  V30 76 1 17 71
M  V30 77 1 21 72
M  V30 78 1 23 73
M  V30 79 1 27 74
M  V30 80 1 28 75
M  V30 81 1 29 76
M  V30 82 1 29 77
M  V30 83 1 30 78
M  V30 84 1 30 79
M  V30 85 1 33 80
M  V30 86 1 41 81
M  V30 87 1 41 82
M  V30 88 1 42 83
M  V30 89 1 42 84
M  V30 90 1 43 85
M  V30 91 1 43 86
M  V30 92 1 44 87
M  V30 93 1 44 88
M  V30 94 1 45 89 CFG=1
M  V30 95 1 46 90
M  V30 96 1 46 91
M  V30 END BOND
M  V30 END CTAB
M  END
>  <Dataset>  (567) 
ChEMBL_Kinases

>  <Ligand_Instance>  (567) 
nan

>  <PDB_ID>  (567) 
nan

>  <Standardized_SMILES>  (567) 
CC(C)(C)[Si](C)(C)O[C@@H]1CC(N2CCC(c3cc(C#N)cc(Nc4nc(NC5CC5)c5ncc(C#N)n5n4)c3Cl)CC2)CC[C@H]1N

>  <Name>  (567) 
nan

>  <Pocket>  (567) 
nan

>  <ATP_Site>  (567) 
nan

>  <Peripheral>  (567) 
nan

>  <Num_H_Atoms_ProtBoundConf>  (567) 
nan

>  <Num_Resolved_Atoms>  (567) 
nan

>  <Num_Not_Resolved_Atoms>  (567) 
nan

$$$$
CHEMBL3699270
     RDKit          3D

  0  0  0  0  0  0  0  0  0  0999 V3000
M  V30 BEGIN CTAB
M  V30 COUNTS 60 65 0 0 0
M  V30 BEGIN ATOM
M  V30 1 C 3.735554 -3.961790 4.157569 0
M  V30 2 O 3.836898 -2.682504 3.641167 0
M  V30 3 C 4.997482 -2.450766 2.938926 0
M  V30 4 C 5.651100 -1.148739 3.375836 0
M  V30 5 N 5.403415 -0.538215 2.112050 0
M  V30 6 C 4.790383 0.726605 2.041077 0
M  V30 7 C 3.464938 0.986316 2.635739 0
M  V30 8 N 2.783475 0.940416 1.397778 0
M  V30 9 C 1.520750 0.924834 0.736653 0
M  V30 10 C 1.216535 1.880537 -0.209260 0
M  V30 11 C -0.015381 1.818691 -0.829874 0
M  V30 12 C -0.427226 2.807843 -1.861274 0
M  V30 13 F 0.425606 2.867736 -2.936748 0
M  V30 14 F -0.536609 4.087479 -1.297778 0
M  V30 15 C -0.865009 0.794378 -0.456435 0
M  V30 16 C -0.615209 -0.193178 0.485887 0
M  V30 17 N -1.549167 -1.187035 0.818732 0
M  V30 18 C -2.808211 -1.507055 0.261547 0
M  V30 19 N -3.344992 -1.021212 -0.850203 0
M  V30 20 C -4.566029 -1.359164 -1.299728 0
M  V30 21 N -5.180329 -0.901136 -2.490197 0
M  V30 22 C -4.898457 -0.079830 -3.627994 0
M  V30 23 C -3.958584 -0.529233 -4.716481 0
M  V30 24 C -3.416206 0.416237 -3.664900 0
M  V30 25 C -5.266453 -2.260066 -0.538499 0
M  V30 26 N -6.493198 -2.820621 -0.671417 0
M  V30 27 C -6.734135 -3.656679 0.347876 0
M  V30 28 C -5.625300 -3.628907 1.157770 0
M  V30 29 C -5.378772 -4.339652 2.370767 0
M  V30 30 N -5.166015 -4.912299 3.359219 0
M  V30 31 N -4.764677 -2.772980 0.584687 0
M  V30 32 N -3.562034 -2.381226 0.942045 0
M  V30 33 C 0.647970 -0.074543 1.077646 0
M  V30 34 Cl 1.077949 -1.255907 2.285669 0
M  V30 35 C 4.052376 0.911775 0.712016 0
M  V30 36 C 4.814110 -1.713989 1.623250 0
M  V30 37 H 4.551667 -4.208705 4.859973 0
M  V30 38 H 3.583433 -4.732105 3.370579 0
M  V30 39 H 2.790768 -3.974797 4.750674 0
M  V30 40 H 5.674035 -3.332483 2.899824 0
M  V30 41 H 5.209876 -0.682129 4.280123 0
M  V30 42 H 6.734369 -1.332479 3.570291 0
M  V30 43 H 5.530277 1.557637 2.257888 0
M  V30 44 H 3.393673 2.021479 3.077526 0
M  V30 45 H 3.156521 0.286541 3.432149 0
M  V30 46 H 1.918598 2.640874 -0.447456 0
M  V30 47 H -1.443134 2.593730 -2.249139 0
M  V30 48 H -1.809188 0.780064 -0.943555 0
M  V30 49 H -1.204001 -1.773813 1.634170 0
M  V30 50 H -6.166410 -1.223390 -2.696070 0
M  V30 51 H -5.642429 0.740718 -3.841241 0
M  V30 52 H -4.127664 -0.127232 -5.731761 0
M  V30 53 H -3.651517 -1.601488 -4.690039 0
M  V30 54 H -2.727338 -0.034255 -2.918785 0
M  V30 55 H -3.281726 1.468768 -3.910129 0
M  V30 56 H -7.602842 -4.280766 0.581046 0
M  V30 57 H 4.196672 0.068820 0.011842 0
M  V30 58 H 4.314646 1.907191 0.298872 0
M  V30 59 H 3.819067 -1.692752 1.196031 0
M  V30 60 H 5.492773 -2.200514 0.858936 0
M  V30 END ATOM
M  V30 BEGIN BOND
M  V30 1 1 1 2
M  V30 2 1 2 3
M  V30 3 1 3 4
M  V30 4 1 4 5
M  V30 5 1 5 6
M  V30 6 1 6 7
M  V30 7 1 7 8
M  V30 8 1 8 9
M  V30 9 2 9 10
M  V30 10 1 10 11
M  V30 11 1 11 12
M  V30 12 1 12 13
M  V30 13 1 12 14
M  V30 14 2 11 15
M  V30 15 1 15 16
M  V30 16 1 16 17
M  V30 17 1 17 18
M  V30 18 1 18 19
M  V30 19 2 19 20
M  V30 20 1 20 21
M  V30 21 1 21 22
M  V30 22 1 22 23
M  V30 23 1 23 24
M  V30 24 1 20 25
M  V30 25 2 25 26
M  V30 26 1 26 27
M  V30 27 2 27 28
M  V30 28 1 28 29
M  V30 29 3 29 30
M  V30 30 1 28 31
M  V30 31 1 31 32
M  V30 32 2 16 33
M  V30 33 1 33 34
M  V30 34 1 8 35
M  V30 35 1 5 36
M  V30 36 1 36 3
M  V30 37 1 35 6
M  V30 38 1 33 9
M  V30 39 2 32 18
M  V30 40 1 24 22
M  V30 41 1 31 25
M  V30 42 1 1 37
M  V30 43 1 1 38
M  V30 44 1 1 39
M  V30 45 1 3 40
M  V30 46 1 4 41
M  V30 47 1 4 42
M  V30 48 1 6 43
M  V30 49 1 7 44
M  V30 50 1 7 45
M  V30 51 1 10 46
M  V30 52 1 12 47
M  V30 53 1 15 48
M  V30 54 1 17 49
M  V30 55 1 21 50
M  V30 56 1 22 51
M  V30 57 1 23 52
M  V30 58 1 23 53
M  V30 59 1 24 54
M  V30 60 1 24 55
M  V30 61 1 27 56
M  V30 62 1 35 57
M  V30 63 1 35 58
M  V30 64 1 36 59
M  V30 65 1 36 60
M  V30 END BOND
M  V30 END CTAB
M  END
>  <Dataset>  (568) 
ChEMBL_Kinases

>  <Ligand_Instance>  (568) 
nan

>  <PDB_ID>  (568) 
nan

>  <Standardized_SMILES>  (568) 
COC1CN(C2CN(c3cc(C(F)F)cc(Nc4nc(NC5CC5)c5ncc(C#N)n5n4)c3Cl)C2)C1

>  <Name>  (568) 
nan

>  <Pocket>  (568) 
nan

>  <ATP_Site>  (568) 
nan

>  <Peripheral>  (568) 
nan

>  <Num_H_Atoms_ProtBoundConf>  (568) 
nan

>  <Num_Resolved_Atoms>  (568) 
nan

>  <Num_Not_Resolved_Atoms>  (568) 
nan

$$$$
CHEMBL2207503
     RDKit          3D

  0  0  0  0  0  0  0  0  0  0999 V3000
M  V30 BEGIN CTAB
M  V30 COUNTS 54 58 0 0 0
M  V30 BEGIN ATOM
M  V30 1 C 2.494766 -0.268930 3.004612 0
M  V30 2 C 3.504837 -1.353324 3.114791 0
M  V30 3 N 4.438217 -1.537988 4.065995 0
M  V30 4 N 5.163237 -2.628310 3.820912 0
M  V30 5 C 6.255229 -3.069546 4.699746 0
M  V30 6 C 4.694459 -3.173711 2.680057 0
M  V30 7 C 3.653836 -2.394720 2.215106 0
M  V30 8 C 2.899733 -2.676805 0.998446 0
M  V30 9 N 1.886769 -1.894353 0.570981 0
M  V30 10 C 1.392055 -2.423781 -0.585027 0
M  V30 11 C 0.379731 -2.107110 -1.495708 0
M  V30 12 N -0.322260 -0.924615 -1.126653 0
M  V30 13 C 0.132828 0.343421 -1.599543 0
M  V30 14 C -0.950793 1.328784 -1.900500 0
M  V30 15 N -1.927338 1.497495 -0.864299 0
M  V30 16 C -3.259779 1.426631 -1.373480 0
M  V30 17 C -4.320129 1.595428 -0.340386 0
M  V30 18 C -4.852015 0.508700 0.353456 0
M  V30 19 C -5.836129 0.670556 1.311492 0
M  V30 20 C -6.295928 1.945562 1.579284 0
M  V30 21 Cl -7.555885 2.164517 2.804096 0
M  V30 22 C -5.812354 3.059634 0.929566 0
M  V30 23 C -4.829279 2.856537 -0.021251 0
M  V30 24 C -1.627780 0.587798 0.203478 0
M  V30 25 C -1.493044 -0.816666 -0.297060 0
M  V30 26 C 0.159098 -2.907540 -2.597657 0
M  V30 27 Cl -1.138851 -2.397166 -3.656853 0
M  V30 28 C 0.944489 -4.028074 -2.800206 0
M  V30 29 N 1.931340 -4.349424 -1.925583 0
M  V30 30 C 2.153891 -3.562663 -0.835489 0
M  V30 31 N 3.076541 -3.712310 0.138944 0
M  V30 32 H 1.550035 -0.631990 2.584109 0
M  V30 33 H 2.353126 0.157510 4.034843 0
M  V30 34 H 2.908063 0.581371 2.416083 0
M  V30 35 H 6.463411 -4.135177 4.564930 0
M  V30 36 H 7.183895 -2.499719 4.410351 0
M  V30 37 H 6.016805 -2.771139 5.729333 0
M  V30 38 H 5.094270 -4.076942 2.231111 0
M  V30 39 H 0.773881 0.282028 -2.496756 0
M  V30 40 H 0.809895 0.775504 -0.806130 0
M  V30 41 H -0.456321 2.327374 -2.042034 0
M  V30 42 H -1.446553 1.079811 -2.865964 0
M  V30 43 H -3.453780 0.509483 -1.998409 0
M  V30 44 H -3.360625 2.263418 -2.105076 0
M  V30 45 H -4.488669 -0.478319 0.138762 0
M  V30 46 H -6.234843 -0.202056 1.840302 0
M  V30 47 H -6.184426 4.052841 1.152040 0
M  V30 48 H -4.452474 3.729705 -0.528277 0
M  V30 49 H -0.640139 0.889290 0.624240 0
M  V30 50 H -2.326673 0.660383 1.059860 0
M  V30 51 H -2.387331 -1.230066 -0.759129 0
M  V30 52 H -1.298541 -1.465476 0.605185 0
M  V30 53 H 0.726951 -4.617356 -3.678955 0
M  V30 54 H 3.801508 -4.481959 0.227014 0
M  V30 END ATOM
M  V30 BEGIN BOND
M  V30 1 1 1 2
M  V30 2 2 2 3
M  V30 3 1 3 4
M  V30 4 1 4 5
M  V30 5 1 4 6
M  V30 6 2 6 7
M  V30 7 1 7 8
M  V30 8 2 8 9
M  V30 9 1 9 10
M  V30 10 2 10 11
M  V30 11 1 11 12
M  V30 12 1 12 13
M  V30 13 1 13 14
M  V30 14 1 14 15
M  V30 15 1 15 16
M  V30 16 1 16 17
M  V30 17 2 17 18
M  V30 18 1 18 19
M  V30 19 2 19 20
M  V30 20 1 20 21
M  V30 21 1 20 22
M  V30 22 2 22 23
M  V30 23 1 15 24
M  V30 24 1 24 25
M  V30 25 1 11 26
M  V30 26 1 26 27
M  V30 27 2 26 28
M  V30 28 1 28 29
M  V30 29 2 29 30
M  V30 30 1 30 31
M  V30 31 1 7 2
M  V30 32 1 31 8
M  V30 33 1 30 10
M  V30 34 1 25 12
M  V30 35 1 23 17
M  V30 36 1 1 32
M  V30 37 1 1 33
M  V30 38 1 1 34
M  V30 39 1 5 35
M  V30 40 1 5 36
M  V30 41 1 5 37
M  V30 42 1 6 38
M  V30 43 1 13 39
M  V30 44 1 13 40
M  V30 45 1 14 41
M  V30 46 1 14 42
M  V30 47 1 16 43
M  V30 48 1 16 44
M  V30 49 1 18 45
M  V30 50 1 19 46
M  V30 51 1 22 47
M  V30 52 1 23 48
M  V30 53 1 24 49
M  V30 54 1 24 50
M  V30 55 1 25 51
M  V30 56 1 25 52
M  V30 57 1 28 53
M  V30 58 1 31 54
M  V30 END BOND
M  V30 END CTAB
M  END
>  <Dataset>  (569) 
ChEMBL_Kinases

>  <Ligand_Instance>  (569) 
nan

>  <PDB_ID>  (569) 
nan

>  <Standardized_SMILES>  (569) 
Cc1nn(C)cc1-c1nc2c(N3CCN(Cc4ccc(Cl)cc4)CC3)c(Cl)cnc2[nH]1

>  <Name>  (569) 
EP-0042

>  <Pocket>  (569) 
nan

>  <ATP_Site>  (569) 
nan

>  <Peripheral>  (569) 
nan

>  <Num_H_Atoms_ProtBoundConf>  (569) 
nan

>  <Num_Resolved_Atoms>  (569) 
nan

>  <Num_Not_Resolved_Atoms>  (569) 
nan

$$$$
CHEMBL3702202
     RDKit          3D

  0  0  0  0  0  0  0  0  0  0999 V3000
M  V30 BEGIN CTAB
M  V30 COUNTS 60 65 0 0 0
M  V30 BEGIN ATOM
M  V30 1 C -0.048572 -2.998436 6.307326 0
M  V30 2 C 0.190055 -3.432490 4.854482 0 CFG=1
M  V30 3 C 1.600173 -3.095341 4.458686 0
M  V30 4 N 1.876699 -3.780601 3.213072 0
M  V30 5 C 2.109650 -3.125938 1.977558 0
M  V30 6 C 1.690168 -1.823929 1.872304 0
M  V30 7 C 1.852051 -1.059280 0.713886 0
M  V30 8 C 2.484740 -1.729473 -0.347302 0
M  V30 9 N 2.683829 -1.054592 -1.601959 0
M  V30 10 C 2.176522 0.277560 -1.625058 0
M  V30 11 N 2.793408 1.464667 -1.483149 0
M  V30 12 C 2.060560 2.617752 -1.521272 0
M  V30 13 C 0.676783 2.576413 -1.705847 0
M  V30 14 C -0.307792 3.569576 -1.780922 0
M  V30 15 C -0.238833 4.932914 -1.700979 0
M  V30 16 C -1.433610 5.609666 -1.818717 0
M  V30 17 C -2.635363 4.952164 -2.007397 0
M  V30 18 C -2.638470 3.573675 -2.080268 0
M  V30 19 C -1.462388 2.839437 -1.967522 0
M  V30 20 N -1.257616 1.511655 -2.010626 0
M  V30 21 C -2.264109 0.485151 -2.194331 0
M  V30 22 C -2.426556 -0.444685 -1.043333 0
M  V30 23 C -1.950787 -1.782312 -1.492858 0
M  V30 24 C -2.291443 -1.801171 -2.964590 0
M  V30 25 C -2.050653 -0.363593 -3.414770 0
M  V30 26 C 0.084092 1.315507 -1.848385 0
M  V30 27 N 0.845100 0.207879 -1.804870 0
M  V30 28 N 2.894067 -3.012517 -0.228523 0
M  V30 29 N 2.702309 -3.669048 0.903795 0
M  V30 30 C 1.833924 -5.237155 3.452869 0
M  V30 31 C 0.310043 -5.469122 3.571895 0
M  V30 32 N -0.123185 -4.825886 4.771145 0
M  V30 33 H 0.887970 -3.155972 6.891207 0
M  V30 34 H -0.856667 -3.587263 6.765228 0
M  V30 35 H -0.241430 -1.886224 6.355293 0
M  V30 36 H -0.587551 -2.877721 4.275805 0
M  V30 37 H 1.741827 -2.000401 4.418895 0
M  V30 38 H 2.258666 -3.545285 5.245814 0
M  V30 39 H 1.192920 -1.236208 2.636734 0
M  V30 40 H 1.532366 -0.042178 0.610203 0
M  V30 41 H 3.156686 -1.537061 -2.378956 0
M  V30 42 H 2.577251 3.537426 -1.406919 0
M  V30 43 H 0.729820 5.405855 -1.552955 0
M  V30 44 H -1.423372 6.698753 -1.760925 0
M  V30 45 H -3.538879 5.568654 -2.090221 0
M  V30 46 H -3.612963 3.164076 -2.226472 0
M  V30 47 H -3.265680 0.988999 -2.359682 0
M  V30 48 H -3.510608 -0.573311 -0.762399 0
M  V30 49 H -1.945159 -0.089389 -0.109611 0
M  V30 50 H -0.847819 -1.952414 -1.323941 0
M  V30 51 H -2.473366 -2.626688 -0.955451 0
M  V30 52 H -1.640060 -2.508010 -3.529073 0
M  V30 53 H -3.372376 -2.086935 -3.057994 0
M  V30 54 H -2.815151 -0.198468 -4.217132 0
M  V30 55 H -1.073745 -0.251777 -3.898061 0
M  V30 56 H 2.170000 -5.780853 2.555828 0
M  V30 57 H 2.316232 -5.524699 4.391967 0
M  V30 58 H -0.141898 -4.954200 2.687893 0
M  V30 59 H 0.139734 -6.540894 3.620014 0
M  V30 60 H -1.134867 -4.981219 4.985439 0
M  V30 END ATOM
M  V30 BEGIN BOND
M  V30 1 1 1 2
M  V30 2 1 2 3
M  V30 3 1 3 4
M  V30 4 1 4 5
M  V30 5 2 5 6
M  V30 6 1 6 7
M  V30 7 2 7 8
M  V30 8 1 8 9
M  V30 9 1 9 10
M  V30 10 2 10 11
M  V30 11 1 11 12
M  V30 12 2 12 13
M  V30 13 1 13 14
M  V30 14 2 14 15
M  V30 15 1 15 16
M  V30 16 2 16 17
M  V30 17 1 17 18
M  V30 18 2 18 19
M  V30 19 1 19 20
M  V30 20 1 20 21
M  V30 21 1 21 22
M  V30 22 1 22 23
M  V30 23 1 23 24
M  V30 24 1 24 25
M  V30 25 1 20 26
M  V30 26 2 26 27
M  V30 27 1 8 28
M  V30 28 2 28 29
M  V30 29 1 4 30
M  V30 30 1 30 31
M  V30 31 1 31 32
M  V30 32 1 32 2
M  V30 33 1 29 5
M  V30 34 1 27 10
M  V30 35 1 26 13
M  V30 36 1 19 14
M  V30 37 1 25 21
M  V30 38 1 1 33
M  V30 39 1 1 34
M  V30 40 1 1 35
M  V30 41 1 2 36 CFG=3
M  V30 42 1 3 37
M  V30 43 1 3 38
M  V30 44 1 6 39
M  V30 45 1 7 40
M  V30 46 1 9 41
M  V30 47 1 12 42
M  V30 48 1 15 43
M  V30 49 1 16 44
M  V30 50 1 17 45
M  V30 51 1 18 46
M  V30 52 1 21 47
M  V30 53 1 22 48
M  V30 54 1 22 49
M  V30 55 1 23 50
M  V30 56 1 23 51
M  V30 57 1 24 52
M  V30 58 1 24 53
M  V30 59 1 25 54
M  V30 60 1 25 55
M  V30 61 1 30 56
M  V30 62 1 30 57
M  V30 63 1 31 58
M  V30 64 1 31 59
M  V30 65 1 32 60
M  V30 END BOND
M  V30 END CTAB
M  END
>  <Dataset>  (570) 
ChEMBL_Kinases

>  <Ligand_Instance>  (570) 
nan

>  <PDB_ID>  (570) 
nan

>  <Standardized_SMILES>  (570) 
C[C@H]1CN(c2ccc(Nc3ncc4c5ccccc5n(C5CCCC5)c4n3)nn2)CCN1

>  <Name>  (570) 
nan

>  <Pocket>  (570) 
nan

>  <ATP_Site>  (570) 
nan

>  <Peripheral>  (570) 
nan

>  <Num_H_Atoms_ProtBoundConf>  (570) 
nan

>  <Num_Resolved_Atoms>  (570) 
nan

>  <Num_Not_Resolved_Atoms>  (570) 
nan

$$$$
CHEMBL223460
     RDKit          3D

  0  0  0  0  0  0  0  0  0  0999 V3000
M  V30 BEGIN CTAB
M  V30 COUNTS 50 52 0 0 0
M  V30 BEGIN ATOM
M  V30 1 C 1.580812 -2.256369 4.550222 0
M  V30 2 S 3.250308 -1.713202 4.642572 0
M  V30 3 O 3.694353 -1.804517 6.067740 0
M  V30 4 O 4.111562 -2.658226 3.856062 0
M  V30 5 N 3.443890 -0.082132 4.063390 0
M  V30 6 C 3.128240 0.241774 2.715457 0
M  V30 7 C 2.744599 -0.711312 1.795270 0
M  V30 8 C 2.421558 -0.464531 0.455187 0
M  V30 9 C 2.522477 0.867721 0.118900 0
M  V30 10 C 2.904538 1.826883 1.026348 0
M  V30 11 C 3.210459 1.548180 2.317989 0
M  V30 12 Cl 3.686340 2.806365 3.415182 0
M  V30 13 N 2.212905 1.389414 -1.212246 0
M  V30 14 C 0.884369 1.500402 -1.692476 0
M  V30 15 O 0.778444 1.051155 -0.580661 0
M  V30 16 N -0.160387 1.786438 -2.567492 0
M  V30 17 C -1.522542 1.560354 -2.148666 0
M  V30 18 C -2.607389 2.164742 -2.723938 0
M  V30 19 N -3.845117 1.902892 -2.260926 0
M  V30 20 C -3.956480 1.042783 -1.234740 0
M  V30 21 C -5.261699 0.727101 -0.699839 0
M  V30 22 N -6.326824 0.485930 -0.278477 0
M  V30 23 C -2.913830 0.393743 -0.601401 0
M  V30 24 N -1.729205 0.713309 -1.126152 0
M  V30 25 O -2.918159 -0.493580 0.444621 0
M  V30 26 C -3.313562 -1.800141 0.464195 0
M  V30 27 C -2.649561 -2.807590 -0.374280 0
M  V30 28 C -1.259734 -3.198867 -0.151201 0
M  V30 29 C -0.282277 -2.075360 -0.276712 0
M  V30 30 C 1.144154 -2.559447 -0.112646 0
M  V30 31 O 2.084921 -1.595211 -0.211286 0
M  V30 32 H 0.953510 -1.641182 3.846624 0
M  V30 33 H 1.567030 -3.299188 4.176958 0
M  V30 34 H 1.085314 -2.299760 5.544747 0
M  V30 35 H 3.793518 0.643920 4.721971 0
M  V30 36 H 2.716881 -1.719378 2.229947 0
M  V30 37 H 2.962839 2.860925 0.658447 0
M  V30 38 H 3.144392 1.623616 -1.613073 0
M  V30 39 H -0.035670 2.181323 -3.548233 0
M  V30 40 H -2.293074 2.819830 -3.531645 0
M  V30 41 H -4.426387 -1.944870 0.302497 0
M  V30 42 H -3.193425 -2.154316 1.538084 0
M  V30 43 H -3.275345 -3.757888 -0.360482 0
M  V30 44 H -2.733586 -2.494094 -1.462358 0
M  V30 45 H -0.979138 -3.974201 -0.905478 0
M  V30 46 H -1.115263 -3.754118 0.831487 0
M  V30 47 H -0.317648 -1.670527 -1.318525 0
M  V30 48 H -0.497244 -1.357968 0.506525 0
M  V30 49 H 1.176389 -3.180672 0.813745 0
M  V30 50 H 1.311262 -3.311591 -0.941971 0
M  V30 END ATOM
M  V30 BEGIN BOND
M  V30 1 1 1 2
M  V30 2 2 2 3
M  V30 3 2 2 4
M  V30 4 1 2 5
M  V30 5 1 5 6
M  V30 6 2 6 7
M  V30 7 1 7 8
M  V30 8 2 8 9
M  V30 9 1 9 10
M  V30 10 2 10 11
M  V30 11 1 11 12
M  V30 12 1 9 13
M  V30 13 1 13 14
M  V30 14 2 14 15
M  V30 15 1 14 16
M  V30 16 1 16 17
M  V30 17 1 17 18
M  V30 18 2 18 19
M  V30 19 1 19 20
M  V30 20 1 20 21
M  V30 21 3 21 22
M  V30 22 2 20 23
M  V30 23 1 23 24
M  V30 24 1 23 25
M  V30 25 1 25 26
M  V30 26 1 26 27
M  V30 27 1 27 28
M  V30 28 1 28 29
M  V30 29 1 29 30
M  V30 30 1 30 31
M  V30 31 1 11 6
M  V30 32 2 24 17
M  V30 33 1 31 8
M  V30 34 1 1 32
M  V30 35 1 1 33
M  V30 36 1 1 34
M  V30 37 1 5 35
M  V30 38 1 7 36
M  V30 39 1 10 37
M  V30 40 1 13 38
M  V30 41 1 16 39
M  V30 42 1 18 40
M  V30 43 1 26 41
M  V30 44 1 26 42
M  V30 45 1 27 43
M  V30 46 1 27 44
M  V30 47 1 28 45
M  V30 48 1 28 46
M  V30 49 1 29 47
M  V30 50 1 29 48
M  V30 51 1 30 49
M  V30 52 1 30 50
M  V30 END BOND
M  V30 END CTAB
M  END
>  <Dataset>  (571) 
ChEMBL_Kinases

>  <Ligand_Instance>  (571) 
nan

>  <PDB_ID>  (571) 
nan

>  <Standardized_SMILES>  (571) 
CS(=O)(=O)Nc1cc2c(cc1Cl)NC(=O)Nc1cnc(C#N)c(n1)OCCCCCO2

>  <Name>  (571) 
nan

>  <Pocket>  (571) 
nan

>  <ATP_Site>  (571) 
nan

>  <Peripheral>  (571) 
nan

>  <Num_H_Atoms_ProtBoundConf>  (571) 
nan

>  <Num_Resolved_Atoms>  (571) 
nan

>  <Num_Not_Resolved_Atoms>  (571) 
nan

$$$$
CHEMBL223471
     RDKit          3D

  0  0  0  0  0  0  0  0  0  0999 V3000
M  V30 BEGIN CTAB
M  V30 COUNTS 48 51 0 0 0
M  V30 BEGIN ATOM
M  V30 1 C 0.323457 -6.467838 3.086336 0
M  V30 2 O 0.743148 -6.168001 1.791713 0
M  V30 3 C 1.391097 -5.006619 1.409846 0
M  V30 4 C 1.763282 -4.810740 0.099606 0
M  V30 5 C 2.406682 -3.698223 -0.373143 0
M  V30 6 C 2.723418 -2.676765 0.489447 0
M  V30 7 C 3.409818 -1.383601 0.205784 0
M  V30 8 N 2.418438 -0.380196 -0.104751 0
M  V30 9 C 1.711096 -0.238994 -1.324448 0
M  V30 10 O 1.925971 -1.041269 -2.277162 0
M  V30 11 C 0.737263 0.837767 -1.463942 0
M  V30 12 C 0.392840 1.782369 -0.504343 0
M  V30 13 C -0.578241 2.651031 -1.007333 0
M  V30 14 C -1.087669 3.733170 -0.137138 0
M  V30 15 N -1.079921 5.070011 -0.115261 0
M  V30 16 N -1.721996 5.488909 0.963401 0
M  V30 17 C -2.181913 4.468884 1.701489 0
M  V30 18 C -1.784519 3.337067 1.011158 0
M  V30 19 C -2.109726 2.000554 1.512745 0
M  V30 20 C -1.771453 1.381104 2.679208 0
M  V30 21 C -2.198268 0.097931 2.936500 0
M  V30 22 C -2.971922 -0.630598 2.065613 0
M  V30 23 C -3.323070 -0.012797 0.876491 0
M  V30 24 Cl -4.317914 -0.906319 -0.279397 0
M  V30 25 C -2.894599 1.283007 0.611738 0
M  V30 26 C -0.815852 2.215606 -2.289245 0
M  V30 27 N -0.021141 1.140261 -2.528982 0
M  V30 28 C 2.365310 -2.829908 1.830560 0
M  V30 29 C 1.721153 -3.957597 2.273080 0
M  V30 30 H 0.982405 -6.011280 3.866615 0
M  V30 31 H -0.719107 -6.137404 3.265871 0
M  V30 32 H 0.346660 -7.563780 3.252996 0
M  V30 33 H 1.526868 -5.603720 -0.619086 0
M  V30 34 H 2.711896 -3.516394 -1.388701 0
M  V30 35 H 4.050934 -1.593360 -0.703244 0
M  V30 36 H 4.065284 -1.077595 1.041483 0
M  V30 37 H 2.219092 0.300789 0.667102 0
M  V30 38 H 0.853672 1.787810 0.480337 0
M  V30 39 H -0.598175 5.548997 -0.904753 0
M  V30 40 H -2.744839 4.529135 2.637835 0
M  V30 41 H -1.159467 2.009771 3.323381 0
M  V30 42 H -1.888637 -0.332168 3.889642 0
M  V30 43 H -3.284030 -1.639195 2.311892 0
M  V30 44 H -3.233994 1.662820 -0.357479 0
M  V30 45 H -1.538129 2.739001 -2.883623 0
M  V30 46 H -0.021754 0.629097 -3.444614 0
M  V30 47 H 2.564498 -2.093400 2.593197 0
M  V30 48 H 1.436079 -4.084543 3.326305 0
M  V30 END ATOM
M  V30 BEGIN BOND
M  V30 1 1 1 2
M  V30 2 1 2 3
M  V30 3 2 3 4
M  V30 4 1 4 5
M  V30 5 2 5 6
M  V30 6 1 6 7
M  V30 7 1 7 8
M  V30 8 1 8 9
M  V30 9 2 9 10
M  V30 10 1 9 11
M  V30 11 2 11 12
M  V30 12 1 12 13
M  V30 13 1 13 14
M  V30 14 1 14 15
M  V30 15 1 15 16
M  V30 16 2 16 17
M  V30 17 1 17 18
M  V30 18 1 18 19
M  V30 19 2 19 20
M  V30 20 1 20 21
M  V30 21 2 21 22
M  V30 22 1 22 23
M  V30 23 1 23 24
M  V30 24 2 23 25
M  V30 25 2 13 26
M  V30 26 1 26 27
M  V30 27 1 6 28
M  V30 28 2 28 29
M  V30 29 1 29 3
M  V30 30 1 27 11
M  V30 31 2 18 14
M  V30 32 1 25 19
M  V30 33 1 1 30
M  V30 34 1 1 31
M  V30 35 1 1 32
M  V30 36 1 4 33
M  V30 37 1 5 34
M  V30 38 1 7 35
M  V30 39 1 7 36
M  V30 40 1 8 37
M  V30 41 1 12 38
M  V30 42 1 15 39
M  V30 43 1 17 40
M  V30 44 1 20 41
M  V30 45 1 21 42
M  V30 46 1 22 43
M  V30 47 1 25 44
M  V30 48 1 26 45
M  V30 49 1 27 46
M  V30 50 1 28 47
M  V30 51 1 29 48
M  V30 END BOND
M  V30 END CTAB
M  END
>  <Dataset>  (572) 
ChEMBL_Kinases

>  <Ligand_Instance>  (572) 
nan

>  <PDB_ID>  (572) 
nan

>  <Standardized_SMILES>  (572) 
COc1ccc(CNC(=O)c2cc(-c3[nH]ncc3-c3cccc(Cl)c3)c[nH]2)cc1

>  <Name>  (572) 
nan

>  <Pocket>  (572) 
nan

>  <ATP_Site>  (572) 
nan

>  <Peripheral>  (572) 
nan

>  <Num_H_Atoms_ProtBoundConf>  (572) 
nan

>  <Num_Resolved_Atoms>  (572) 
nan

>  <Num_Not_Resolved_Atoms>  (572) 
nan

$$$$
CHEMBL4551441
     RDKit          3D

  0  0  0  0  0  0  0  0  0  0999 V3000
M  V30 BEGIN CTAB
M  V30 COUNTS 38 40 0 0 0
M  V30 BEGIN ATOM
M  V30 1 C -0.140958 -2.192954 4.047353 0
M  V30 2 C 0.210098 -2.699583 2.636187 0
M  V30 3 C -0.724376 -3.916161 2.470852 0
M  V30 4 C 1.621425 -3.314805 2.735843 0
M  V30 5 N 0.078893 -1.738114 1.605084 0
M  V30 6 C -0.030932 -0.752375 0.583949 0
M  V30 7 N 0.626359 0.416520 0.535851 0
M  V30 8 C 0.529990 1.346905 -0.408094 0
M  V30 9 C 1.301323 2.581795 -0.346337 0
M  V30 10 C 1.098320 3.452986 -1.395086 0
M  V30 11 C 1.844639 4.636091 -1.325205 0
M  V30 12 N 2.689357 4.890073 -0.309490 0
M  V30 13 C 2.827051 3.985330 0.672743 0
M  V30 14 C 2.149204 2.779852 0.722272 0
M  V30 15 N -0.323669 1.021320 -1.375015 0
M  V30 16 C -1.042293 -0.101127 -1.456851 0
M  V30 17 C -1.855519 -0.195343 -2.566357 0
M  V30 18 N -2.597790 -1.334365 -2.670861 0
M  V30 19 C -2.516851 -2.297290 -1.721936 0
M  V30 20 C -1.683627 -2.138299 -0.638976 0
M  V30 21 C -0.897948 -1.025480 -0.448053 0
M  V30 22 H 0.244785 -2.959100 4.748182 0
M  V30 23 H 0.337937 -1.232686 4.270534 0
M  V30 24 H -1.244202 -2.189537 4.181818 0
M  V30 25 H -1.769047 -3.514820 2.427705 0
M  V30 26 H -0.451521 -4.533662 1.603958 0
M  V30 27 H -0.647877 -4.516884 3.377239 0
M  V30 28 H 2.284786 -2.636025 3.306455 0
M  V30 29 H 1.951706 -3.444836 1.677479 0
M  V30 30 H 1.541760 -4.276870 3.281508 0
M  V30 31 H 0.799288 -1.249470 2.219452 0
M  V30 32 H 0.410651 3.217916 -2.197516 0
M  V30 33 H 1.699160 5.343796 -2.148754 0
M  V30 34 H 3.519940 4.236008 1.469356 0
M  V30 35 H 2.261441 2.052469 1.514197 0
M  V30 36 H -1.906981 0.581596 -3.311795 0
M  V30 37 H -3.107212 -3.207249 -1.801663 0
M  V30 38 H -1.612589 -2.896754 0.116156 0
M  V30 END ATOM
M  V30 BEGIN BOND
M  V30 1 1 1 2
M  V30 2 1 2 3
M  V30 3 1 2 4
M  V30 4 1 2 5
M  V30 5 1 5 6
M  V30 6 2 6 7
M  V30 7 1 7 8
M  V30 8 1 8 9
M  V30 9 2 9 10
M  V30 10 1 10 11
M  V30 11 2 11 12
M  V30 12 1 12 13
M  V30 13 2 13 14
M  V30 14 2 8 15
M  V30 15 1 15 16
M  V30 16 2 16 17
M  V30 17 1 17 18
M  V30 18 2 18 19
M  V30 19 1 19 20
M  V30 20 2 20 21
M  V30 21 1 21 6
M  V30 22 1 14 9
M  V30 23 1 21 16
M  V30 24 1 1 22
M  V30 25 1 1 23
M  V30 26 1 1 24
M  V30 27 1 3 25
M  V30 28 1 3 26
M  V30 29 1 3 27
M  V30 30 1 4 28
M  V30 31 1 4 29
M  V30 32 1 4 30
M  V30 33 1 5 31
M  V30 34 1 10 32
M  V30 35 1 11 33
M  V30 36 1 13 34
M  V30 37 1 14 35
M  V30 38 1 17 36
M  V30 39 1 19 37
M  V30 40 1 20 38
M  V30 END BOND
M  V30 END CTAB
M  END
>  <Dataset>  (573) 
ChEMBL_Kinases

>  <Ligand_Instance>  (573) 
nan

>  <PDB_ID>  (573) 
nan

>  <Standardized_SMILES>  (573) 
CC(C)(C)Nc1nc(-c2ccncc2)nc2cnccc12

>  <Name>  (573) 
nan

>  <Pocket>  (573) 
nan

>  <ATP_Site>  (573) 
nan

>  <Peripheral>  (573) 
nan

>  <Num_H_Atoms_ProtBoundConf>  (573) 
nan

>  <Num_Resolved_Atoms>  (573) 
nan

>  <Num_Not_Resolved_Atoms>  (573) 
nan

$$$$
CHEMBL3702203
     RDKit          3D

  0  0  0  0  0  0  0  0  0  0999 V3000
M  V30 BEGIN CTAB
M  V30 COUNTS 64 69 0 0 0
M  V30 BEGIN ATOM
M  V30 1 C 4.193708 1.158305 4.964895 0
M  V30 2 C 3.428181 0.021370 5.611229 0
M  V30 3 C 3.554073 -1.255820 4.805125 0
M  V30 4 N 2.365480 -1.293270 3.952218 0
M  V30 5 C 2.399265 -1.048698 2.554529 0
M  V30 6 C 3.547094 -1.074018 1.795098 0
M  V30 7 C 3.454972 -0.807735 0.440777 0
M  V30 8 C 2.280456 -0.511630 -0.224720 0
M  V30 9 N 2.199412 -0.257497 -1.628017 0
M  V30 10 C 0.919251 0.073010 -2.141465 0
M  V30 11 N 0.823006 1.399636 -2.349890 0
M  V30 12 C -0.311795 1.980245 -2.825454 0
M  V30 13 C -1.353397 1.113037 -3.076470 0
M  V30 14 C -2.641345 1.347557 -3.556401 0
M  V30 15 C -3.304687 2.517917 -3.942864 0
M  V30 16 C -4.626205 2.491905 -4.399685 0
M  V30 17 C -5.238876 1.251525 -4.448364 0
M  V30 18 C -4.577598 0.089055 -4.064359 0
M  V30 19 C -3.272657 0.135256 -3.616293 0
M  V30 20 N -2.445728 -0.851733 -3.197332 0
M  V30 21 C -2.827835 -2.244764 -3.139138 0
M  V30 22 C -1.738448 -3.223871 -3.237442 0
M  V30 23 C -1.509958 -3.717488 -1.841757 0
M  V30 24 C -2.959334 -3.864591 -1.355138 0
M  V30 25 C -3.539034 -2.555736 -1.855259 0
M  V30 26 C -1.296363 -0.233293 -2.878960 0
M  V30 27 N -0.147296 -0.699417 -2.414529 0
M  V30 28 N 1.159065 -0.494657 0.560681 0
M  V30 29 C 1.244629 -0.753163 1.874528 0
M  V30 30 C 1.158880 -1.615567 4.687579 0
M  V30 31 C 1.118113 -0.644951 5.867098 0
M  V30 32 C -0.274997 -0.052482 5.935750 0
M  V30 33 N 2.049994 0.434368 5.749484 0
M  V30 34 H 4.328309 1.979148 5.691904 0
M  V30 35 H 5.202869 0.835646 4.637772 0
M  V30 36 H 3.628534 1.566557 4.105780 0
M  V30 37 H 3.843119 -0.108087 6.631485 0
M  V30 38 H 3.488058 -2.123845 5.486423 0
M  V30 39 H 4.496724 -1.347648 4.263552 0
M  V30 40 H 4.488370 -1.299791 2.250034 0
M  V30 41 H 4.346108 -0.821920 -0.173500 0
M  V30 42 H 3.116439 -0.345027 -2.141177 0
M  V30 43 H -0.433877 3.022780 -3.007101 0
M  V30 44 H -2.737737 3.445357 -3.868533 0
M  V30 45 H -5.061067 3.432277 -4.674770 0
M  V30 46 H -6.258669 1.310935 -4.812228 0
M  V30 47 H -5.160148 -0.829455 -4.146595 0
M  V30 48 H -3.542785 -2.420734 -4.003166 0
M  V30 49 H -2.101527 -4.118202 -3.818970 0
M  V30 50 H -0.817406 -2.874766 -3.737247 0
M  V30 51 H -1.050560 -2.994483 -1.154296 0
M  V30 52 H -1.002858 -4.707052 -1.823867 0
M  V30 53 H -3.038204 -4.006461 -0.276675 0
M  V30 54 H -3.384929 -4.713830 -1.928190 0
M  V30 55 H -3.316276 -1.812025 -1.053387 0
M  V30 56 H -4.625871 -2.709748 -2.000798 0
M  V30 57 H 0.261754 -0.690750 2.314535 0
M  V30 58 H 0.241746 -1.615382 4.106233 0
M  V30 59 H 1.280549 -2.644482 5.107545 0
M  V30 60 H 1.306992 -1.164078 6.828069 0
M  V30 61 H -0.474134 0.420931 4.938309 0
M  V30 62 H -1.039226 -0.841909 6.080266 0
M  V30 63 H -0.326671 0.725685 6.726557 0
M  V30 64 H 1.722814 1.052175 4.980297 0
M  V30 END ATOM
M  V30 BEGIN BOND
M  V30 1 1 1 2
M  V30 2 1 2 3
M  V30 3 1 3 4
M  V30 4 1 4 5
M  V30 5 2 5 6
M  V30 6 1 6 7
M  V30 7 2 7 8
M  V30 8 1 8 9
M  V30 9 1 9 10
M  V30 10 2 10 11
M  V30 11 1 11 12
M  V30 12 2 12 13
M  V30 13 1 13 14
M  V30 14 2 14 15
M  V30 15 1 15 16
M  V30 16 2 16 17
M  V30 17 1 17 18
M  V30 18 2 18 19
M  V30 19 1 19 20
M  V30 20 1 20 21
M  V30 21 1 21 22
M  V30 22 1 22 23
M  V30 23 1 23 24
M  V30 24 1 24 25
M  V30 25 1 20 26
M  V30 26 2 26 27
M  V30 27 1 8 28
M  V30 28 2 28 29
M  V30 29 1 4 30
M  V30 30 1 30 31
M  V30 31 1 31 32
M  V30 32 1 31 33
M  V30 33 1 33 2
M  V30 34 1 29 5
M  V30 35 1 27 10
M  V30 36 1 26 13
M  V30 37 1 19 14
M  V30 38 1 25 21
M  V30 39 1 1 34
M  V30 40 1 1 35
M  V30 41 1 1 36
M  V30 42 1 2 37
M  V30 43 1 3 38
M  V30 44 1 3 39
M  V30 45 1 6 40
M  V30 46 1 7 41
M  V30 47 1 9 42
M  V30 48 1 12 43
M  V30 49 1 15 44
M  V30 50 1 16 45
M  V30 51 1 17 46
M  V30 52 1 18 47
M  V30 53 1 21 48
M  V30 54 1 22 49
M  V30 55 1 22 50
M  V30 56 1 23 51
M  V30 57 1 23 52
M  V30 58 1 24 53
M  V30 59 1 24 54
M  V30 60 1 25 55
M  V30 61 1 25 56
M  V30 62 1 29 57
M  V30 63 1 30 58
M  V30 64 1 30 59
M  V30 65 1 31 60
M  V30 66 1 32 61
M  V30 67 1 32 62
M  V30 68 1 32 63
M  V30 69 1 33 64
M  V30 END BOND
M  V30 END CTAB
M  END
>  <Dataset>  (574) 
ChEMBL_Kinases

>  <Ligand_Instance>  (574) 
nan

>  <PDB_ID>  (574) 
nan

>  <Standardized_SMILES>  (574) 
CC1CN(c2ccc(Nc3ncc4c5ccccc5n(C5CCCC5)c4n3)nc2)CC(C)N1

>  <Name>  (574) 
nan

>  <Pocket>  (574) 
nan

>  <ATP_Site>  (574) 
nan

>  <Peripheral>  (574) 
nan

>  <Num_H_Atoms_ProtBoundConf>  (574) 
nan

>  <Num_Resolved_Atoms>  (574) 
nan

>  <Num_Not_Resolved_Atoms>  (574) 
nan

$$$$
CHEMBL223595
     RDKit          3D

  0  0  0  0  0  0  0  0  0  0999 V3000
M  V30 BEGIN CTAB
M  V30 COUNTS 57 62 0 0 0
M  V30 BEGIN ATOM
M  V30 1 C 6.930488 -7.039753 3.406454 0
M  V30 2 C 5.667791 -6.847725 3.933112 0
M  V30 3 C 4.720080 -6.106541 3.251738 0
M  V30 4 C 5.009652 -5.528768 2.009745 0
M  V30 5 C 4.042381 -4.740744 1.258116 0
M  V30 6 C 3.085387 -3.976784 1.890910 0
M  V30 7 C 2.182722 -3.241222 1.153007 0
M  V30 8 C 2.183095 -3.226056 -0.216335 0
M  V30 9 C 1.385741 -2.573590 -1.120036 0
M  V30 10 C 0.264080 -1.672229 -0.972585 0
M  V30 11 C -0.436844 -1.119259 0.062979 0
M  V30 12 C -1.455152 -0.294793 -0.368310 0
M  V30 13 C -2.383588 0.444855 0.336038 0
M  V30 14 C -3.319119 1.205624 -0.375090 0
M  V30 15 C -4.275825 1.963735 0.456535 0
M  V30 16 N -3.863475 3.273865 0.823267 0
M  V30 17 C -4.780382 4.006353 1.626801 0
M  V30 18 C -5.739602 4.861688 0.848407 0
M  V30 19 C -5.413533 4.975061 -0.599545 0
M  V30 20 C -3.939361 5.006249 -0.918303 0
M  V30 21 C -3.125552 4.023236 -0.126205 0
M  V30 22 C -3.254515 1.168664 -1.765735 0
M  V30 23 C -2.305642 0.411936 -2.419293 0
M  V30 24 C -1.372061 -0.346809 -1.743204 0
M  V30 25 N -0.352734 -1.164009 -2.054203 0
M  V30 26 N 1.896729 -2.972045 -2.296904 0
M  V30 27 N 2.916411 -3.795312 -2.137829 0
M  V30 28 C 3.148882 -3.997205 -0.828925 0
M  V30 29 C 4.066647 -4.744662 -0.120385 0
M  V30 30 C 6.248894 -5.705038 1.470944 0
M  V30 31 C 7.175077 -6.461945 2.195477 0
M  V30 32 H 7.724334 -7.604011 3.875143 0
M  V30 33 H 5.441055 -7.292671 4.892279 0
M  V30 34 H 3.722612 -5.955646 3.669133 0
M  V30 35 H 3.058546 -3.967155 2.961255 0
M  V30 36 H 1.461388 -2.666201 1.696117 0
M  V30 37 H -0.230093 -1.296876 1.095571 0
M  V30 38 H -2.379759 0.430121 1.426485 0
M  V30 39 H -5.249786 2.066879 -0.106005 0
M  V30 40 H -4.519982 1.376604 1.359212 0
M  V30 41 H -4.188873 4.612369 2.353037 0
M  V30 42 H -5.376482 3.293300 2.232413 0
M  V30 43 H -6.788290 4.446624 0.903546 0
M  V30 44 H -5.794552 5.864478 1.319400 0
M  V30 45 H -5.848759 5.922847 -0.985457 0
M  V30 46 H -5.934210 4.171175 -1.197967 0
M  V30 47 H -3.862895 4.800712 -2.018924 0
M  V30 48 H -3.575336 6.048714 -0.787940 0
M  V30 49 H -2.603767 3.339673 -0.822638 0
M  V30 50 H -2.327267 4.598791 0.405836 0
M  V30 51 H -3.990830 1.766896 -2.261716 0
M  V30 52 H -2.273289 0.397622 -3.497156 0
M  V30 53 H -0.174951 -1.295910 -3.074706 0
M  V30 54 H 3.433267 -4.202706 -2.946114 0
M  V30 55 H 4.787753 -5.319219 -0.687639 0
M  V30 56 H 6.500869 -5.268047 0.508726 0
M  V30 57 H 8.144642 -6.568893 1.718553 0
M  V30 END ATOM
M  V30 BEGIN BOND
M  V30 1 2 1 2
M  V30 2 1 2 3
M  V30 3 2 3 4
M  V30 4 1 4 5
M  V30 5 2 5 6
M  V30 6 1 6 7
M  V30 7 2 7 8
M  V30 8 1 8 9
M  V30 9 1 9 10
M  V30 10 2 10 11
M  V30 11 1 11 12
M  V30 12 2 12 13
M  V30 13 1 13 14
M  V30 14 1 14 15
M  V30 15 1 15 16
M  V30 16 1 16 17
M  V30 17 1 17 18
M  V30 18 1 18 19
M  V30 19 1 19 20
M  V30 20 1 20 21
M  V30 21 2 14 22
M  V30 22 1 22 23
M  V30 23 2 23 24
M  V30 24 1 24 25
M  V30 25 2 9 26
M  V30 26 1 26 27
M  V30 27 1 27 28
M  V30 28 2 28 29
M  V30 29 1 4 30
M  V30 30 2 30 31
M  V30 31 1 31 1
M  V30 32 1 29 5
M  V30 33 1 28 8
M  V30 34 1 25 10
M  V30 35 1 24 12
M  V30 36 1 21 16
M  V30 37 1 1 32
M  V30 38 1 2 33
M  V30 39 1 3 34
M  V30 40 1 6 35
M  V30 41 1 7 36
M  V30 42 1 11 37
M  V30 43 1 13 38
M  V30 44 1 15 39
M  V30 45 1 15 40
M  V30 46 1 17 41
M  V30 47 1 17 42
M  V30 48 1 18 43
M  V30 49 1 18 44
M  V30 50 1 19 45
M  V30 51 1 19 46
M  V30 52 1 20 47
M  V30 53 1 20 48
M  V30 54 1 21 49
M  V30 55 1 21 50
M  V30 56 1 22 51
M  V30 57 1 23 52
M  V30 58 1 25 53
M  V30 59 1 27 54
M  V30 60 1 29 55
M  V30 61 1 30 56
M  V30 62 1 31 57
M  V30 END BOND
M  V30 END CTAB
M  END
>  <Dataset>  (575) 
ChEMBL_Kinases

>  <Ligand_Instance>  (575) 
nan

>  <PDB_ID>  (575) 
nan

>  <Standardized_SMILES>  (575) 
c1ccc(-c2ccc3c(-c4cc5cc(CN6CCCCC6)ccc5[nH]4)n[nH]c3c2)cc1

>  <Name>  (575) 
nan

>  <Pocket>  (575) 
nan

>  <ATP_Site>  (575) 
nan

>  <Peripheral>  (575) 
nan

>  <Num_H_Atoms_ProtBoundConf>  (575) 
nan

>  <Num_Resolved_Atoms>  (575) 
nan

>  <Num_Not_Resolved_Atoms>  (575) 
nan

$$$$
CHEMBL4551100
     RDKit          3D

  0  0  0  0  0  0  0  0  0  0999 V3000
M  V30 BEGIN CTAB
M  V30 COUNTS 60 63 0 0 0
M  V30 BEGIN ATOM
M  V30 1 C -1.344496 -1.385679 4.749007 0
M  V30 2 C -0.161349 -1.090406 3.915295 0
M  V30 3 C 0.480850 0.125319 4.044891 0
M  V30 4 C 1.585006 0.527539 3.330707 0
M  V30 5 C 2.114301 -0.359393 2.388779 0
M  V30 6 N 3.257348 0.006379 1.617357 0
M  V30 7 C 3.122828 0.650997 0.330594 0
M  V30 8 O 1.902853 0.798385 0.074684 0
M  V30 9 C 4.508326 0.898158 -0.192958 0
M  V30 10 O 4.435200 1.548831 -1.440203 0
M  V30 11 C 3.845330 2.784301 -1.610957 0
M  V30 12 C 3.272843 3.471077 -0.533712 0
M  V30 13 C 2.666193 4.722052 -0.679120 0
M  V30 14 C 2.678695 5.218738 -1.953966 0
M  V30 15 C 2.081058 6.440951 -2.072275 0
M  V30 16 O 1.521216 7.185040 -1.207000 0
M  V30 17 C 2.010269 7.073083 -3.278631 0
M  V30 18 C 2.569481 6.431634 -4.393439 0
M  V30 19 O 3.119921 5.272175 -4.202805 0
M  V30 20 C 3.219702 4.617947 -3.086436 0
M  V30 21 C 3.798733 3.374909 -2.832681 0
M  V30 22 C 1.515894 -1.589962 2.214132 0
M  V30 23 C 0.416702 -1.908787 2.970654 0
M  V30 24 N -0.226167 -3.188356 2.797962 0
M  V30 25 C -1.244944 -3.031341 1.819075 0
M  V30 26 O -1.210183 -1.794372 1.451072 0
M  V30 27 C -2.190903 -3.976935 1.265034 0
M  V30 28 C -2.132183 -5.299590 1.634914 0
M  V30 29 C -3.110091 -6.062014 1.035439 0
M  V30 30 C -4.096597 -5.681732 0.149925 0
M  V30 31 N -5.062096 -6.543953 -0.407505 0
M  V30 32 C -5.024919 -7.938585 -0.025989 0
M  V30 33 C -6.028926 -5.974021 -1.324805 0
M  V30 34 C -4.052040 -4.307844 -0.149899 0
M  V30 35 C -3.116648 -3.427833 0.387161 0
M  V30 36 H -2.266561 -0.992832 4.224180 0
M  V30 37 H -1.274276 -0.779329 5.666510 0
M  V30 38 H -1.411344 -2.445694 5.017684 0
M  V30 39 H 0.138663 0.878092 4.756725 0
M  V30 40 H 2.066340 1.481163 3.450402 0
M  V30 41 H 4.093487 -0.275026 2.181881 0
M  V30 42 H 5.102820 1.472141 0.536315 0
M  V30 43 H 5.044286 -0.069391 -0.367346 0
M  V30 44 H 3.278084 3.073631 0.487450 0
M  V30 45 H 2.234248 5.223926 0.160177 0
M  V30 46 H 1.589872 8.034317 -3.606625 0
M  V30 47 H 2.673453 6.655293 -5.441430 0
M  V30 48 H 4.218083 2.906537 -3.716101 0
M  V30 49 H 1.898185 -2.318948 1.483083 0
M  V30 50 H -0.164726 -4.182765 3.176763 0
M  V30 51 H -1.397060 -5.687044 2.315151 0
M  V30 52 H -3.143630 -7.139775 1.269717 0
M  V30 53 H -4.978087 -8.072240 1.084820 0
M  V30 54 H -4.062245 -8.342936 -0.437406 0
M  V30 55 H -5.880161 -8.484442 -0.467891 0
M  V30 56 H -5.586075 -5.541662 -2.233160 0
M  V30 57 H -6.622238 -5.193012 -0.782735 0
M  V30 58 H -6.774694 -6.794516 -1.550227 0
M  V30 59 H -4.818674 -3.955075 -0.852965 0
M  V30 60 H -3.122279 -2.382088 0.125596 0
M  V30 END ATOM
M  V30 BEGIN BOND
M  V30 1 1 1 2
M  V30 2 2 2 3
M  V30 3 1 3 4
M  V30 4 2 4 5
M  V30 5 1 5 6
M  V30 6 1 6 7
M  V30 7 2 7 8
M  V30 8 1 7 9
M  V30 9 1 9 10
M  V30 10 1 10 11
M  V30 11 2 11 12
M  V30 12 1 12 13
M  V30 13 2 13 14
M  V30 14 1 14 15
M  V30 15 2 15 16
M  V30 16 1 15 17
M  V30 17 2 17 18
M  V30 18 1 18 19
M  V30 19 1 19 20
M  V30 20 2 20 21
M  V30 21 1 5 22
M  V30 22 2 22 23
M  V30 23 1 23 24
M  V30 24 1 24 25
M  V30 25 2 25 26
M  V30 26 1 25 27
M  V30 27 2 27 28
M  V30 28 1 28 29
M  V30 29 2 29 30
M  V30 30 1 30 31
M  V30 31 1 31 32
M  V30 32 1 31 33
M  V30 33 1 30 34
M  V30 34 2 34 35
M  V30 35 1 23 2
M  V30 36 1 35 27
M  V30 37 1 21 11
M  V30 38 1 20 14
M  V30 39 1 1 36
M  V30 40 1 1 37
M  V30 41 1 1 38
M  V30 42 1 3 39
M  V30 43 1 4 40
M  V30 44 1 6 41
M  V30 45 1 9 42
M  V30 46 1 9 43
M  V30 47 1 12 44
M  V30 48 1 13 45
M  V30 49 1 17 46
M  V30 50 1 18 47
M  V30 51 1 21 48
M  V30 52 1 22 49
M  V30 53 1 24 50
M  V30 54 1 28 51
M  V30 55 1 29 52
M  V30 56 1 32 53
M  V30 57 1 32 54
M  V30 58 1 32 55
M  V30 59 1 33 56
M  V30 60 1 33 57
M  V30 61 1 33 58
M  V30 62 1 34 59
M  V30 63 1 35 60
M  V30 END BOND
M  V30 END CTAB
M  END
>  <Dataset>  (576) 
ChEMBL_Kinases

>  <Ligand_Instance>  (576) 
nan

>  <PDB_ID>  (576) 
nan

>  <Standardized_SMILES>  (576) 
Cc1ccc(NC(=O)COc2ccc3c(=O)ccoc3c2)cc1NC(=O)c1ccc(N(C)C)cc1

>  <Name>  (576) 
nan

>  <Pocket>  (576) 
nan

>  <ATP_Site>  (576) 
nan

>  <Peripheral>  (576) 
nan

>  <Num_H_Atoms_ProtBoundConf>  (576) 
nan

>  <Num_Resolved_Atoms>  (576) 
nan

>  <Num_Not_Resolved_Atoms>  (576) 
nan

$$$$
CHEMBL4526685
     RDKit          3D

  0  0  0  0  0  0  0  0  0  0999 V3000
M  V30 BEGIN CTAB
M  V30 COUNTS 32 34 0 0 0
M  V30 BEGIN ATOM
M  V30 1 O 0.915106 -2.892151 1.473530 0
M  V30 2 C 2.121347 -3.229385 1.420735 0
M  V30 3 N 2.570818 -4.215984 2.344665 0
M  V30 4 C 3.961891 -4.391222 2.045958 0
M  V30 5 S 4.957507 -5.435673 2.838779 0
M  V30 6 N 4.338146 -3.540602 0.978023 0
M  V30 7 C 3.194852 -2.777430 0.545414 0
M  V30 8 C 3.029591 -1.867544 -0.398636 0
M  V30 9 C 1.777375 -1.180734 -0.705917 0
M  V30 10 C 1.167439 -1.011603 -1.930966 0
M  V30 11 C 0.043477 -0.293938 -1.583133 0
M  V30 12 C 0.000732 -0.057366 -0.228196 0
M  V30 13 C -0.972623 0.646064 0.597371 0
M  V30 14 C -0.722545 0.761836 1.947725 0
M  V30 15 C -1.566516 1.401429 2.832244 0
M  V30 16 C -2.733710 1.951458 2.284784 0
M  V30 17 C -2.982228 1.834312 0.933531 0
M  V30 18 C -4.222920 2.435795 0.466891 0
M  V30 19 O -4.980584 3.023272 1.283591 0
M  V30 20 O -4.693956 2.435220 -0.851928 0
M  V30 21 C -2.121557 1.190435 0.080234 0
M  V30 22 O 1.097081 -0.627123 0.260860 0
M  V30 23 H 2.072591 -4.744666 3.098029 0
M  V30 24 H 5.279471 -3.415687 0.512092 0
M  V30 25 H 3.955948 -1.673469 -0.944095 0
M  V30 26 H 1.520278 -1.367048 -2.885903 0
M  V30 27 H -0.722337 0.048650 -2.283884 0
M  V30 28 H 0.165784 0.351246 2.394996 0
M  V30 29 H -1.336516 1.474670 3.893509 0
M  V30 30 H -3.389694 2.455613 3.008979 0
M  V30 31 H -5.684438 2.254961 -1.045711 0
M  V30 32 H -2.341922 1.112364 -0.976198 0
M  V30 END ATOM
M  V30 BEGIN BOND
M  V30 1 2 1 2
M  V30 2 1 2 3
M  V30 3 1 3 4
M  V30 4 2 4 5
M  V30 5 1 4 6
M  V30 6 1 6 7
M  V30 7 2 7 8
M  V30 8 1 8 9
M  V30 9 2 9 10
M  V30 10 1 10 11
M  V30 11 2 11 12
M  V30 12 1 12 13
M  V30 13 2 13 14
M  V30 14 1 14 15
M  V30 15 2 15 16
M  V30 16 1 16 17
M  V30 17 1 17 18
M  V30 18 2 18 19
M  V30 19 1 18 20
M  V30 20 2 17 21
M  V30 21 1 12 22
M  V30 22 1 7 2
M  V30 23 1 22 9
M  V30 24 1 21 13
M  V30 25 1 3 23
M  V30 26 1 6 24
M  V30 27 1 8 25
M  V30 28 1 10 26
M  V30 29 1 11 27
M  V30 30 1 14 28
M  V30 31 1 15 29
M  V30 32 1 16 30
M  V30 33 1 20 31
M  V30 34 1 21 32
M  V30 END BOND
M  V30 END CTAB
M  END
>  <Dataset>  (577) 
ChEMBL_Kinases

>  <Ligand_Instance>  (577) 
nan

>  <PDB_ID>  (577) 
nan

>  <Standardized_SMILES>  (577) 
O=C1NC(=S)N/C1=C/c1ccc(-c2cccc(C(=O)O)c2)o1

>  <Name>  (577) 
nan

>  <Pocket>  (577) 
nan

>  <ATP_Site>  (577) 
nan

>  <Peripheral>  (577) 
nan

>  <Num_H_Atoms_ProtBoundConf>  (577) 
nan

>  <Num_Resolved_Atoms>  (577) 
nan

>  <Num_Not_Resolved_Atoms>  (577) 
nan

$$$$
CHEMBL3702204
     RDKit          3D

  0  0  0  0  0  0  0  0  0  0999 V3000
M  V30 BEGIN CTAB
M  V30 COUNTS 57 62 0 0 0
M  V30 BEGIN ATOM
M  V30 1 O 0.591390 -4.676667 3.966213 0
M  V30 2 C 1.616939 -5.285756 3.242435 0 CFG=2
M  V30 3 C 2.933851 -4.988515 3.960696 0
M  V30 4 C 3.749863 -4.374955 2.815228 0
M  V30 5 N 2.731844 -3.588837 2.145251 0
M  V30 6 C 2.709837 -2.204987 1.834920 0
M  V30 7 C 3.785288 -1.433469 2.194639 0
M  V30 8 C 3.764127 -0.068240 1.888761 0
M  V30 9 C 2.642898 0.394931 1.239367 0
M  V30 10 N 2.535317 1.780880 0.886490 0
M  V30 11 C 1.398679 2.322489 0.212823 0
M  V30 12 N 1.234539 3.606219 -0.146325 0
M  V30 13 C 0.090060 3.969395 -0.784944 0
M  V30 14 C -0.926300 3.088244 -1.090587 0
M  V30 15 C -2.149717 3.115747 -1.694861 0
M  V30 16 C -2.837232 4.176822 -2.261589 0
M  V30 17 C -4.081888 3.927866 -2.816181 0
M  V30 18 C -4.626918 2.643708 -2.803744 0
M  V30 19 C -3.880147 1.637005 -2.219851 0
M  V30 20 C -2.641197 1.820297 -1.653782 0
M  V30 21 N -1.782224 0.991454 -1.053645 0
M  V30 22 C -1.898328 -0.398146 -0.808467 0
M  V30 23 C -2.000489 -1.300641 -1.994167 0
M  V30 24 C -2.059361 -2.654628 -1.269630 0
M  V30 25 C -2.782812 -2.374323 0.046669 0
M  V30 26 C -3.006850 -0.855466 0.078275 0
M  V30 27 C -0.731334 1.800165 -0.715415 0
M  V30 28 N 0.408854 1.459766 -0.083847 0
M  V30 29 N 1.588552 -0.393577 0.893670 0
M  V30 30 C 1.600893 -1.707216 1.184058 0
M  V30 31 C 1.751803 -4.622075 1.887628 0
M  V30 32 H 0.095653 -4.050441 3.352565 0
M  V30 33 H 1.475871 -6.369199 3.111362 0
M  V30 34 H 2.800118 -4.191216 4.703717 0
M  V30 35 H 3.408578 -5.908746 4.336698 0
M  V30 36 H 4.610551 -3.805912 3.166775 0
M  V30 37 H 4.019271 -5.201959 2.115371 0
M  V30 38 H 4.648046 -1.820278 2.700926 0
M  V30 39 H 4.562705 0.595849 2.136119 0
M  V30 40 H 3.290688 2.436593 1.114183 0
M  V30 41 H -0.043423 5.016663 -1.077729 0
M  V30 42 H -2.406292 5.170077 -2.266617 0
M  V30 43 H -4.631927 4.747907 -3.263317 0
M  V30 44 H -5.585233 2.495571 -3.240192 0
M  V30 45 H -4.309773 0.664158 -2.218590 0
M  V30 46 H -0.966238 -0.763270 -0.278032 0
M  V30 47 H -2.907626 -1.249174 -2.582196 0
M  V30 48 H -1.061912 -1.218726 -2.578104 0
M  V30 49 H -0.988093 -2.938011 -1.099847 0
M  V30 50 H -2.574249 -3.409974 -1.886401 0
M  V30 51 H -2.050154 -2.585985 0.870388 0
M  V30 52 H -3.712800 -2.942430 0.119580 0
M  V30 53 H -2.942376 -0.468208 1.117107 0
M  V30 54 H -4.021496 -0.707266 -0.268879 0
M  V30 55 H 0.731768 -2.272747 0.880794 0
M  V30 56 H 2.106035 -5.343786 1.100409 0
M  V30 57 H 0.784388 -4.200732 1.544916 0
M  V30 END ATOM
M  V30 BEGIN BOND
M  V30 1 1 1 2
M  V30 2 1 2 3
M  V30 3 1 3 4
M  V30 4 1 4 5
M  V30 5 1 5 6
M  V30 6 2 6 7
M  V30 7 1 7 8
M  V30 8 2 8 9
M  V30 9 1 9 10
M  V30 10 1 10 11
M  V30 11 2 11 12
M  V30 12 1 12 13
M  V30 13 2 13 14
M  V30 14 1 14 15
M  V30 15 2 15 16
M  V30 16 1 16 17
M  V30 17 2 17 18
M  V30 18 1 18 19
M  V30 19 2 19 20
M  V30 20 1 20 21
M  V30 21 1 21 22
M  V30 22 1 22 23
M  V30 23 1 23 24
M  V30 24 1 24 25
M  V30 25 1 25 26
M  V30 26 1 21 27
M  V30 27 2 27 28
M  V30 28 1 9 29
M  V30 29 2 29 30
M  V30 30 1 5 31
M  V30 31 1 31 2
M  V30 32 1 30 6
M  V30 33 1 28 11
M  V30 34 1 27 14
M  V30 35 1 20 15
M  V30 36 1 26 22
M  V30 37 1 1 32
M  V30 38 1 2 33 CFG=3
M  V30 39 1 3 34
M  V30 40 1 3 35
M  V30 41 1 4 36
M  V30 42 1 4 37
M  V30 43 1 7 38
M  V30 44 1 8 39
M  V30 45 1 10 40
M  V30 46 1 13 41
M  V30 47 1 16 42
M  V30 48 1 17 43
M  V30 49 1 18 44
M  V30 50 1 19 45
M  V30 51 1 22 46
M  V30 52 1 23 47
M  V30 53 1 23 48
M  V30 54 1 24 49
M  V30 55 1 24 50
M  V30 56 1 25 51
M  V30 57 1 25 52
M  V30 58 1 26 53
M  V30 59 1 26 54
M  V30 60 1 30 55
M  V30 61 1 31 56
M  V30 62 1 31 57
M  V30 END BOND
M  V30 END CTAB
M  END
>  <Dataset>  (578) 
ChEMBL_Kinases

>  <Ligand_Instance>  (578) 
nan

>  <PDB_ID>  (578) 
nan

>  <Standardized_SMILES>  (578) 
O[C@@H]1CCN(c2ccc(Nc3ncc4c5ccccc5n(C5CCCC5)c4n3)nc2)C1

>  <Name>  (578) 
nan

>  <Pocket>  (578) 
nan

>  <ATP_Site>  (578) 
nan

>  <Peripheral>  (578) 
nan

>  <Num_H_Atoms_ProtBoundConf>  (578) 
nan

>  <Num_Resolved_Atoms>  (578) 
nan

>  <Num_Not_Resolved_Atoms>  (578) 
nan

$$$$
CHEMBL4550282
     RDKit          3D

  0  0  0  0  0  0  0  0  0  0999 V3000
M  V30 BEGIN CTAB
M  V30 COUNTS 61 64 0 0 0
M  V30 BEGIN ATOM
M  V30 1 C 1.033587 1.482931 5.469892 0
M  V30 2 O 2.104071 0.605305 5.702921 0
M  V30 3 C 2.791887 0.035962 4.644204 0
M  V30 4 C 3.862999 -0.839098 4.868982 0
M  V30 5 C 4.601906 -1.450146 3.840364 0
M  V30 6 C 4.240229 -1.160563 2.558894 0
M  V30 7 C 3.201071 -0.311928 2.292546 0
M  V30 8 C 2.910862 -0.085689 0.850116 0 CFG=1
M  V30 9 C 3.464338 -1.199298 -0.011532 0
M  V30 10 N 1.447552 -0.204878 0.717032 0
M  V30 11 C 0.548539 0.727778 0.115693 0
M  V30 12 O 1.022625 1.781977 -0.380660 0
M  V30 13 C -0.874963 0.440269 0.094588 0
M  V30 14 C -1.679301 1.251654 0.864053 0
M  V30 15 C -3.058590 1.059504 0.940980 0
M  V30 16 C -3.633161 0.031210 0.229192 0
M  V30 17 C -5.080325 -0.102689 0.332994 0
M  V30 18 C -5.796082 -1.089064 -0.341799 0
M  V30 19 C -7.179182 -1.094702 -0.161772 0
M  V30 20 N -7.836673 -0.213865 0.613674 0
M  V30 21 C -7.115029 0.729363 1.253910 0
M  V30 22 N -5.762086 0.762711 1.099527 0
M  V30 23 C -2.866187 -0.807643 -0.555601 0
M  V30 24 C -1.486855 -0.571460 -0.599463 0
M  V30 25 N -0.771159 -1.429175 -1.480064 0
M  V30 26 C -0.453581 -0.866547 -2.804310 0
M  V30 27 C -0.498672 -2.101164 -3.698947 0
M  V30 28 C 0.215641 -3.086259 -2.805675 0 CFG=1
M  V30 29 C 1.698204 -2.839749 -3.037686 0
M  V30 30 N 2.559823 -3.673921 -2.266551 0
M  V30 31 C -0.251081 -2.749896 -1.432113 0
M  V30 32 C 2.479815 0.282972 3.296890 0
M  V30 33 H 0.304010 1.081311 4.739918 0
M  V30 34 H 0.556754 1.677710 6.463815 0
M  V30 35 H 1.408439 2.434631 5.046022 0
M  V30 36 H 4.083337 -1.013348 5.924928 0
M  V30 37 H 5.386619 -2.090288 4.221087 0
M  V30 38 H 4.831909 -1.650549 1.799555 0
M  V30 39 H 3.310114 0.845828 0.461128 0
M  V30 40 H 3.328923 -2.201989 0.434819 0
M  V30 41 H 2.871483 -1.221804 -0.951161 0
M  V30 42 H 4.504753 -1.073808 -0.306445 0
M  V30 43 H 1.050093 -1.080947 1.118389 0
M  V30 44 H -1.244427 2.077965 1.439652 0
M  V30 45 H -3.621711 1.747913 1.572794 0
M  V30 46 H -5.312237 -1.807529 -0.967449 0
M  V30 47 H -7.732888 -1.857996 -0.685872 0
M  V30 48 H -7.471747 1.519621 1.916619 0
M  V30 49 H -3.311461 -1.616769 -1.114317 0
M  V30 50 H -1.276967 -0.205893 -3.155486 0
M  V30 51 H 0.489912 -0.329190 -2.841700 0
M  V30 52 H -1.547677 -2.447448 -3.818495 0
M  V30 53 H 0.047313 -1.959172 -4.629342 0
M  V30 54 H -0.043429 -4.146378 -3.088865 0
M  V30 55 H 1.894668 -1.763967 -3.008807 0
M  V30 56 H 1.855202 -3.126683 -4.116273 0
M  V30 57 H 2.102248 -4.095270 -1.426692 0
M  V30 58 H 3.493975 -3.247866 -2.074643 0
M  V30 59 H -1.030418 -3.498040 -1.139814 0
M  V30 60 H 0.549637 -2.880938 -0.660374 0
M  V30 61 H 1.655534 0.956377 3.072157 0
M  V30 END ATOM
M  V30 BEGIN BOND
M  V30 1 1 1 2
M  V30 2 1 2 3
M  V30 3 2 3 4
M  V30 4 1 4 5
M  V30 5 2 5 6
M  V30 6 1 6 7
M  V30 7 1 7 8
M  V30 8 1 8 9
M  V30 9 1 8 10
M  V30 10 1 10 11
M  V30 11 2 11 12
M  V30 12 1 11 13
M  V30 13 2 13 14
M  V30 14 1 14 15
M  V30 15 2 15 16
M  V30 16 1 16 17
M  V30 17 2 17 18
M  V30 18 1 18 19
M  V30 19 2 19 20
M  V30 20 1 20 21
M  V30 21 2 21 22
M  V30 22 1 16 23
M  V30 23 2 23 24
M  V30 24 1 24 25
M  V30 25 1 25 26
M  V30 26 1 26 27
M  V30 27 1 27 28
M  V30 28 1 28 29
M  V30 29 1 29 30
M  V30 30 1 28 31
M  V30 31 2 7 32
M  V30 32 1 32 3
M  V30 33 1 24 13
M  V30 34 1 31 25
M  V30 35 1 22 17
M  V30 36 1 1 33
M  V30 37 1 1 34
M  V30 38 1 1 35
M  V30 39 1 4 36
M  V30 40 1 5 37
M  V30 41 1 6 38
M  V30 42 1 8 39 CFG=3
M  V30 43 1 9 40
M  V30 44 1 9 41
M  V30 45 1 9 42
M  V30 46 1 10 43
M  V30 47 1 14 44
M  V30 48 1 15 45
M  V30 49 1 18 46
M  V30 50 1 19 47
M  V30 51 1 21 48
M  V30 52 1 23 49
M  V30 53 1 26 50
M  V30 54 1 26 51
M  V30 55 1 27 52
M  V30 56 1 27 53
M  V30 57 1 28 54 CFG=3
M  V30 58 1 29 55
M  V30 59 1 29 56
M  V30 60 1 30 57
M  V30 61 1 30 58
M  V30 62 1 31 59
M  V30 63 1 31 60
M  V30 64 1 32 61
M  V30 END BOND
M  V30 END CTAB
M  END
>  <Dataset>  (579) 
ChEMBL_Kinases

>  <Ligand_Instance>  (579) 
nan

>  <PDB_ID>  (579) 
nan

>  <Standardized_SMILES>  (579) 
COc1cccc([C@@H](C)NC(=O)c2ccc(-c3ccncn3)cc2N2CC[C@@H](CN)C2)c1

>  <Name>  (579) 
nan

>  <Pocket>  (579) 
nan

>  <ATP_Site>  (579) 
nan

>  <Peripheral>  (579) 
nan

>  <Num_H_Atoms_ProtBoundConf>  (579) 
nan

>  <Num_Resolved_Atoms>  (579) 
nan

>  <Num_Not_Resolved_Atoms>  (579) 
nan

$$$$
CHEMBL3702205
     RDKit          3D

  0  0  0  0  0  0  0  0  0  0999 V3000
M  V30 BEGIN CTAB
M  V30 COUNTS 57 62 0 0 0
M  V30 BEGIN ATOM
M  V30 1 O -6.631320 -2.250460 4.417032 0
M  V30 2 C -6.404722 -1.704930 3.138538 0 CFG=1
M  V30 3 C -5.859301 -0.319865 3.245029 0
M  V30 4 C -4.374500 -0.508526 2.990745 0
M  V30 5 N -4.306533 -1.592893 2.048263 0
M  V30 6 C -3.355474 -1.785996 1.010083 0
M  V30 7 C -2.326178 -0.901423 0.775280 0
M  V30 8 C -1.454146 -1.176762 -0.256391 0
M  V30 9 C -1.516833 -2.272002 -1.088319 0
M  V30 10 N -0.644797 -2.574009 -2.141526 0
M  V30 11 C 0.482296 -1.832181 -2.582384 0
M  V30 12 N 1.215301 -2.272371 -3.619281 0
M  V30 13 C 2.291382 -1.659421 -4.117496 0
M  V30 14 C 2.718858 -0.478552 -3.553089 0
M  V30 15 C 3.766434 0.375363 -3.828823 0
M  V30 16 C 4.741700 0.286759 -4.804089 0
M  V30 17 C 5.670548 1.329647 -4.816096 0
M  V30 18 C 5.599297 2.373714 -3.900954 0
M  V30 19 C 4.594722 2.398484 -2.950474 0
M  V30 20 C 3.651358 1.389911 -2.897108 0
M  V30 21 N 2.588616 1.133846 -2.121077 0
M  V30 22 C 2.139629 1.964495 -1.029594 0
M  V30 23 C 2.037602 1.281846 0.288196 0
M  V30 24 C 0.870371 1.951390 1.007116 0
M  V30 25 C 0.294486 2.961998 0.034340 0
M  V30 26 C 0.696850 2.394303 -1.292367 0
M  V30 27 C 1.982038 -0.010221 -2.489771 0
M  V30 28 N 0.913295 -0.682035 -2.046244 0
M  V30 29 N -2.540714 -3.096835 -0.809995 0
M  V30 30 C -3.420600 -2.882836 0.179100 0
M  V30 31 C -5.405586 -2.486178 2.342713 0
M  V30 32 H -6.103892 -1.828847 5.120235 0
M  V30 33 H -7.425968 -1.714870 2.656213 0
M  V30 34 H -6.256848 0.395111 2.493708 0
M  V30 35 H -6.075252 0.071237 4.262185 0
M  V30 36 H -3.931968 0.435704 2.642695 0
M  V30 37 H -3.837632 -0.767321 3.944555 0
M  V30 38 H -2.246241 -0.041059 1.400372 0
M  V30 39 H -0.686096 -0.456967 -0.383082 0
M  V30 40 H -0.841415 -3.452876 -2.673852 0
M  V30 41 H 2.799067 -2.101333 -4.947079 0
M  V30 42 H 4.783665 -0.525595 -5.503656 0
M  V30 43 H 6.464116 1.338888 -5.543440 0
M  V30 44 H 6.351505 3.154244 -3.962768 0
M  V30 45 H 4.545828 3.215055 -2.241050 0
M  V30 46 H 2.715805 2.901202 -0.954655 0
M  V30 47 H 1.867046 0.193864 0.226116 0
M  V30 48 H 2.947436 1.538986 0.870356 0
M  V30 49 H 1.183281 2.531329 1.890085 0
M  V30 50 H 0.116628 1.214542 1.335157 0
M  V30 51 H -0.797742 3.104673 0.156195 0
M  V30 52 H 0.854435 3.928528 0.137034 0
M  V30 53 H 0.048683 1.516095 -1.534552 0
M  V30 54 H 0.724889 3.132068 -2.115779 0
M  V30 55 H -4.231166 -3.599696 0.347538 0
M  V30 56 H -5.050277 -3.394413 2.889886 0
M  V30 57 H -5.892251 -2.811845 1.389781 0
M  V30 END ATOM
M  V30 BEGIN BOND
M  V30 1 1 1 2
M  V30 2 1 2 3
M  V30 3 1 3 4
M  V30 4 1 4 5
M  V30 5 1 5 6
M  V30 6 2 6 7
M  V30 7 1 7 8
M  V30 8 2 8 9
M  V30 9 1 9 10
M  V30 10 1 10 11
M  V30 11 2 11 12
M  V30 12 1 12 13
M  V30 13 2 13 14
M  V30 14 1 14 15
M  V30 15 2 15 16
M  V30 16 1 16 17
M  V30 17 2 17 18
M  V30 18 1 18 19
M  V30 19 2 19 20
M  V30 20 1 20 21
M  V30 21 1 21 22
M  V30 22 1 22 23
M  V30 23 1 23 24
M  V30 24 1 24 25
M  V30 25 1 25 26
M  V30 26 1 21 27
M  V30 27 2 27 28
M  V30 28 1 9 29
M  V30 29 2 29 30
M  V30 30 1 5 31
M  V30 31 1 31 2
M  V30 32 1 30 6
M  V30 33 1 28 11
M  V30 34 1 27 14
M  V30 35 1 20 15
M  V30 36 1 26 22
M  V30 37 1 1 32
M  V30 38 1 2 33 CFG=3
M  V30 39 1 3 34
M  V30 40 1 3 35
M  V30 41 1 4 36
M  V30 42 1 4 37
M  V30 43 1 7 38
M  V30 44 1 8 39
M  V30 45 1 10 40
M  V30 46 1 13 41
M  V30 47 1 16 42
M  V30 48 1 17 43
M  V30 49 1 18 44
M  V30 50 1 19 45
M  V30 51 1 22 46
M  V30 52 1 23 47
M  V30 53 1 23 48
M  V30 54 1 24 49
M  V30 55 1 24 50
M  V30 56 1 25 51
M  V30 57 1 25 52
M  V30 58 1 26 53
M  V30 59 1 26 54
M  V30 60 1 30 55
M  V30 61 1 31 56
M  V30 62 1 31 57
M  V30 END BOND
M  V30 END CTAB
M  END
>  <Dataset>  (580) 
ChEMBL_Kinases

>  <Ligand_Instance>  (580) 
nan

>  <PDB_ID>  (580) 
nan

>  <Standardized_SMILES>  (580) 
O[C@H]1CCN(c2ccc(Nc3ncc4c5ccccc5n(C5CCCC5)c4n3)nc2)C1

>  <Name>  (580) 
nan

>  <Pocket>  (580) 
nan

>  <ATP_Site>  (580) 
nan

>  <Peripheral>  (580) 
nan

>  <Num_H_Atoms_ProtBoundConf>  (580) 
nan

>  <Num_Resolved_Atoms>  (580) 
nan

>  <Num_Not_Resolved_Atoms>  (580) 
nan

$$$$
CHEMBL3702206
     RDKit          3D

  0  0  0  0  0  0  0  0  0  0999 V3000
M  V30 BEGIN CTAB
M  V30 COUNTS 63 68 0 0 0
M  V30 BEGIN ATOM
M  V30 1 C 0.986690 -3.498410 3.924022 0
M  V30 2 C 1.638778 -2.795234 5.094084 0
M  V30 3 C 2.823979 -1.972206 4.658492 0
M  V30 4 N 2.270673 -0.859607 3.931094 0
M  V30 5 C 2.425636 -0.731597 2.524523 0
M  V30 6 C 1.648452 0.161716 1.775141 0
M  V30 7 C 1.884474 0.204582 0.395218 0
M  V30 8 C 2.848468 -0.603649 -0.213523 0
M  V30 9 N 3.015445 -0.536288 -1.641094 0
M  V30 10 C 2.124369 0.355747 -2.302653 0
M  V30 11 N 2.176145 1.553295 -2.919581 0
M  V30 12 C 1.074462 2.120349 -3.439325 0
M  V30 13 C -0.145405 1.483231 -3.351656 0
M  V30 14 C -1.386396 1.863872 -3.801173 0
M  V30 15 C -1.884974 2.957250 -4.476229 0
M  V30 16 C -3.249055 2.977631 -4.761768 0
M  V30 17 C -4.060433 1.930409 -4.374266 0
M  V30 18 C -3.538021 0.846537 -3.699301 0
M  V30 19 C -2.194437 0.819310 -3.414685 0
M  V30 20 N -1.534230 -0.169704 -2.762280 0
M  V30 21 C -1.831393 -1.402961 -2.163612 0
M  V30 22 C -2.032188 -1.382621 -0.668645 0
M  V30 23 C -2.335952 -2.856030 -0.409992 0
M  V30 24 C -2.707224 -3.466500 -1.759593 0
M  V30 25 C -2.989552 -2.202041 -2.616370 0
M  V30 26 C -0.231011 0.280822 -2.737861 0
M  V30 27 N 0.922526 -0.210609 -2.247702 0
M  V30 28 N 3.545394 -1.427448 0.584618 0
M  V30 29 N 3.330465 -1.474578 1.882392 0
M  V30 30 C 1.601580 0.010850 4.828555 0
M  V30 31 C 0.711070 -0.654905 5.821315 0
M  V30 32 C -0.725533 -0.210652 5.628186 0
M  V30 33 N 0.749565 -2.054709 5.891990 0
M  V30 34 H 0.934753 -2.866256 3.030107 0
M  V30 35 H 1.593558 -4.407334 3.707513 0
M  V30 36 H -0.014636 -3.868006 4.264824 0
M  V30 37 H 2.071928 -3.609396 5.746677 0
M  V30 38 H 3.366238 -1.633772 5.549521 0
M  V30 39 H 3.469652 -2.602065 3.990557 0
M  V30 40 H 0.903358 0.785213 2.245358 0
M  V30 41 H 1.274903 0.895892 -0.147411 0
M  V30 42 H 3.749830 -1.123165 -2.081856 0
M  V30 43 H 1.211130 3.073170 -3.912742 0
M  V30 44 H -1.216546 3.754861 -4.760125 0
M  V30 45 H -3.648674 3.817412 -5.282984 0
M  V30 46 H -5.108801 2.019257 -4.630920 0
M  V30 47 H -4.214883 0.060653 -3.421642 0
M  V30 48 H -0.948683 -2.119541 -2.285875 0
M  V30 49 H -1.037909 -1.164430 -0.228674 0
M  V30 50 H -2.793010 -0.700347 -0.306873 0
M  V30 51 H -1.456926 -3.371414 0.038455 0
M  V30 52 H -3.245177 -2.890842 0.216072 0
M  V30 53 H -1.837489 -3.981230 -2.209978 0
M  V30 54 H -3.610438 -4.074378 -1.667822 0
M  V30 55 H -2.992530 -2.452373 -3.675788 0
M  V30 56 H -3.987319 -1.900322 -2.235499 0
M  V30 57 H 2.409959 0.609575 5.345498 0
M  V30 58 H 1.033818 0.774973 4.259222 0
M  V30 59 H 0.996627 -0.271736 6.847282 0
M  V30 60 H -0.745607 0.516532 4.799245 0
M  V30 61 H -1.376769 -1.058905 5.350544 0
M  V30 62 H -1.153278 0.290288 6.523068 0
M  V30 63 H -0.214913 -2.490735 5.776211 0
M  V30 END ATOM
M  V30 BEGIN BOND
M  V30 1 1 1 2
M  V30 2 1 2 3
M  V30 3 1 3 4
M  V30 4 1 4 5
M  V30 5 2 5 6
M  V30 6 1 6 7
M  V30 7 2 7 8
M  V30 8 1 8 9
M  V30 9 1 9 10
M  V30 10 2 10 11
M  V30 11 1 11 12
M  V30 12 2 12 13
M  V30 13 1 13 14
M  V30 14 2 14 15
M  V30 15 1 15 16
M  V30 16 2 16 17
M  V30 17 1 17 18
M  V30 18 2 18 19
M  V30 19 1 19 20
M  V30 20 1 20 21
M  V30 21 1 21 22
M  V30 22 1 22 23
M  V30 23 1 23 24
M  V30 24 1 24 25
M  V30 25 1 20 26
M  V30 26 2 26 27
M  V30 27 1 8 28
M  V30 28 2 28 29
M  V30 29 1 4 30
M  V30 30 1 30 31
M  V30 31 1 31 32
M  V30 32 1 31 33
M  V30 33 1 33 2
M  V30 34 1 29 5
M  V30 35 1 27 10
M  V30 36 1 26 13
M  V30 37 1 19 14
M  V30 38 1 25 21
M  V30 39 1 1 34
M  V30 40 1 1 35
M  V30 41 1 1 36
M  V30 42 1 2 37
M  V30 43 1 3 38
M  V30 44 1 3 39
M  V30 45 1 6 40
M  V30 46 1 7 41
M  V30 47 1 9 42
M  V30 48 1 12 43
M  V30 49 1 15 44
M  V30 50 1 16 45
M  V30 51 1 17 46
M  V30 52 1 18 47
M  V30 53 1 21 48
M  V30 54 1 22 49
M  V30 55 1 22 50
M  V30 56 1 23 51
M  V30 57 1 23 52
M  V30 58 1 24 53
M  V30 59 1 24 54
M  V30 60 1 25 55
M  V30 61 1 25 56
M  V30 62 1 30 57
M  V30 63 1 30 58
M  V30 64 1 31 59
M  V30 65 1 32 60
M  V30 66 1 32 61
M  V30 67 1 32 62
M  V30 68 1 33 63
M  V30 END BOND
M  V30 END CTAB
M  END
>  <Dataset>  (581) 
ChEMBL_Kinases

>  <Ligand_Instance>  (581) 
nan

>  <PDB_ID>  (581) 
nan

>  <Standardized_SMILES>  (581) 
CC1CN(c2ccc(Nc3ncc4c5ccccc5n(C5CCCC5)c4n3)nn2)CC(C)N1

>  <Name>  (581) 
nan

>  <Pocket>  (581) 
nan

>  <ATP_Site>  (581) 
nan

>  <Peripheral>  (581) 
nan

>  <Num_H_Atoms_ProtBoundConf>  (581) 
nan

>  <Num_Resolved_Atoms>  (581) 
nan

>  <Num_Not_Resolved_Atoms>  (581) 
nan

$$$$
CHEMBL4549215
     RDKit          3D

  0  0  0  0  0  0  0  0  0  0999 V3000
M  V30 BEGIN CTAB
M  V30 COUNTS 69 72 0 0 0
M  V30 BEGIN ATOM
M  V30 1 C 1.132641 -3.577414 4.255736 0
M  V30 2 C 1.180264 -2.764744 3.014074 0
M  V30 3 C 2.260855 -1.956409 2.707772 0
M  V30 4 C 2.302621 -1.200787 1.551166 0
M  V30 5 C 1.236034 -1.252725 0.674776 0
M  V30 6 C 1.107608 -0.530651 -0.583354 0
M  V30 7 O 0.145334 -0.571744 -1.379710 0
M  V30 8 N 2.140133 0.332424 -1.025189 0
M  V30 9 C 2.111783 1.092542 -2.254831 0 CFG=1
M  V30 10 C 2.138465 2.572379 -2.040037 0
M  V30 11 C 2.103719 3.252149 -3.393806 0
M  V30 12 C 2.121757 4.760083 -3.270243 0
M  V30 13 C 3.319039 5.315095 -2.582163 0
M  V30 14 C 3.089634 6.795189 -2.365314 0
M  V30 15 C 1.922794 7.076442 -1.453404 0
M  V30 16 C 0.975014 5.905550 -1.338898 0
M  V30 17 C 0.818339 5.266316 -2.684153 0
M  V30 18 C 3.139619 0.608431 -3.203050 0
M  V30 19 N 3.728073 0.750617 -4.474562 0
M  V30 20 O 3.852879 -0.337014 -2.800512 0
M  V30 21 C 0.160792 -2.065411 0.992735 0
M  V30 22 C 0.097300 -2.838527 2.157587 0
M  V30 23 N -1.051412 -3.654071 2.415330 0
M  V30 24 C -1.075595 -4.994236 1.940867 0
M  V30 25 O -0.095500 -5.459241 1.299343 0
M  V30 26 C -2.306859 -5.733047 2.266921 0
M  V30 27 C -3.455008 -5.377777 2.956436 0
M  V30 28 C -4.302175 -6.473428 2.963630 0
M  V30 29 C -5.620932 -6.501173 3.594369 0
M  V30 30 C -6.157841 -5.409335 4.259194 0
M  V30 31 C -7.408574 -5.527563 4.823786 0
M  V30 32 C -8.128850 -6.722032 4.732479 0
M  V30 33 C -7.587835 -7.821712 4.062797 0
M  V30 34 C -6.329510 -7.689091 3.499788 0
M  V30 35 N -3.656062 -7.451822 2.288101 0
M  V30 36 N -2.480119 -7.022335 1.874971 0
M  V30 37 H 1.381703 -4.635509 4.089640 0
M  V30 38 H 0.186871 -3.449387 4.830073 0
M  V30 39 H 1.917156 -3.145267 4.941645 0
M  V30 40 H 3.118915 -1.896303 3.384334 0
M  V30 41 H 3.119465 -0.552869 1.260502 0
M  V30 42 H 3.022280 0.493905 -0.489557 0
M  V30 43 H 1.128625 0.863919 -2.741140 0
M  V30 44 H 3.112182 2.915741 -1.579014 0
M  V30 45 H 1.279396 2.821969 -1.417918 0
M  V30 46 H 1.199503 2.984321 -3.963406 0
M  V30 47 H 2.964917 2.944349 -4.022233 0
M  V30 48 H 2.151755 5.147703 -4.320475 0
M  V30 49 H 4.212450 5.222508 -3.237006 0
M  V30 50 H 3.582292 4.893562 -1.616543 0
M  V30 51 H 4.004323 7.175678 -1.823756 0
M  V30 52 H 3.038262 7.324641 -3.330272 0
M  V30 53 H 1.372761 7.948291 -1.896389 0
M  V30 54 H 2.235681 7.368899 -0.426146 0
M  V30 55 H 1.228775 5.200289 -0.526328 0
M  V30 56 H -0.021062 6.316885 -1.073930 0
M  V30 57 H 0.079212 4.419046 -2.627481 0
M  V30 58 H 0.311242 6.010025 -3.348091 0
M  V30 59 H 4.630505 1.290691 -4.639923 0
M  V30 60 H 3.404951 0.381044 -5.395163 0
M  V30 61 H -0.719338 -2.149812 0.334708 0
M  V30 62 H -1.776995 -3.131728 2.954430 0
M  V30 63 H -3.581727 -4.409567 3.376455 0
M  V30 64 H -5.591422 -4.489176 4.323839 0
M  V30 65 H -7.824161 -4.677036 5.340655 0
M  V30 66 H -9.111189 -6.830283 5.170390 0
M  V30 67 H -8.107235 -8.752692 3.971575 0
M  V30 68 H -5.925898 -8.551250 2.985210 0
M  V30 69 H -1.843782 -7.653291 1.333010 0
M  V30 END ATOM
M  V30 BEGIN BOND
M  V30 1 1 1 2
M  V30 2 2 2 3
M  V30 3 1 3 4
M  V30 4 2 4 5
M  V30 5 1 5 6
M  V30 6 2 6 7
M  V30 7 1 6 8
M  V30 8 1 8 9
M  V30 9 1 9 10
M  V30 10 1 10 11
M  V30 11 1 11 12
M  V30 12 1 12 13
M  V30 13 1 13 14
M  V30 14 1 14 15
M  V30 15 1 15 16
M  V30 16 1 16 17
M  V30 17 1 9 18
M  V30 18 1 18 19
M  V30 19 2 18 20
M  V30 20 1 5 21
M  V30 21 2 21 22
M  V30 22 1 22 23
M  V30 23 1 23 24
M  V30 24 2 24 25
M  V30 25 1 24 26
M  V30 26 2 26 27
M  V30 27 1 27 28
M  V30 28 1 28 29
M  V30 29 2 29 30
M  V30 30 1 30 31
M  V30 31 2 31 32
M  V30 32 1 32 33
M  V30 33 2 33 34
M  V30 34 2 28 35
M  V30 35 1 35 36
M  V30 36 1 22 2
M  V30 37 1 36 26
M  V30 38 1 17 12
M  V30 39 1 34 29
M  V30 40 1 1 37
M  V30 41 1 1 38
M  V30 42 1 1 39
M  V30 43 1 3 40
M  V30 44 1 4 41
M  V30 45 1 8 42
M  V30 46 1 9 43 CFG=3
M  V30 47 1 10 44
M  V30 48 1 10 45
M  V30 49 1 11 46
M  V30 50 1 11 47
M  V30 51 1 12 48
M  V30 52 1 13 49
M  V30 53 1 13 50
M  V30 54 1 14 51
M  V30 55 1 14 52
M  V30 56 1 15 53
M  V30 57 1 15 54
M  V30 58 1 16 55
M  V30 59 1 16 56
M  V30 60 1 17 57
M  V30 61 1 17 58
M  V30 62 1 19 59
M  V30 63 1 19 60
M  V30 64 1 21 61
M  V30 65 1 23 62
M  V30 66 1 27 63
M  V30 67 1 30 64
M  V30 68 1 31 65
M  V30 69 1 32 66
M  V30 70 1 33 67
M  V30 71 1 34 68
M  V30 72 1 36 69
M  V30 END BOND
M  V30 END CTAB
M  END
>  <Dataset>  (582) 
ChEMBL_Kinases

>  <Ligand_Instance>  (582) 
nan

>  <PDB_ID>  (582) 
nan

>  <Standardized_SMILES>  (582) 
Cc1ccc(C(=O)N[C@@H](CCC2CCCCC2)C(N)=O)cc1NC(=O)c1cc(-c2ccccc2)n[nH]1

>  <Name>  (582) 
nan

>  <Pocket>  (582) 
nan

>  <ATP_Site>  (582) 
nan

>  <Peripheral>  (582) 
nan

>  <Num_H_Atoms_ProtBoundConf>  (582) 
nan

>  <Num_Resolved_Atoms>  (582) 
nan

>  <Num_Not_Resolved_Atoms>  (582) 
nan

$$$$
CHEMBL225088
     RDKit          3D

  0  0  0  0  0  0  0  0  0  0999 V3000
M  V30 BEGIN CTAB
M  V30 COUNTS 72 74 0 0 0
M  V30 BEGIN ATOM
M  V30 1 C 5.051648 -1.513820 4.232195 0
M  V30 2 O 3.933166 -0.878214 4.792258 0
M  V30 3 N 3.287154 -0.121192 3.872960 0
M  V30 4 C 3.656234 1.238273 3.695786 0
M  V30 5 O 4.590839 1.596270 4.455110 0
M  V30 6 C 3.076249 2.179492 2.766453 0
M  V30 7 C 3.667782 3.435328 2.738633 0
M  V30 8 C 3.153816 4.365287 1.864707 0
M  V30 9 C 2.093790 4.099837 1.033038 0
M  V30 10 C 1.605323 5.156966 0.125088 0
M  V30 11 C 1.476435 2.842535 1.039312 0
M  V30 12 N 0.396186 2.567644 0.170688 0
M  V30 13 C -0.409328 1.404039 0.063846 0
M  V30 14 N -1.311325 1.321165 -0.930394 0
M  V30 15 C -2.124650 0.272323 -1.104663 0
M  V30 16 N -3.054316 0.254465 -2.179927 0
M  V30 17 C -3.099047 1.385839 -3.083833 0
M  V30 18 C -3.926263 -0.908582 -2.328255 0
M  V30 19 C -3.622829 -1.731667 -3.538786 0
M  V30 20 C -4.610393 -2.903939 -3.557298 0
M  V30 21 C -3.821019 -1.006274 -4.840617 0
M  V30 22 C -2.253354 -2.361476 -3.489248 0
M  V30 23 N -2.027602 -0.747453 -0.234966 0
M  V30 24 C -1.150661 -0.741090 0.787272 0
M  V30 25 N -1.108635 -1.852319 1.667964 0
M  V30 26 C -0.371136 -1.815194 2.899967 0
M  V30 27 C 0.543397 -2.963438 3.135217 0
M  V30 28 C 0.977337 -3.653782 1.863971 0
M  V30 29 N -0.023033 -4.556943 1.357651 0
M  V30 30 C 0.557251 -5.686505 0.686558 0
M  V30 31 C -0.885026 -3.863222 0.419996 0
M  V30 32 C -1.850024 -3.022781 1.246154 0
M  V30 33 N -0.373747 0.347207 0.888631 0
M  V30 34 C 2.019730 1.934430 1.929842 0
M  V30 35 H 6.002793 -1.037635 4.545251 0
M  V30 36 H 4.939882 -1.467467 3.119677 0
M  V30 37 H 5.098264 -2.585741 4.548852 0
M  V30 38 H 2.518494 -0.483711 3.270265 0
M  V30 39 H 4.492881 3.709505 3.355997 0
M  V30 40 H 3.601562 5.344569 1.829808 0
M  V30 41 H 2.349286 5.987592 0.078851 0
M  V30 42 H 0.623648 5.566053 0.423804 0
M  V30 43 H 1.583252 4.738602 -0.918711 0
M  V30 44 H 0.163036 3.349114 -0.488450 0
M  V30 45 H -3.131659 2.293006 -2.411188 0
M  V30 46 H -4.054804 1.423374 -3.648961 0
M  V30 47 H -2.220699 1.442379 -3.755181 0
M  V30 48 H -5.004696 -0.633233 -2.365380 0
M  V30 49 H -3.827174 -1.573376 -1.448029 0
M  V30 50 H -4.744365 -3.293132 -4.584418 0
M  V30 51 H -5.553623 -2.514277 -3.120075 0
M  V30 52 H -4.237036 -3.657499 -2.848693 0
M  V30 53 H -4.811342 -0.499595 -4.861713 0
M  V30 54 H -3.886645 -1.789814 -5.649550 0
M  V30 55 H -2.976603 -0.365283 -5.133115 0
M  V30 56 H -2.171519 -3.041609 -2.600111 0
M  V30 57 H -2.155902 -3.018045 -4.377202 0
M  V30 58 H -1.429681 -1.646479 -3.523159 0
M  V30 59 H -1.144817 -1.815012 3.720073 0
M  V30 60 H 0.191926 -0.872513 3.009282 0
M  V30 61 H 1.408620 -2.672261 3.764051 0
M  V30 62 H -0.002347 -3.735057 3.727679 0
M  V30 63 H 1.913003 -4.249986 2.021985 0
M  V30 64 H 1.215664 -2.870168 1.121485 0
M  V30 65 H 0.870212 -6.509006 1.351212 0
M  V30 66 H 1.458587 -5.370625 0.083476 0
M  V30 67 H -0.161601 -6.044219 -0.078632 0
M  V30 68 H -1.436819 -4.566593 -0.236721 0
M  V30 69 H -0.305058 -3.142272 -0.205104 0
M  V30 70 H -2.257672 -3.603979 2.096114 0
M  V30 71 H -2.711588 -2.737061 0.609808 0
M  V30 72 H 1.612860 0.950107 2.002052 0
M  V30 END ATOM
M  V30 BEGIN BOND
M  V30 1 1 1 2
M  V30 2 1 2 3
M  V30 3 1 3 4
M  V30 4 2 4 5
M  V30 5 1 4 6
M  V30 6 2 6 7
M  V30 7 1 7 8
M  V30 8 2 8 9
M  V30 9 1 9 10
M  V30 10 1 9 11
M  V30 11 1 11 12
M  V30 12 1 12 13
M  V30 13 2 13 14
M  V30 14 1 14 15
M  V30 15 1 15 16
M  V30 16 1 16 17
M  V30 17 1 16 18
M  V30 18 1 18 19
M  V30 19 1 19 20
M  V30 20 1 19 21
M  V30 21 1 19 22
M  V30 22 2 15 23
M  V30 23 1 23 24
M  V30 24 1 24 25
M  V30 25 1 25 26
M  V30 26 1 26 27
M  V30 27 1 27 28
M  V30 28 1 28 29
M  V30 29 1 29 30
M  V30 30 1 29 31
M  V30 31 1 31 32
M  V30 32 2 24 33
M  V30 33 2 11 34
M  V30 34 1 34 6
M  V30 35 1 33 13
M  V30 36 1 32 25
M  V30 37 1 1 35
M  V30 38 1 1 36
M  V30 39 1 1 37
M  V30 40 1 3 38
M  V30 41 1 7 39
M  V30 42 1 8 40
M  V30 43 1 10 41
M  V30 44 1 10 42
M  V30 45 1 10 43
M  V30 46 1 12 44
M  V30 47 1 17 45
M  V30 48 1 17 46
M  V30 49 1 17 47
M  V30 50 1 18 48
M  V30 51 1 18 49
M  V30 52 1 20 50
M  V30 53 1 20 51
M  V30 54 1 20 52
M  V30 55 1 21 53
M  V30 56 1 21 54
M  V30 57 1 21 55
M  V30 58 1 22 56
M  V30 59 1 22 57
M  V30 60 1 22 58
M  V30 61 1 26 59
M  V30 62 1 26 60
M  V30 63 1 27 61
M  V30 64 1 27 62
M  V30 65 1 28 63
M  V30 66 1 28 64
M  V30 67 1 30 65
M  V30 68 1 30 66
M  V30 69 1 30 67
M  V30 70 1 31 68
M  V30 71 1 31 69
M  V30 72 1 32 70
M  V30 73 1 32 71
M  V30 74 1 34 72
M  V30 END BOND
M  V30 END CTAB
M  END
>  <Dataset>  (583) 
ChEMBL_Kinases

>  <Ligand_Instance>  (583) 
nan

>  <PDB_ID>  (583) 
nan

>  <Standardized_SMILES>  (583) 
CONC(=O)c1ccc(C)c(Nc2nc(N(C)CC(C)(C)C)nc(N3CCCN(C)CC3)n2)c1

>  <Name>  (583) 
nan

>  <Pocket>  (583) 
nan

>  <ATP_Site>  (583) 
nan

>  <Peripheral>  (583) 
nan

>  <Num_H_Atoms_ProtBoundConf>  (583) 
nan

>  <Num_Resolved_Atoms>  (583) 
nan

>  <Num_Not_Resolved_Atoms>  (583) 
nan

$$$$
CHEMBL4561377
     RDKit          3D

  0  0  0  0  0  0  0  0  0  0999 V3000
M  V30 BEGIN CTAB
M  V30 COUNTS 34 36 0 0 0
M  V30 BEGIN ATOM
M  V30 1 C -1.702027 -5.538120 2.613557 0
M  V30 2 C -0.929002 -4.354917 2.093702 0
M  V30 3 C 0.346107 -4.516420 1.595456 0
M  V30 4 C 1.072090 -3.431669 1.113250 0
M  V30 5 C 0.519312 -2.179332 1.130506 0
M  V30 6 C 1.401758 -1.179583 0.605299 0
M  V30 7 C 2.654171 -1.104985 0.117855 0
M  V30 8 C 2.908180 0.220950 -0.228034 0
M  V30 9 C 1.739229 0.909600 0.083447 0
M  V30 10 C 1.815766 2.330951 -0.212963 0
M  V30 11 C 0.838894 3.029762 -0.768678 0
M  V30 12 S 0.757374 4.785049 -1.204539 0
M  V30 13 C -1.031913 4.788363 -1.457679 0
M  V30 14 N -1.839872 5.771318 -1.545980 0
M  V30 15 N -1.451556 3.409618 -1.552997 0
M  V30 16 C -0.447956 2.489948 -1.183988 0
M  V30 17 O -0.673738 1.226646 -1.218827 0
M  V30 18 O 0.905504 0.056351 0.559339 0
M  V30 19 C -0.744821 -2.074563 1.634345 0
M  V30 20 N -1.328322 -0.801918 1.672399 0 CHG=1 VAL=4
M  V30 21 O -2.487743 -0.359811 1.646924 0
M  V30 22 O -1.340983 0.551896 1.739450 0 CHG=-1 VAL=1
M  V30 23 C -1.489133 -3.101040 2.113707 0
M  V30 24 H -0.950253 -6.301864 2.864796 0
M  V30 25 H -2.313071 -5.256963 3.487038 0
M  V30 26 H -2.339262 -5.887174 1.792733 0
M  V30 27 H 0.723452 -5.525185 1.610572 0
M  V30 28 H 2.038881 -3.707617 0.759492 0
M  V30 29 H 3.201180 -2.056180 0.088765 0
M  V30 30 H 3.913342 0.329084 -0.630716 0
M  V30 31 H 2.674198 2.976792 -0.008593 0
M  V30 32 H -1.549009 6.768367 -1.478189 0
M  V30 33 H -2.414047 3.146397 -1.869078 0
M  V30 34 H -2.478339 -2.957239 2.495870 0
M  V30 END ATOM
M  V30 BEGIN BOND
M  V30 1 1 1 2
M  V30 2 2 2 3
M  V30 3 1 3 4
M  V30 4 2 4 5
M  V30 5 1 5 6
M  V30 6 2 6 7
M  V30 7 1 7 8
M  V30 8 2 8 9
M  V30 9 1 9 10
M  V30 10 2 10 11
M  V30 11 1 11 12
M  V30 12 1 12 13
M  V30 13 2 13 14 CFG=2
M  V30 14 1 13 15
M  V30 15 1 15 16
M  V30 16 2 16 17
M  V30 17 1 9 18
M  V30 18 1 5 19
M  V30 19 1 19 20
M  V30 20 2 20 21
M  V30 21 1 20 22
M  V30 22 2 19 23
M  V30 23 1 23 2
M  V30 24 1 18 6
M  V30 25 1 16 11
M  V30 26 1 1 24
M  V30 27 1 1 25
M  V30 28 1 1 26
M  V30 29 1 3 27
M  V30 30 1 4 28
M  V30 31 1 7 29
M  V30 32 1 8 30
M  V30 33 1 10 31
M  V30 34 1 14 32
M  V30 35 1 15 33
M  V30 36 1 23 34
M  V30 END BOND
M  V30 END CTAB
M  END
>  <Dataset>  (584) 
ChEMBL_Kinases

>  <Ligand_Instance>  (584) 
nan

>  <PDB_ID>  (584) 
nan

>  <Standardized_SMILES>  (584) 
Cc1ccc(-c2ccc(/C=C3/SC(=N)NC3=O)o2)c([N+](=O)[O-])c1

>  <Name>  (584) 
nan

>  <Pocket>  (584) 
nan

>  <ATP_Site>  (584) 
nan

>  <Peripheral>  (584) 
nan

>  <Num_H_Atoms_ProtBoundConf>  (584) 
nan

>  <Num_Resolved_Atoms>  (584) 
nan

>  <Num_Not_Resolved_Atoms>  (584) 
nan

$$$$
CHEMBL4548795
     RDKit          3D

  0  0  0  0  0  0  0  0  0  0999 V3000
M  V30 BEGIN CTAB
M  V30 COUNTS 65 68 0 0 0
M  V30 BEGIN ATOM
M  V30 1 C 2.287767 -3.630360 7.035373 0
M  V30 2 O 1.586992 -2.545877 7.569830 0
M  V30 3 C 1.332864 -1.454538 6.753864 0
M  V30 4 C 1.738611 -1.386173 5.437453 0
M  V30 5 C 1.485554 -0.287806 4.608590 0
M  V30 6 C 2.015015 -0.446648 3.258358 0
M  V30 7 C 3.328310 -0.918098 3.143403 0
M  V30 8 N 3.942001 -1.109895 1.938603 0
M  V30 9 C 3.260065 -0.835110 0.790151 0
M  V30 10 C 1.944163 -0.362123 0.881499 0
M  V30 11 C 1.285946 -0.090138 -0.392972 0
M  V30 12 C 1.419692 -1.081971 -1.346896 0
M  V30 13 C 0.868677 -0.999182 -2.609716 0
M  V30 14 C 0.139058 0.111117 -2.983944 0
M  V30 15 N -0.467463 0.294882 -4.248846 0
M  V30 16 C -1.208555 1.440423 -4.717427 0
M  V30 17 C -2.673797 1.004887 -4.812050 0
M  V30 18 N -2.809031 -0.291264 -5.393665 0
M  V30 19 C -3.190969 -1.242858 -4.376292 0
M  V30 20 C -3.358013 -2.647052 -4.882318 0
M  V30 21 C -4.510531 -0.842118 -3.753142 0
M  V30 22 C -1.644244 -0.713139 -6.135083 0
M  V30 23 C -0.398255 -0.735170 -5.281032 0
M  V30 24 C 0.006880 1.099588 -2.030515 0
M  V30 25 C 0.556158 1.019964 -0.768150 0
M  V30 26 C 1.334504 -0.172255 2.104214 0
M  V30 27 C -0.040125 0.316457 2.185688 0
M  V30 28 C 0.790647 0.760968 5.177995 0
M  V30 29 C 0.387020 0.687814 6.494579 0
M  V30 30 F -0.291528 1.761636 6.977951 0
M  V30 31 C 0.640643 -0.393662 7.296987 0
M  V30 32 C 0.198038 -0.435482 8.685471 0
M  V30 33 N -0.514501 0.678968 9.208493 0
M  V30 34 O 0.464423 -1.457845 9.367314 0
M  V30 35 H 2.418713 -4.450485 7.789612 0
M  V30 36 H 1.827765 -4.065791 6.137191 0
M  V30 37 H 3.325833 -3.293387 6.786541 0
M  V30 38 H 2.272352 -2.268231 5.112068 0
M  V30 39 H 3.905205 -1.148158 4.024412 0
M  V30 40 H 3.818657 -1.014655 -0.103657 0
M  V30 41 H 1.984724 -2.004859 -1.139597 0
M  V30 42 H 0.998825 -1.789622 -3.313304 0
M  V30 43 H -0.946301 1.701901 -5.785511 0
M  V30 44 H -1.180817 2.315743 -4.066649 0
M  V30 45 H -3.226541 1.793419 -5.369591 0
M  V30 46 H -3.075857 0.996285 -3.786354 0
M  V30 47 H -2.379767 -1.241834 -3.617796 0
M  V30 48 H -2.403285 -3.106224 -5.182570 0
M  V30 49 H -3.723378 -3.246692 -4.022325 0
M  V30 50 H -4.158447 -2.713396 -5.646992 0
M  V30 51 H -4.401194 -0.716752 -2.644132 0
M  V30 52 H -4.881788 0.133517 -4.181563 0
M  V30 53 H -5.319022 -1.561711 -3.968988 0
M  V30 54 H -1.499609 -0.017322 -6.983807 0
M  V30 55 H -1.794182 -1.715579 -6.544234 0
M  V30 56 H -0.267529 -1.745804 -4.898161 0
M  V30 57 H 0.456123 -0.437949 -5.946191 0
M  V30 58 H -0.531621 2.027480 -2.164140 0
M  V30 59 H 0.472827 1.776570 -0.001330 0
M  V30 60 H -0.555985 -0.005682 1.233370 0
M  V30 61 H -0.185015 1.389813 2.256676 0
M  V30 62 H -0.633288 -0.238427 2.971162 0
M  V30 63 H 0.629463 1.577325 4.488082 0
M  V30 64 H -0.108819 1.231102 10.010896 0
M  V30 65 H -1.425123 1.133658 8.977906 0
M  V30 END ATOM
M  V30 BEGIN BOND
M  V30 1 1 1 2
M  V30 2 1 2 3
M  V30 3 2 3 4
M  V30 4 1 4 5
M  V30 5 1 5 6
M  V30 6 2 6 7
M  V30 7 1 7 8
M  V30 8 2 8 9
M  V30 9 1 9 10
M  V30 10 1 10 11
M  V30 11 2 11 12
M  V30 12 1 12 13
M  V30 13 2 13 14
M  V30 14 1 14 15
M  V30 15 1 15 16
M  V30 16 1 16 17
M  V30 17 1 17 18
M  V30 18 1 18 19
M  V30 19 1 19 20
M  V30 20 1 19 21
M  V30 21 1 18 22
M  V30 22 1 22 23
M  V30 23 1 14 24
M  V30 24 2 24 25
M  V30 25 2 10 26
M  V30 26 1 26 27
M  V30 27 2 5 28
M  V30 28 1 28 29
M  V30 29 1 29 30
M  V30 30 2 29 31
M  V30 31 1 31 32
M  V30 32 1 32 33
M  V30 33 2 32 34
M  V30 34 1 31 3
M  V30 35 1 26 6
M  V30 36 1 25 11
M  V30 37 1 23 15
M  V30 38 1 1 35
M  V30 39 1 1 36
M  V30 40 1 1 37
M  V30 41 1 4 38
M  V30 42 1 7 39
M  V30 43 1 9 40
M  V30 44 1 12 41
M  V30 45 1 13 42
M  V30 46 1 16 43
M  V30 47 1 16 44
M  V30 48 1 17 45
M  V30 49 1 17 46
M  V30 50 1 19 47
M  V30 51 1 20 48
M  V30 52 1 20 49
M  V30 53 1 20 50
M  V30 54 1 21 51
M  V30 55 1 21 52
M  V30 56 1 21 53
M  V30 57 1 22 54
M  V30 58 1 22 55
M  V30 59 1 23 56
M  V30 60 1 23 57
M  V30 61 1 24 58
M  V30 62 1 25 59
M  V30 63 1 27 60
M  V30 64 1 27 61
M  V30 65 1 27 62
M  V30 66 1 28 63
M  V30 67 1 33 64
M  V30 68 1 33 65
M  V30 END BOND
M  V30 END CTAB
M  END
>  <Dataset>  (585) 
ChEMBL_Kinases

>  <Ligand_Instance>  (585) 
nan

>  <PDB_ID>  (585) 
nan

>  <Standardized_SMILES>  (585) 
COc1cc(-c2cncc(-c3ccc(N4CCN(C(C)C)CC4)cc3)c2C)cc(F)c1C(N)=O

>  <Name>  (585) 
nan

>  <Pocket>  (585) 
nan

>  <ATP_Site>  (585) 
nan

>  <Peripheral>  (585) 
nan

>  <Num_H_Atoms_ProtBoundConf>  (585) 
nan

>  <Num_Resolved_Atoms>  (585) 
nan

>  <Num_Not_Resolved_Atoms>  (585) 
nan

$$$$
CHEMBL4547931
     RDKit          3D

  0  0  0  0  0  0  0  0  0  0999 V3000
M  V30 BEGIN CTAB
M  V30 COUNTS 56 59 0 0 0
M  V30 BEGIN ATOM
M  V30 1 C 4.577865 -4.985978 2.830624 0
M  V30 2 O 3.674838 -3.975224 3.151120 0
M  V30 3 C 3.786404 -2.651547 2.769499 0
M  V30 4 C 2.728191 -1.872384 3.240623 0
M  V30 5 C 2.628767 -0.522778 2.983453 0
M  V30 6 C 3.566582 0.142669 2.244909 0
M  V30 7 C 3.675542 1.549735 1.815872 0
M  V30 8 C 3.167513 1.840198 0.456466 0
M  V30 9 C 1.750564 1.559298 0.213618 0
M  V30 10 O 0.937653 1.124505 1.057817 0
M  V30 11 N 1.241398 1.795287 -1.086503 0
M  V30 12 C -0.064617 1.612893 -1.590885 0
M  V30 13 C -1.169801 1.152412 -0.917847 0
M  V30 14 C -2.425210 0.990145 -1.458481 0
M  V30 15 C -3.537367 0.489135 -0.649756 0
M  V30 16 N -4.738424 0.899010 -0.204883 0
M  V30 17 C -5.299435 -0.081066 0.530590 0
M  V30 18 S -6.909117 0.123666 1.282477 0
M  V30 19 C -8.181141 -0.445612 0.118466 0
M  V30 20 N -4.442124 -1.133035 0.554910 0
M  V30 21 C -3.333612 -0.806240 -0.173224 0
M  V30 22 C -2.252220 -1.800061 -0.291177 0
M  V30 23 C -1.773973 -2.408112 -1.445488 0
M  V30 24 C -0.748091 -3.316618 -1.331116 0
M  V30 25 C -0.188630 -3.635156 -0.111208 0
M  V30 26 F 0.811935 -4.526539 -0.038214 0
M  V30 27 C -0.640626 -3.048976 1.054615 0
M  V30 28 C -1.677005 -2.131471 0.937651 0
M  V30 29 C -2.625445 1.307150 -2.785273 0
M  V30 30 C -1.524023 1.762776 -3.443866 0
M  V30 31 N -0.320723 1.905020 -2.877687 0
M  V30 32 C 4.618186 -0.641206 1.779399 0
M  V30 33 C 4.756011 -1.991049 2.013337 0
M  V30 34 H 5.437985 -4.579939 2.270770 0
M  V30 35 H 4.897178 -5.553965 3.729111 0
M  V30 36 H 4.125958 -5.755554 2.149401 0
M  V30 37 H 1.901877 -2.251330 3.841801 0
M  V30 38 H 1.827651 0.097581 3.349931 0
M  V30 39 H 4.738581 1.887604 1.852672 0
M  V30 40 H 3.068166 2.195857 2.523698 0
M  V30 41 H 3.796802 1.272734 -0.293597 0
M  V30 42 H 3.410868 2.928694 0.252441 0
M  V30 43 H 1.949754 2.163244 -1.779270 0
M  V30 44 H -1.083420 0.889002 0.111922 0
M  V30 45 H -5.013228 1.861540 -0.494170 0
M  V30 46 H -8.159954 -1.559914 -0.014389 0
M  V30 47 H -9.178510 -0.140856 0.484949 0
M  V30 48 H -8.047222 -0.022515 -0.901643 0
M  V30 49 H -2.284031 -2.084192 -2.339884 0
M  V30 50 H -0.417400 -3.759377 -2.273259 0
M  V30 51 H -0.209208 -3.290221 2.024869 0
M  V30 52 H -1.998851 -1.696130 1.888190 0
M  V30 53 H -3.582509 1.202975 -3.267893 0
M  V30 54 H -1.605908 2.032071 -4.490944 0
M  V30 55 H 5.445267 -0.279594 1.182455 0
M  V30 56 H 5.533796 -2.644429 1.685847 0
M  V30 END ATOM
M  V30 BEGIN BOND
M  V30 1 1 1 2
M  V30 2 1 2 3
M  V30 3 2 3 4
M  V30 4 1 4 5
M  V30 5 2 5 6
M  V30 6 1 6 7
M  V30 7 1 7 8
M  V30 8 1 8 9
M  V30 9 2 9 10
M  V30 10 1 9 11
M  V30 11 1 11 12
M  V30 12 2 12 13
M  V30 13 1 13 14
M  V30 14 1 14 15
M  V30 15 1 15 16
M  V30 16 1 16 17
M  V30 17 1 17 18
M  V30 18 1 18 19
M  V30 19 2 17 20
M  V30 20 1 20 21
M  V30 21 1 21 22
M  V30 22 2 22 23
M  V30 23 1 23 24
M  V30 24 2 24 25
M  V30 25 1 25 26
M  V30 26 1 25 27
M  V30 27 2 27 28
M  V30 28 2 14 29
M  V30 29 1 29 30
M  V30 30 2 30 31
M  V30 31 1 6 32
M  V30 32 2 32 33
M  V30 33 1 33 3
M  V30 34 1 31 12
M  V30 35 2 21 15
M  V30 36 1 28 22
M  V30 37 1 1 34
M  V30 38 1 1 35
M  V30 39 1 1 36
M  V30 40 1 4 37
M  V30 41 1 5 38
M  V30 42 1 7 39
M  V30 43 1 7 40
M  V30 44 1 8 41
M  V30 45 1 8 42
M  V30 46 1 11 43
M  V30 47 1 13 44
M  V30 48 1 16 45
M  V30 49 1 19 46
M  V30 50 1 19 47
M  V30 51 1 19 48
M  V30 52 1 23 49
M  V30 53 1 24 50
M  V30 54 1 27 51
M  V30 55 1 28 52
M  V30 56 1 29 53
M  V30 57 1 30 54
M  V30 58 1 32 55
M  V30 59 1 33 56
M  V30 END BOND
M  V30 END CTAB
M  END
>  <Dataset>  (586) 
ChEMBL_Kinases

>  <Ligand_Instance>  (586) 
nan

>  <PDB_ID>  (586) 
nan

>  <Standardized_SMILES>  (586) 
COc1ccc(CCC(=O)Nc2cc(-c3[nH]c(SC)nc3-c3ccc(F)cc3)ccn2)cc1

>  <Name>  (586) 
nan

>  <Pocket>  (586) 
nan

>  <ATP_Site>  (586) 
nan

>  <Peripheral>  (586) 
nan

>  <Num_H_Atoms_ProtBoundConf>  (586) 
nan

>  <Num_Resolved_Atoms>  (586) 
nan

>  <Num_Not_Resolved_Atoms>  (586) 
nan

$$$$
CHEMBL4550916
     RDKit          3D

  0  0  0  0  0  0  0  0  0  0999 V3000
M  V30 BEGIN CTAB
M  V30 COUNTS 49 53 0 0 0
M  V30 BEGIN ATOM
M  V30 1 N 4.826088 -2.235464 4.923587 0
M  V30 2 C 3.819696 -3.149421 4.412520 0
M  V30 3 C 2.957421 -2.452393 3.403678 0
M  V30 4 C 3.321183 -2.473057 2.053877 0
M  V30 5 C 2.526114 -1.830255 1.122598 0
M  V30 6 C 1.393414 -1.187499 1.568632 0
M  V30 7 N 0.469378 -0.494809 0.744673 0
M  V30 8 C 0.507526 0.803793 0.424588 0
M  V30 9 C 1.413392 1.880157 0.763846 0
M  V30 10 C 2.532029 1.817857 1.553563 0
M  V30 11 C 3.350028 2.889493 1.833405 0
M  V30 12 C 3.051823 4.122657 1.298817 0
M  V30 13 N 1.959181 4.206744 0.521281 0
M  V30 14 C 1.166512 3.137828 0.258206 0
M  V30 15 N 0.069722 3.459402 -0.585507 0
M  V30 16 N -0.562055 0.996295 -0.366131 0
M  V30 17 C -1.237669 -0.156224 -0.525717 0
M  V30 18 C -2.389228 -0.387506 -1.260190 0
M  V30 19 C -2.847175 -1.706179 -1.225160 0
M  V30 20 C -4.057741 -2.075360 -1.963498 0
M  V30 21 C -5.036938 -1.090682 -2.083232 0
M  V30 22 C -6.182761 -1.372764 -2.756920 0
M  V30 23 C -6.350760 -2.625071 -3.306194 0
M  V30 24 N -5.400068 -3.576655 -3.188283 0
M  V30 25 C -4.239411 -3.340517 -2.524316 0
M  V30 26 C -2.193646 -2.708884 -0.505906 0
M  V30 27 N -1.062180 -2.388530 0.190976 0
M  V30 28 C -0.576291 -1.133444 0.192201 0
M  V30 29 C 1.029286 -1.167092 2.921466 0
M  V30 30 C 1.810445 -1.802448 3.861420 0
M  V30 31 H 4.839576 -2.213363 5.976376 0
M  V30 32 H 4.718196 -1.263656 4.526187 0
M  V30 33 H 4.375958 -3.987084 3.929589 0
M  V30 34 H 3.210189 -3.607214 5.219913 0
M  V30 35 H 4.216537 -2.985699 1.729524 0
M  V30 36 H 2.732942 -1.798642 0.073496 0
M  V30 37 H 2.798886 0.876213 1.988652 0
M  V30 38 H 4.219807 2.747875 2.472364 0
M  V30 39 H 3.695852 4.962896 1.520026 0
M  V30 40 H -0.970442 3.429662 -0.632074 0
M  V30 41 H -0.962885 3.340892 -0.431211 0
M  V30 42 H -2.909812 0.365881 -1.820923 0
M  V30 43 H -4.928564 -0.099972 -1.660911 0
M  V30 44 H -6.977399 -0.672219 -2.890727 0
M  V30 45 H -7.257702 -2.892553 -3.855793 0
M  V30 46 H -3.435914 -4.048545 -2.388958 0
M  V30 47 H -2.580749 -3.718690 -0.504119 0
M  V30 48 H 0.155515 -0.679200 3.316858 0
M  V30 49 H 1.585601 -1.824005 4.919050 0
M  V30 END ATOM
M  V30 BEGIN BOND
M  V30 1 1 1 2
M  V30 2 1 2 3
M  V30 3 2 3 4
M  V30 4 1 4 5
M  V30 5 2 5 6
M  V30 6 1 6 7
M  V30 7 1 7 8
M  V30 8 1 8 9
M  V30 9 2 9 10
M  V30 10 1 10 11
M  V30 11 2 11 12
M  V30 12 1 12 13
M  V30 13 2 13 14
M  V30 14 1 14 15
M  V30 15 2 8 16
M  V30 16 1 16 17
M  V30 17 2 17 18
M  V30 18 1 18 19
M  V30 19 1 19 20
M  V30 20 2 20 21
M  V30 21 1 21 22
M  V30 22 2 22 23
M  V30 23 1 23 24
M  V30 24 2 24 25
M  V30 25 2 19 26
M  V30 26 1 26 27
M  V30 27 2 27 28
M  V30 28 1 6 29
M  V30 29 2 29 30
M  V30 30 1 30 3
M  V30 31 1 28 7
M  V30 32 1 14 9
M  V30 33 1 28 17
M  V30 34 1 25 20
M  V30 35 1 1 31
M  V30 36 1 1 32
M  V30 37 1 2 33
M  V30 38 1 2 34
M  V30 39 1 4 35
M  V30 40 1 5 36
M  V30 41 1 10 37
M  V30 42 1 11 38
M  V30 43 1 12 39
M  V30 44 1 15 40
M  V30 45 1 15 41
M  V30 46 1 18 42
M  V30 47 1 21 43
M  V30 48 1 22 44
M  V30 49 1 23 45
M  V30 50 1 25 46
M  V30 51 1 26 47
M  V30 52 1 29 48
M  V30 53 1 30 49
M  V30 END BOND
M  V30 END CTAB
M  END
>  <Dataset>  (587) 
ChEMBL_Kinases

>  <Ligand_Instance>  (587) 
nan

>  <PDB_ID>  (587) 
nan

>  <Standardized_SMILES>  (587) 
NCc1ccc(-n2c(-c3cccnc3N)nc3cc(-c4cccnc4)cnc32)cc1

>  <Name>  (587) 
nan

>  <Pocket>  (587) 
nan

>  <ATP_Site>  (587) 
nan

>  <Peripheral>  (587) 
nan

>  <Num_H_Atoms_ProtBoundConf>  (587) 
nan

>  <Num_Resolved_Atoms>  (587) 
nan

>  <Num_Not_Resolved_Atoms>  (587) 
nan

$$$$
CHEMBL222008
     RDKit          3D

  0  0  0  0  0  0  0  0  0  0999 V3000
M  V30 BEGIN CTAB
M  V30 COUNTS 47 49 0 0 0
M  V30 BEGIN ATOM
M  V30 1 C 4.435339 -4.550448 2.992182 0
M  V30 2 S 5.601939 -3.672636 1.977105 0
M  V30 3 O 6.764720 -3.195485 2.805311 0
M  V30 4 O 6.153285 -4.567366 0.884323 0
M  V30 5 C 4.770610 -2.295695 1.287883 0
M  V30 6 C 4.120363 -2.490265 0.107796 0
M  V30 7 C 3.449415 -1.445404 -0.488280 0
M  V30 8 C 3.395693 -0.158928 0.063932 0
M  V30 9 C 2.635406 0.861108 -0.698859 0
M  V30 10 N 1.274184 0.860463 -0.276766 0
M  V30 11 C 0.762345 1.423069 0.895960 0
M  V30 12 O 1.514846 2.010061 1.715407 0
M  V30 13 C -0.670911 1.360646 1.233717 0
M  V30 14 C -1.169761 1.921090 2.388684 0
M  V30 15 C -2.503299 1.877316 2.727321 0
M  V30 16 N -2.924869 2.490864 3.952088 0
M  V30 17 C -3.353844 1.230416 1.840317 0
M  V30 18 C -4.765047 1.182385 2.192272 0
M  V30 19 N -5.883515 1.160795 2.475573 0
M  V30 20 C -2.857489 0.667926 0.682482 0
M  V30 21 C -3.757978 0.003720 -0.226051 0
M  V30 22 C -4.721701 -0.899361 0.226802 0
M  V30 23 C -5.573925 -1.513994 -0.692295 0
M  V30 24 C -5.459698 -1.226459 -2.041469 0
M  V30 25 C -4.497841 -0.334110 -2.431650 0
M  V30 26 Cl -4.450080 -0.047899 -4.176007 0
M  V30 27 C -3.619342 0.313207 -1.582022 0
M  V30 28 N -1.525285 0.731237 0.378941 0
M  V30 29 C 4.070533 -0.022912 1.255344 0
M  V30 30 C 4.738066 -1.050152 1.855081 0
M  V30 31 H 4.889309 -5.389622 3.556879 0
M  V30 32 H 3.694978 -5.010890 2.285872 0
M  V30 33 H 3.985945 -3.859307 3.706219 0
M  V30 34 H 4.109796 -3.466126 -0.397399 0
M  V30 35 H 2.936152 -1.643159 -1.442117 0
M  V30 36 H 3.146794 1.837166 -0.570113 0
M  V30 37 H 2.750877 0.630608 -1.788756 0
M  V30 38 H 0.580790 0.380823 -0.924982 0
M  V30 39 H -0.451889 2.395755 3.010774 0
M  V30 40 H -3.102702 3.519441 3.745385 0
M  V30 41 H -3.037986 2.022446 4.877983 0
M  V30 42 H -4.810920 -1.125401 1.275550 0
M  V30 43 H -6.322285 -2.213346 -0.344201 0
M  V30 44 H -6.137516 -1.722511 -2.712624 0
M  V30 45 H -2.882752 1.008997 -1.957684 0
M  V30 46 H 4.037479 0.959487 1.683672 0
M  V30 47 H 5.251862 -0.891819 2.792019 0
M  V30 END ATOM
M  V30 BEGIN BOND
M  V30 1 1 1 2
M  V30 2 2 2 3
M  V30 3 2 2 4
M  V30 4 1 2 5
M  V30 5 2 5 6
M  V30 6 1 6 7
M  V30 7 2 7 8
M  V30 8 1 8 9
M  V30 9 1 9 10
M  V30 10 1 10 11
M  V30 11 2 11 12
M  V30 12 1 11 13
M  V30 13 2 13 14
M  V30 14 1 14 15
M  V30 15 1 15 16
M  V30 16 2 15 17
M  V30 17 1 17 18
M  V30 18 3 18 19
M  V30 19 1 17 20
M  V30 20 1 20 21
M  V30 21 2 21 22
M  V30 22 1 22 23
M  V30 23 2 23 24
M  V30 24 1 24 25
M  V30 25 1 25 26
M  V30 26 2 25 27
M  V30 27 2 20 28
M  V30 28 1 8 29
M  V30 29 2 29 30
M  V30 30 1 30 5
M  V30 31 1 28 13
M  V30 32 1 27 21
M  V30 33 1 1 31
M  V30 34 1 1 32
M  V30 35 1 1 33
M  V30 36 1 6 34
M  V30 37 1 7 35
M  V30 38 1 9 36
M  V30 39 1 9 37
M  V30 40 1 10 38
M  V30 41 1 14 39
M  V30 42 1 16 40
M  V30 43 1 16 41
M  V30 44 1 22 42
M  V30 45 1 23 43
M  V30 46 1 24 44
M  V30 47 1 27 45
M  V30 48 1 29 46
M  V30 49 1 30 47
M  V30 END BOND
M  V30 END CTAB
M  END
>  <Dataset>  (588) 
ChEMBL_Kinases

>  <Ligand_Instance>  (588) 
nan

>  <PDB_ID>  (588) 
nan

>  <Standardized_SMILES>  (588) 
CS(=O)(=O)c1ccc(CNC(=O)c2cc(N)c(C#N)c(-c3cccc(Cl)c3)n2)cc1

>  <Name>  (588) 
nan

>  <Pocket>  (588) 
nan

>  <ATP_Site>  (588) 
nan

>  <Peripheral>  (588) 
nan

>  <Num_H_Atoms_ProtBoundConf>  (588) 
nan

>  <Num_Resolved_Atoms>  (588) 
nan

>  <Num_Not_Resolved_Atoms>  (588) 
nan

$$$$
CHEMBL222011
     RDKit          3D

  0  0  0  0  0  0  0  0  0  0999 V3000
M  V30 BEGIN CTAB
M  V30 COUNTS 46 47 0 0 0
M  V30 BEGIN ATOM
M  V30 1 C 2.696129 -4.653675 4.066307 0
M  V30 2 S 3.845687 -4.719105 2.702894 0
M  V30 3 O 5.263914 -4.637305 3.174900 0
M  V30 4 O 3.673425 -6.022538 1.980642 0
M  V30 5 C 3.459514 -3.407606 1.578904 0
M  V30 6 C 4.037494 -2.171886 1.643941 0
M  V30 7 C 3.723828 -1.155428 0.759120 0
M  V30 8 C 2.795368 -1.411549 -0.218365 0
M  V30 9 C 2.292340 -0.509226 -1.284759 0
M  V30 10 N 1.120031 0.183957 -0.736590 0
M  V30 11 C 1.034299 1.327499 0.120777 0
M  V30 12 O 2.182873 1.710242 0.369461 0
M  V30 13 C -0.318451 1.737405 0.465568 0
M  V30 14 C -0.367996 2.869296 1.247733 0
M  V30 15 C -1.620842 3.338092 1.615787 0
M  V30 16 N -1.752198 4.517604 2.434137 0
M  V30 17 C -2.774445 2.672999 1.198172 0
M  V30 18 C -4.052453 3.202793 1.613964 0
M  V30 19 N -5.055307 3.631277 1.952037 0
M  V30 20 C -2.658519 1.546479 0.417187 0
M  V30 21 C -3.873079 0.866028 -0.032708 0
M  V30 22 C -3.757737 0.096491 -1.302864 0
M  V30 23 C -2.747195 -1.000178 -1.111449 0
M  V30 24 O -2.086183 -1.423918 -0.098865 0
M  V30 25 O -2.374615 -1.777840 -2.182321 0
M  V30 26 N -1.420410 1.092273 0.059943 0
M  V30 27 C 2.200458 -2.677970 -0.287822 0
M  V30 28 C 2.509185 -3.711206 0.599911 0
M  V30 29 H 3.178011 -4.987406 5.002498 0
M  V30 30 H 2.252713 -3.641268 4.158539 0
M  V30 31 H 1.860376 -5.360398 3.857500 0
M  V30 32 H 4.773297 -1.964981 2.416054 0
M  V30 33 H 4.139300 -0.167848 0.755268 0
M  V30 34 H 3.076677 0.241267 -1.572828 0
M  V30 35 H 2.083398 -1.073004 -2.192199 0
M  V30 36 H 0.227426 -0.300726 -1.076600 0
M  V30 37 H 0.462395 3.459703 1.624334 0
M  V30 38 H -1.251390 4.256411 3.337140 0
M  V30 39 H -2.183598 5.472489 2.347719 0
M  V30 40 H -4.752511 1.571966 -0.019378 0
M  V30 41 H -4.140190 0.125592 0.767900 0
M  V30 42 H -4.735789 -0.455994 -1.444577 0
M  V30 43 H -3.504772 0.666848 -2.193652 0
M  V30 44 H -2.076691 -2.731872 -2.142465 0
M  V30 45 H 1.446900 -2.982810 -1.034336 0
M  V30 46 H 2.057628 -4.687443 0.551342 0
M  V30 END ATOM
M  V30 BEGIN BOND
M  V30 1 1 1 2
M  V30 2 2 2 3
M  V30 3 2 2 4
M  V30 4 1 2 5
M  V30 5 2 5 6
M  V30 6 1 6 7
M  V30 7 2 7 8
M  V30 8 1 8 9
M  V30 9 1 9 10
M  V30 10 1 10 11
M  V30 11 2 11 12
M  V30 12 1 11 13
M  V30 13 2 13 14
M  V30 14 1 14 15
M  V30 15 1 15 16
M  V30 16 2 15 17
M  V30 17 1 17 18
M  V30 18 3 18 19
M  V30 19 1 17 20
M  V30 20 1 20 21
M  V30 21 1 21 22
M  V30 22 1 22 23
M  V30 23 2 23 24
M  V30 24 1 23 25
M  V30 25 2 20 26
M  V30 26 1 8 27
M  V30 27 2 27 28
M  V30 28 1 28 5
M  V30 29 1 26 13
M  V30 30 1 1 29
M  V30 31 1 1 30
M  V30 32 1 1 31
M  V30 33 1 6 32
M  V30 34 1 7 33
M  V30 35 1 9 34
M  V30 36 1 9 35
M  V30 37 1 10 36
M  V30 38 1 14 37
M  V30 39 1 16 38
M  V30 40 1 16 39
M  V30 41 1 21 40
M  V30 42 1 21 41
M  V30 43 1 22 42
M  V30 44 1 22 43
M  V30 45 1 25 44
M  V30 46 1 27 45
M  V30 47 1 28 46
M  V30 END BOND
M  V30 END CTAB
M  END
>  <Dataset>  (589) 
ChEMBL_Kinases

>  <Ligand_Instance>  (589) 
nan

>  <PDB_ID>  (589) 
nan

>  <Standardized_SMILES>  (589) 
CS(=O)(=O)c1ccc(CNC(=O)c2cc(N)c(C#N)c(CCC(=O)O)n2)cc1

>  <Name>  (589) 
nan

>  <Pocket>  (589) 
nan

>  <ATP_Site>  (589) 
nan

>  <Peripheral>  (589) 
nan

>  <Num_H_Atoms_ProtBoundConf>  (589) 
nan

>  <Num_Resolved_Atoms>  (589) 
nan

>  <Num_Not_Resolved_Atoms>  (589) 
nan

$$$$
CHEMBL4553037
     RDKit          3D

  0  0  0  0  0  0  0  0  0  0999 V3000
M  V30 BEGIN CTAB
M  V30 COUNTS 59 63 0 0 0
M  V30 BEGIN ATOM
M  V30 1 C 5.648275 -1.351758 7.336609 0
M  V30 2 C 5.677945 -0.934244 5.894192 0
M  V30 3 C 4.972403 -1.543984 4.866964 0
M  V30 4 N 5.270603 -0.869220 3.720099 0
M  V30 5 C 4.675858 -1.288490 2.495597 0
M  V30 6 C 3.392439 -0.937545 2.118253 0
M  V30 7 C 2.799084 -1.332059 0.941258 0
M  V30 8 N 1.472634 -0.947503 0.591479 0
M  V30 9 C 1.150757 0.228045 -0.138915 0
M  V30 10 O 2.060828 1.008179 -0.521187 0
M  V30 11 C -0.221373 0.600325 -0.486243 0
M  V30 12 C -0.417674 1.767433 -1.196568 0
M  V30 13 C -1.700735 2.180628 -1.559835 0
M  V30 14 C -2.809481 1.434610 -1.219430 0
M  V30 15 C -2.612242 0.266515 -0.508479 0
M  V30 16 C -1.328817 -0.148937 -0.143883 0
M  V30 17 C -3.810191 -0.559623 -0.129675 0
M  V30 18 N -4.760939 -0.647874 -1.213577 0
M  V30 19 C -5.533581 -1.763519 -1.614037 0
M  V30 20 C -6.423489 -1.810631 -2.665772 0
M  V30 21 N -7.100408 -2.935072 -2.945717 0
M  V30 22 C -6.959837 -4.065284 -2.236309 0
M  V30 23 N -6.098485 -4.050466 -1.203479 0
M  V30 24 C -5.399247 -2.927835 -0.895525 0
M  V30 25 C -4.992577 0.548566 -2.037760 0
M  V30 26 C -4.217633 1.707726 -1.509931 0 CFG=2
M  V30 27 C -4.405980 2.853216 -2.513744 0
M  V30 28 C 3.580356 -2.137773 0.104787 0
M  V30 29 C 4.845430 -2.525735 0.401013 0
M  V30 30 C 5.674757 -3.382560 -0.488388 0
M  V30 31 F 6.808089 -2.766716 -0.922555 0
M  V30 32 F 5.960358 -4.569672 0.153490 0
M  V30 33 F 4.897647 -3.740465 -1.589817 0
M  V30 34 C 5.364022 -2.085138 1.602264 0
M  V30 35 C 6.132928 0.121304 4.045778 0
M  V30 36 N 6.390287 0.094402 5.365403 0
M  V30 37 H 4.628732 -1.593925 7.666985 0
M  V30 38 H 6.372585 -2.186932 7.520314 0
M  V30 39 H 6.023525 -0.507135 7.943691 0
M  V30 40 H 4.310419 -2.409706 5.015757 0
M  V30 41 H 2.804797 -0.324114 2.760250 0
M  V30 42 H 0.715855 -1.591160 0.906657 0
M  V30 43 H 0.379032 2.431980 -1.517078 0
M  V30 44 H -1.920927 3.081805 -2.115020 0
M  V30 45 H -1.189451 -1.066289 0.413008 0
M  V30 46 H -4.273996 -0.200917 0.811097 0
M  V30 47 H -3.423571 -1.578760 0.069886 0
M  V30 48 H -6.539115 -0.898015 -3.241587 0
M  V30 49 H -7.556707 -4.908999 -2.553942 0
M  V30 50 H -4.764358 -3.100329 -0.045943 0
M  V30 51 H -4.788346 0.332360 -3.108023 0
M  V30 52 H -6.084681 0.768075 -1.874408 0
M  V30 53 H -4.680149 2.011718 -0.534251 0
M  V30 54 H -5.501694 2.971758 -2.623148 0
M  V30 55 H -3.919916 2.555962 -3.468436 0
M  V30 56 H -3.915665 3.782059 -2.171512 0
M  V30 57 H 3.128742 -2.459888 -0.829734 0
M  V30 58 H 6.385360 -2.398745 1.841334 0
M  V30 59 H 6.496388 0.785414 3.247288 0
M  V30 END ATOM
M  V30 BEGIN BOND
M  V30 1 1 1 2
M  V30 2 2 2 3
M  V30 3 1 3 4
M  V30 4 1 4 5
M  V30 5 2 5 6
M  V30 6 1 6 7
M  V30 7 1 7 8
M  V30 8 1 8 9
M  V30 9 2 9 10
M  V30 10 1 9 11
M  V30 11 2 11 12
M  V30 12 1 12 13
M  V30 13 2 13 14
M  V30 14 1 14 15
M  V30 15 2 15 16
M  V30 16 1 15 17
M  V30 17 1 17 18
M  V30 18 1 18 19
M  V30 19 2 19 20
M  V30 20 1 20 21
M  V30 21 2 21 22
M  V30 22 1 22 23
M  V30 23 2 23 24
M  V30 24 1 18 25
M  V30 25 1 25 26
M  V30 26 1 26 27
M  V30 27 2 7 28
M  V30 28 1 28 29
M  V30 29 1 29 30
M  V30 30 1 30 31
M  V30 31 1 30 32
M  V30 32 1 30 33
M  V30 33 2 29 34
M  V30 34 1 4 35
M  V30 35 2 35 36
M  V30 36 1 36 2
M  V30 37 1 34 5
M  V30 38 1 16 11
M  V30 39 1 24 19
M  V30 40 1 26 14
M  V30 41 1 1 37
M  V30 42 1 1 38
M  V30 43 1 1 39
M  V30 44 1 3 40
M  V30 45 1 6 41
M  V30 46 1 8 42
M  V30 47 1 12 43
M  V30 48 1 13 44
M  V30 49 1 16 45
M  V30 50 1 17 46
M  V30 51 1 17 47
M  V30 52 1 20 48
M  V30 53 1 22 49
M  V30 54 1 24 50
M  V30 55 1 25 51
M  V30 56 1 25 52
M  V30 57 1 26 53 CFG=1
M  V30 58 1 27 54
M  V30 59 1 27 55
M  V30 60 1 27 56
M  V30 61 1 28 57
M  V30 62 1 34 58
M  V30 63 1 35 59
M  V30 END BOND
M  V30 END CTAB
M  END
>  <Dataset>  (590) 
ChEMBL_Kinases

>  <Ligand_Instance>  (590) 
nan

>  <PDB_ID>  (590) 
nan

>  <Standardized_SMILES>  (590) 
Cc1cn(-c2cc(NC(=O)c3ccc4c(c3)CN(c3cncnc3)C[C@@H]4C)cc(C(F)(F)F)c2)cn1

>  <Name>  (590) 
nan

>  <Pocket>  (590) 
nan

>  <ATP_Site>  (590) 
nan

>  <Peripheral>  (590) 
nan

>  <Num_H_Atoms_ProtBoundConf>  (590) 
nan

>  <Num_Resolved_Atoms>  (590) 
nan

>  <Num_Not_Resolved_Atoms>  (590) 
nan

$$$$
CHEMBL222109
     RDKit          3D

  0  0  0  0  0  0  0  0  0  0999 V3000
M  V30 BEGIN CTAB
M  V30 COUNTS 33 35 0 0 0
M  V30 BEGIN ATOM
M  V30 1 O -1.031512 -0.454181 4.050432 0
M  V30 2 C -0.443992 -0.570691 2.936235 0
M  V30 3 C 0.889587 -0.802367 2.757640 0
M  V30 4 C 1.422914 -0.911684 1.496420 0
M  V30 5 C 0.579533 -0.781298 0.439925 0
M  V30 6 N 1.002275 -0.867330 -0.904861 0
M  V30 7 C 2.270072 -1.047671 -1.467372 0
M  V30 8 C 2.600885 -2.132553 -2.263776 0
M  V30 9 C 3.899878 -2.194885 -2.771648 0
M  V30 10 C 4.851288 -1.229880 -2.513014 0
M  V30 11 C 4.496749 -0.145607 -1.708594 0
M  V30 12 C 3.208525 -0.062986 -1.192063 0
M  V30 13 Cl 2.966484 1.364900 -0.225019 0
M  V30 14 N -0.728627 -0.553637 0.647479 0
M  V30 15 N -1.256303 -0.446178 1.852676 0
M  V30 16 C -2.676987 -0.201138 1.929571 0
M  V30 17 C -3.549257 -1.213633 1.582176 0
M  V30 18 C -4.917348 -0.957605 1.662813 0
M  V30 19 C -5.385343 0.284119 2.081844 0
M  V30 20 C -4.482998 1.277916 2.423177 0
M  V30 21 C -3.114510 1.040919 2.348986 0
M  V30 22 Cl -1.995848 2.326753 2.789765 0
M  V30 23 H 1.506588 -0.895697 3.650293 0
M  V30 24 H 2.467505 -1.096445 1.375216 0
M  V30 25 H 0.364660 -0.801510 -1.720833 0
M  V30 26 H 1.862374 -2.883194 -2.465324 0
M  V30 27 H 4.170761 -3.034263 -3.394041 0
M  V30 28 H 5.849138 -1.347901 -2.946508 0
M  V30 29 H 5.297182 0.563167 -1.555051 0
M  V30 30 H -3.173761 -2.173876 1.258461 0
M  V30 31 H -5.629609 -1.713994 1.403091 0
M  V30 32 H -6.473935 0.441664 2.129934 0
M  V30 33 H -4.905389 2.238696 2.747079 0
M  V30 END ATOM
M  V30 BEGIN BOND
M  V30 1 2 1 2
M  V30 2 1 2 3
M  V30 3 2 3 4
M  V30 4 1 4 5
M  V30 5 1 5 6
M  V30 6 1 6 7
M  V30 7 2 7 8
M  V30 8 1 8 9
M  V30 9 2 9 10
M  V30 10 1 10 11
M  V30 11 2 11 12
M  V30 12 1 12 13
M  V30 13 2 5 14
M  V30 14 1 14 15
M  V30 15 1 15 16
M  V30 16 2 16 17
M  V30 17 1 17 18
M  V30 18 2 18 19
M  V30 19 1 19 20
M  V30 20 2 20 21
M  V30 21 1 21 22
M  V30 22 1 15 2
M  V30 23 1 21 16
M  V30 24 1 12 7
M  V30 25 1 3 23
M  V30 26 1 4 24
M  V30 27 1 6 25
M  V30 28 1 8 26
M  V30 29 1 9 27
M  V30 30 1 10 28
M  V30 31 1 11 29
M  V30 32 1 17 30
M  V30 33 1 18 31
M  V30 34 1 19 32
M  V30 35 1 20 33
M  V30 END BOND
M  V30 END CTAB
M  END
>  <Dataset>  (591) 
ChEMBL_Kinases

>  <Ligand_Instance>  (591) 
nan

>  <PDB_ID>  (591) 
nan

>  <Standardized_SMILES>  (591) 
O=c1ccc(Nc2ccccc2Cl)nn1-c1ccccc1Cl

>  <Name>  (591) 
nan

>  <Pocket>  (591) 
nan

>  <ATP_Site>  (591) 
nan

>  <Peripheral>  (591) 
nan

>  <Num_H_Atoms_ProtBoundConf>  (591) 
nan

>  <Num_Resolved_Atoms>  (591) 
nan

>  <Num_Not_Resolved_Atoms>  (591) 
nan

$$$$
CHEMBL222249
     RDKit          3D

  0  0  0  0  0  0  0  0  0  0999 V3000
M  V30 BEGIN CTAB
M  V30 COUNTS 44 47 0 0 0
M  V30 BEGIN ATOM
M  V30 1 O 3.062468 0.947126 0.830641 0
M  V30 2 C 1.922275 0.459171 0.610447 0
M  V30 3 N 1.521867 0.154982 -0.718473 0
M  V30 4 C 2.292370 0.341234 -1.919685 0
M  V30 5 C 2.367404 1.747339 -2.377461 0
M  V30 6 C 3.357558 2.626429 -1.986501 0
M  V30 7 C 3.446238 3.941897 -2.400080 0
M  V30 8 C 2.486720 4.433033 -3.265904 0
M  V30 9 F 2.618018 5.728605 -3.641002 0
M  V30 10 C 1.483225 3.582570 -3.676723 0
M  V30 11 F 0.588725 4.159527 -4.527119 0
M  V30 12 C 1.418965 2.263420 -3.244330 0
M  V30 13 C 1.035471 0.218534 1.744801 0
M  V30 14 C -0.259398 -0.313774 1.711202 0
M  V30 15 C -0.762413 -0.379014 3.010980 0
M  V30 16 C -2.093140 -0.887602 3.329037 0
M  V30 17 N -3.142423 -0.249187 3.888649 0
M  V30 18 N -4.141503 -1.127181 3.979683 0
M  V30 19 C -3.777128 -2.318770 3.497173 0
M  V30 20 C -2.449104 -2.202177 3.063913 0
M  V30 21 C -1.611569 -3.249236 2.457821 0
M  V30 22 C -0.503327 -3.528930 3.259812 0
M  V30 23 C 0.423664 -4.482138 2.886805 0
M  V30 24 C 0.246449 -5.176351 1.686944 0
M  V30 25 C -0.856414 -4.878881 0.916662 0
M  V30 26 Cl -1.147450 -5.710455 -0.604075 0
M  V30 27 C -1.797217 -3.933307 1.263101 0
M  V30 28 C 0.252525 0.123390 3.826552 0
M  V30 29 N 1.289239 0.461612 3.037579 0
M  V30 30 H 0.541175 -0.252235 -0.793748 0
M  V30 31 H 3.343258 -0.060208 -1.803529 0
M  V30 32 H 1.864000 -0.295885 -2.720417 0
M  V30 33 H 4.132838 2.292604 -1.310693 0
M  V30 34 H 4.262623 4.583533 -2.047372 0
M  V30 35 H 0.601543 1.653127 -3.609311 0
M  V30 36 H -0.755948 -0.615591 0.789538 0
M  V30 37 H -3.134681 0.770370 4.189293 0
M  V30 38 H -4.375894 -3.216809 3.441828 0
M  V30 39 H -0.264716 -3.057737 4.203427 0
M  V30 40 H 1.296966 -4.732165 3.474590 0
M  V30 41 H 0.949632 -5.927682 1.364235 0
M  V30 42 H -2.673047 -3.630600 0.747175 0
M  V30 43 H 0.150551 0.198240 4.905770 0
M  V30 44 H 2.187489 0.868351 3.406351 0
M  V30 END ATOM
M  V30 BEGIN BOND
M  V30 1 2 1 2
M  V30 2 1 2 3
M  V30 3 1 3 4
M  V30 4 1 4 5
M  V30 5 2 5 6
M  V30 6 1 6 7
M  V30 7 2 7 8
M  V30 8 1 8 9
M  V30 9 1 8 10
M  V30 10 1 10 11
M  V30 11 2 10 12
M  V30 12 1 2 13
M  V30 13 2 13 14
M  V30 14 1 14 15
M  V30 15 1 15 16
M  V30 16 1 16 17
M  V30 17 1 17 18
M  V30 18 2 18 19
M  V30 19 1 19 20
M  V30 20 1 20 21
M  V30 21 2 21 22
M  V30 22 1 22 23
M  V30 23 2 23 24
M  V30 24 1 24 25
M  V30 25 1 25 26
M  V30 26 2 25 27
M  V30 27 2 15 28
M  V30 28 1 28 29
M  V30 29 1 12 5
M  V30 30 1 29 13
M  V30 31 2 20 16
M  V30 32 1 27 21
M  V30 33 1 3 30
M  V30 34 1 4 31
M  V30 35 1 4 32
M  V30 36 1 6 33
M  V30 37 1 7 34
M  V30 38 1 12 35
M  V30 39 1 14 36
M  V30 40 1 17 37
M  V30 41 1 19 38
M  V30 42 1 22 39
M  V30 43 1 23 40
M  V30 44 1 24 41
M  V30 45 1 27 42
M  V30 46 1 28 43
M  V30 47 1 29 44
M  V30 END BOND
M  V30 END CTAB
M  END
>  <Dataset>  (592) 
ChEMBL_Kinases

>  <Ligand_Instance>  (592) 
nan

>  <PDB_ID>  (592) 
nan

>  <Standardized_SMILES>  (592) 
O=C(NCc1ccc(F)c(F)c1)c1cc(-c2[nH]ncc2-c2cccc(Cl)c2)c[nH]1

>  <Name>  (592) 
nan

>  <Pocket>  (592) 
nan

>  <ATP_Site>  (592) 
nan

>  <Peripheral>  (592) 
nan

>  <Num_H_Atoms_ProtBoundConf>  (592) 
nan

>  <Num_Resolved_Atoms>  (592) 
nan

>  <Num_Not_Resolved_Atoms>  (592) 
nan

$$$$
CHEMBL4552734
     RDKit          3D

  0  0  0  0  0  0  0  0  0  0999 V3000
M  V30 BEGIN CTAB
M  V30 COUNTS 40 42 0 0 0
M  V30 BEGIN ATOM
M  V30 1 C -0.800084 -2.829902 -1.392309 0
M  V30 2 C 0.327042 -2.252617 -2.204617 0
M  V30 3 C 0.579540 -2.808557 -3.437839 0
M  V30 4 C 1.598053 -2.323268 -4.227501 0
M  V30 5 C 2.358081 -1.272256 -3.759912 0
M  V30 6 C 3.445696 -0.730693 -4.567315 0
M  V30 7 N 3.715425 -1.295956 -5.840683 0
M  V30 8 O 4.177282 0.229093 -4.196921 0
M  V30 9 C 2.055072 -0.761452 -2.519854 0
M  V30 10 C 1.055324 -1.203383 -1.691940 0
M  V30 11 N 0.722854 -0.696573 -0.413659 0
M  V30 12 C 1.338518 0.354184 0.271193 0
M  V30 13 O 2.287379 0.979829 -0.198008 0
M  V30 14 C 0.848125 0.760355 1.632945 0
M  V30 15 C 1.268754 1.705348 2.449310 0
M  V30 16 C 0.637685 1.863952 3.643130 0
M  V30 17 C -0.421143 1.020533 3.943824 0
M  V30 18 C -1.366458 0.810141 5.044792 0
M  V30 19 C -2.295949 -0.186248 4.915954 0
M  V30 20 C -3.214917 -0.449240 5.896522 0
M  V30 21 C -3.207382 0.305426 7.043066 0
M  V30 22 C -2.298154 1.321301 7.232319 0
M  V30 23 C -1.412543 1.515585 6.196570 0
M  V30 24 Cl -0.265703 2.807309 6.451193 0
M  V30 25 S -0.472264 0.014153 2.476746 0
M  V30 26 H -1.581148 -2.059977 -1.308741 0
M  V30 27 H -1.203677 -3.735365 -1.844239 0
M  V30 28 H -0.405735 -3.089109 -0.380228 0
M  V30 29 H -0.039039 -3.630074 -3.766413 0
M  V30 30 H 1.813438 -2.745401 -5.199534 0
M  V30 31 H 4.519918 -1.974493 -5.883363 0
M  V30 32 H 3.364602 -1.273566 -6.841617 0
M  V30 33 H 2.676832 0.049743 -2.211919 0
M  V30 34 H -0.068506 -1.136431 0.103283 0
M  V30 35 H 2.103090 2.316951 2.131056 0
M  V30 36 H 0.932214 2.616718 4.354487 0
M  V30 37 H -2.382839 -0.835652 4.050432 0
M  V30 38 H -3.951370 -1.229057 5.809238 0
M  V30 39 H -3.933363 0.093394 7.811155 0
M  V30 40 H -2.301171 1.906811 8.135223 0
M  V30 END ATOM
M  V30 BEGIN BOND
M  V30 1 1 1 2
M  V30 2 2 2 3
M  V30 3 1 3 4
M  V30 4 2 4 5
M  V30 5 1 5 6
M  V30 6 1 6 7
M  V30 7 2 6 8
M  V30 8 1 5 9
M  V30 9 2 9 10
M  V30 10 1 10 11
M  V30 11 1 11 12
M  V30 12 2 12 13
M  V30 13 1 12 14
M  V30 14 2 14 15
M  V30 15 1 15 16
M  V30 16 2 16 17
M  V30 17 1 17 18
M  V30 18 2 18 19
M  V30 19 1 19 20
M  V30 20 2 20 21
M  V30 21 1 21 22
M  V30 22 2 22 23
M  V30 23 1 23 24
M  V30 24 1 17 25
M  V30 25 1 10 2
M  V30 26 1 25 14
M  V30 27 1 23 18
M  V30 28 1 1 26
M  V30 29 1 1 27
M  V30 30 1 1 28
M  V30 31 1 3 29
M  V30 32 1 4 30
M  V30 33 1 7 31
M  V30 34 1 7 32
M  V30 35 1 9 33
M  V30 36 1 11 34
M  V30 37 1 15 35
M  V30 38 1 16 36
M  V30 39 1 19 37
M  V30 40 1 20 38
M  V30 41 1 21 39
M  V30 42 1 22 40
M  V30 END BOND
M  V30 END CTAB
M  END
>  <Dataset>  (593) 
ChEMBL_Kinases

>  <Ligand_Instance>  (593) 
nan

>  <PDB_ID>  (593) 
nan

>  <Standardized_SMILES>  (593) 
Cc1ccc(C(N)=O)cc1NC(=O)c1ccc(-c2ccccc2Cl)s1

>  <Name>  (593) 
nan

>  <Pocket>  (593) 
nan

>  <ATP_Site>  (593) 
nan

>  <Peripheral>  (593) 
nan

>  <Num_H_Atoms_ProtBoundConf>  (593) 
nan

>  <Num_Resolved_Atoms>  (593) 
nan

>  <Num_Not_Resolved_Atoms>  (593) 
nan

$$$$
CHEMBL3702196
     RDKit          3D

  0  0  0  0  0  0  0  0  0  0999 V3000
M  V30 BEGIN CTAB
M  V30 COUNTS 54 58 0 0 0
M  V30 BEGIN ATOM
M  V30 1 C 0.446697 -1.204223 5.067511 0
M  V30 2 C 1.836988 -1.756088 5.370782 0 CFG=1
M  V30 3 C 1.976740 -3.133954 4.714839 0
M  V30 4 O 0.971669 -4.002057 5.188834 0
M  V30 5 N 2.867232 -0.864109 4.875661 0
M  V30 6 C 2.864336 -0.763010 3.471361 0
M  V30 7 C 2.011610 0.112872 2.779771 0
M  V30 8 C 2.072708 0.149337 1.399173 0
M  V30 9 C 2.928754 -0.629073 0.644747 0
M  V30 10 N 2.966429 -0.581579 -0.779237 0
M  V30 11 C 2.028810 0.354572 -1.291629 0
M  V30 12 N 2.106009 1.618309 -1.781920 0
M  V30 13 C 0.979741 2.251931 -2.167611 0
M  V30 14 C -0.282143 1.656728 -2.084364 0
M  V30 15 C -1.542018 2.088904 -2.400200 0
M  V30 16 C -1.988395 3.278485 -2.920724 0
M  V30 17 C -3.346056 3.348859 -3.105028 0
M  V30 18 N -4.183730 2.320692 -2.795650 0
M  V30 19 C -3.697488 1.172135 -2.285853 0
M  V30 20 C -2.345883 1.018303 -2.070027 0
M  V30 21 N -1.653945 -0.014845 -1.583697 0
M  V30 22 C -2.022410 -1.316289 -1.108514 0
M  V30 23 C -0.799020 -2.197156 -0.885566 0
M  V30 24 C -1.400181 -3.579576 -0.802591 0
M  V30 25 C -2.860453 -3.433230 -1.181286 0
M  V30 26 C -2.752129 -2.186539 -2.087187 0
M  V30 27 C -0.342084 0.393629 -1.593098 0
M  V30 28 N 0.811056 -0.164031 -1.234001 0
M  V30 29 N 3.695792 -1.426711 1.401494 0
M  V30 30 N 3.667823 -1.490732 2.702728 0
M  V30 31 H 0.377335 -0.131597 5.334803 0
M  V30 32 H 0.191262 -1.311647 4.010757 0
M  V30 33 H -0.297185 -1.709984 5.751272 0
M  V30 34 H 1.923302 -1.880679 6.476856 0
M  V30 35 H 2.937365 -3.560472 5.092270 0
M  V30 36 H 1.938790 -3.009245 3.629965 0
M  V30 37 H 0.105185 -3.537080 4.977322 0
M  V30 38 H 3.503598 -0.387729 5.577276 0
M  V30 39 H 1.329989 0.738828 3.322015 0
M  V30 40 H 1.389790 0.843070 0.929842 0
M  V30 41 H 3.636291 -1.199114 -1.267435 0
M  V30 42 H 1.131899 3.252985 -2.542944 0
M  V30 43 H -1.328485 4.080347 -3.160454 0
M  V30 44 H -3.821008 4.239843 -3.512110 0
M  V30 45 H -4.362121 0.361534 -2.033359 0
M  V30 46 H -2.579060 -1.264081 -0.151536 0
M  V30 47 H -0.207234 -2.191926 -1.841481 0
M  V30 48 H -0.214567 -1.921779 -0.011479 0
M  V30 49 H -0.931876 -4.292258 -1.514676 0
M  V30 50 H -1.327307 -3.948411 0.237078 0
M  V30 51 H -3.452803 -3.095874 -0.299965 0
M  V30 52 H -3.292053 -4.292433 -1.685090 0
M  V30 53 H -3.716047 -1.859054 -2.435811 0
M  V30 54 H -2.060562 -2.468253 -2.933136 0
M  V30 END ATOM
M  V30 BEGIN BOND
M  V30 1 1 1 2
M  V30 2 1 2 3
M  V30 3 1 3 4
M  V30 4 1 2 5
M  V30 5 1 5 6
M  V30 6 2 6 7
M  V30 7 1 7 8
M  V30 8 2 8 9
M  V30 9 1 9 10
M  V30 10 1 10 11
M  V30 11 2 11 12
M  V30 12 1 12 13
M  V30 13 2 13 14
M  V30 14 1 14 15
M  V30 15 2 15 16
M  V30 16 1 16 17
M  V30 17 2 17 18
M  V30 18 1 18 19
M  V30 19 2 19 20
M  V30 20 1 20 21
M  V30 21 1 21 22
M  V30 22 1 22 23
M  V30 23 1 23 24
M  V30 24 1 24 25
M  V30 25 1 25 26
M  V30 26 1 21 27
M  V30 27 2 27 28
M  V30 28 1 9 29
M  V30 29 2 29 30
M  V30 30 1 30 6
M  V30 31 1 28 11
M  V30 32 1 27 14
M  V30 33 1 20 15
M  V30 34 1 26 22
M  V30 35 1 1 31
M  V30 36 1 1 32
M  V30 37 1 1 33
M  V30 38 1 2 34 CFG=1
M  V30 39 1 3 35
M  V30 40 1 3 36
M  V30 41 1 4 37
M  V30 42 1 5 38
M  V30 43 1 7 39
M  V30 44 1 8 40
M  V30 45 1 10 41
M  V30 46 1 13 42
M  V30 47 1 16 43
M  V30 48 1 17 44
M  V30 49 1 19 45
M  V30 50 1 22 46
M  V30 51 1 23 47
M  V30 52 1 23 48
M  V30 53 1 24 49
M  V30 54 1 24 50
M  V30 55 1 25 51
M  V30 56 1 25 52
M  V30 57 1 26 53
M  V30 58 1 26 54
M  V30 END BOND
M  V30 END CTAB
M  END
>  <Dataset>  (594) 
ChEMBL_Kinases

>  <Ligand_Instance>  (594) 
nan

>  <PDB_ID>  (594) 
nan

>  <Standardized_SMILES>  (594) 
C[C@@H](CO)Nc1ccc(Nc2ncc3c4ccncc4n(C4CCCC4)c3n2)nn1

>  <Name>  (594) 
nan

>  <Pocket>  (594) 
nan

>  <ATP_Site>  (594) 
nan

>  <Peripheral>  (594) 
nan

>  <Num_H_Atoms_ProtBoundConf>  (594) 
nan

>  <Num_Resolved_Atoms>  (594) 
nan

>  <Num_Not_Resolved_Atoms>  (594) 
nan

$$$$
CHEMBL3702197
     RDKit          3D

  0  0  0  0  0  0  0  0  0  0999 V3000
M  V30 BEGIN CTAB
M  V30 COUNTS 54 58 0 0 0
M  V30 BEGIN ATOM
M  V30 1 O -0.744340 -2.878706 5.125699 0
M  V30 2 C 0.529235 -3.477877 5.111413 0
M  V30 3 C 1.496874 -2.486625 4.488990 0
M  V30 4 C 2.884670 -3.072333 4.451582 0
M  V30 5 N 3.761315 -2.079670 3.856936 0
M  V30 6 C 3.550407 -1.622756 2.516847 0
M  V30 7 C 2.643931 -0.602936 2.291041 0
M  V30 8 C 2.460711 -0.184970 0.986845 0
M  V30 9 C 3.128774 -0.723861 -0.109607 0
M  V30 10 N 2.881358 -0.268806 -1.439361 0
M  V30 11 C 1.896116 0.749851 -1.514512 0
M  V30 12 N 1.893003 2.094215 -1.683656 0
M  V30 13 C 0.738485 2.780335 -1.686581 0
M  V30 14 C -0.486209 2.179343 -1.522359 0
M  V30 15 C -1.799107 2.594600 -1.473791 0
M  V30 16 C -2.327904 3.866214 -1.591859 0
M  V30 17 C -3.717651 3.947788 -1.493195 0
M  V30 18 N -4.458694 2.851170 -1.297363 0
M  V30 19 C -3.943386 1.622227 -1.184062 0
M  V30 20 C -2.573669 1.474265 -1.272857 0
M  V30 21 N -1.785548 0.389954 -1.196951 0
M  V30 22 C -2.090288 -0.972280 -0.988349 0
M  V30 23 C -0.902156 -1.900529 -1.013116 0
M  V30 24 C -1.617411 -3.260667 -0.960950 0
M  V30 25 C -3.053537 -3.009976 -1.343240 0
M  V30 26 C -2.947069 -1.639285 -2.036777 0
M  V30 27 C -0.486507 0.800127 -1.348667 0
M  V30 28 N 0.698318 0.180599 -1.356453 0
M  V30 29 N 3.998539 -1.719493 0.215534 0
M  V30 30 N 4.179756 -2.122705 1.442420 0
M  V30 31 H -0.780337 -2.099073 4.538761 0
M  V30 32 H 0.462110 -4.400521 4.493223 0
M  V30 33 H 0.801205 -3.729191 6.147837 0
M  V30 34 H 1.132683 -2.297232 3.437879 0
M  V30 35 H 1.526743 -1.547181 5.038194 0
M  V30 36 H 2.917564 -3.975314 3.775533 0
M  V30 37 H 3.215636 -3.340693 5.454142 0
M  V30 38 H 4.584782 -1.599542 4.258815 0
M  V30 39 H 2.089496 -0.135448 3.086156 0
M  V30 40 H 1.754494 0.605231 0.838259 0
M  V30 41 H 3.462759 -0.751078 -2.175076 0
M  V30 42 H 0.813963 3.843817 -1.825435 0
M  V30 43 H -1.711938 4.756477 -1.749467 0
M  V30 44 H -4.227980 4.879052 -1.570266 0
M  V30 45 H -4.565927 0.757742 -1.023385 0
M  V30 46 H -2.596281 -1.151874 -0.012518 0
M  V30 47 H -0.332633 -1.855399 -1.968321 0
M  V30 48 H -0.294713 -1.817461 -0.114300 0
M  V30 49 H -1.183867 -3.958859 -1.686402 0
M  V30 50 H -1.602304 -3.650212 0.078695 0
M  V30 51 H -3.653659 -2.786602 -0.425262 0
M  V30 52 H -3.476292 -3.778907 -1.990443 0
M  V30 53 H -3.912532 -1.186422 -2.217929 0
M  V30 54 H -2.340031 -1.811978 -2.953595 0
M  V30 END ATOM
M  V30 BEGIN BOND
M  V30 1 1 1 2
M  V30 2 1 2 3
M  V30 3 1 3 4
M  V30 4 1 4 5
M  V30 5 1 5 6
M  V30 6 2 6 7
M  V30 7 1 7 8
M  V30 8 2 8 9
M  V30 9 1 9 10
M  V30 10 1 10 11
M  V30 11 2 11 12
M  V30 12 1 12 13
M  V30 13 2 13 14
M  V30 14 1 14 15
M  V30 15 2 15 16
M  V30 16 1 16 17
M  V30 17 2 17 18
M  V30 18 1 18 19
M  V30 19 2 19 20
M  V30 20 1 20 21
M  V30 21 1 21 22
M  V30 22 1 22 23
M  V30 23 1 23 24
M  V30 24 1 24 25
M  V30 25 1 25 26
M  V30 26 1 21 27
M  V30 27 2 27 28
M  V30 28 1 9 29
M  V30 29 2 29 30
M  V30 30 1 30 6
M  V30 31 1 28 11
M  V30 32 1 27 14
M  V30 33 1 20 15
M  V30 34 1 26 22
M  V30 35 1 1 31
M  V30 36 1 2 32
M  V30 37 1 2 33
M  V30 38 1 3 34
M  V30 39 1 3 35
M  V30 40 1 4 36
M  V30 41 1 4 37
M  V30 42 1 5 38
M  V30 43 1 7 39
M  V30 44 1 8 40
M  V30 45 1 10 41
M  V30 46 1 13 42
M  V30 47 1 16 43
M  V30 48 1 17 44
M  V30 49 1 19 45
M  V30 50 1 22 46
M  V30 51 1 23 47
M  V30 52 1 23 48
M  V30 53 1 24 49
M  V30 54 1 24 50
M  V30 55 1 25 51
M  V30 56 1 25 52
M  V30 57 1 26 53
M  V30 58 1 26 54
M  V30 END BOND
M  V30 END CTAB
M  END
>  <Dataset>  (595) 
ChEMBL_Kinases

>  <Ligand_Instance>  (595) 
nan

>  <PDB_ID>  (595) 
nan

>  <Standardized_SMILES>  (595) 
OCCCNc1ccc(Nc2ncc3c4ccncc4n(C4CCCC4)c3n2)nn1

>  <Name>  (595) 
nan

>  <Pocket>  (595) 
nan

>  <ATP_Site>  (595) 
nan

>  <Peripheral>  (595) 
nan

>  <Num_H_Atoms_ProtBoundConf>  (595) 
nan

>  <Num_Resolved_Atoms>  (595) 
nan

>  <Num_Not_Resolved_Atoms>  (595) 
nan

$$$$
CHEMBL3702201
     RDKit          3D

  0  0  0  0  0  0  0  0  0  0999 V3000
M  V30 BEGIN CTAB
M  V30 COUNTS 60 65 0 0 0
M  V30 BEGIN ATOM
M  V30 1 C 2.453383 -1.772297 5.998611 0
M  V30 2 N 3.012251 -3.100265 6.115168 0
M  V30 3 C 4.381656 -3.182565 5.645800 0
M  V30 4 C 4.515884 -3.229159 4.156526 0
M  V30 5 N 3.292334 -2.905129 3.458126 0
M  V30 6 C 3.013677 -1.914532 2.478023 0
M  V30 7 C 3.998429 -1.212797 1.831078 0
M  V30 8 C 3.633592 -0.270906 0.896843 0
M  V30 9 C 2.308894 -0.056636 0.636442 0
M  V30 10 N 1.880769 0.887367 -0.337439 0
M  V30 11 C 0.566084 1.273993 -0.716504 0
M  V30 12 N 0.326518 2.579499 -0.426824 0
M  V30 13 C -0.855488 3.160051 -0.697254 0
M  V30 14 C -1.805553 2.347727 -1.285349 0
M  V30 15 C -3.116645 2.613617 -1.695984 0
M  V30 16 C -3.807073 3.809783 -1.609756 0
M  V30 17 C -5.100913 3.834331 -2.086010 0
M  V30 18 C -5.666704 2.714704 -2.619252 0
M  V30 19 C -4.942046 1.556250 -2.681664 0
M  V30 20 C -3.633448 1.447491 -2.224362 0
M  V30 21 N -2.705649 0.475209 -2.160247 0
M  V30 22 C -2.905199 -0.885426 -2.613658 0
M  V30 23 C -1.681320 -1.741418 -2.368370 0
M  V30 24 C -2.010310 -2.996747 -3.135610 0
M  V30 25 C -2.958571 -2.569137 -4.223852 0
M  V30 26 C -3.105859 -1.045672 -4.079357 0
M  V30 27 C -1.610183 1.016176 -1.598158 0
M  V30 28 N -0.400330 0.504915 -1.297530 0
M  V30 29 N 1.360791 -0.782453 1.308466 0
M  V30 30 N 1.718075 -1.686686 2.205227 0
M  V30 31 C 2.241005 -3.831368 3.908568 0
M  V30 32 C 2.243645 -4.079215 5.374752 0
M  V30 33 H 3.247612 -1.025354 5.865602 0
M  V30 34 H 1.757005 -1.783791 5.108812 0
M  V30 35 H 1.828890 -1.558867 6.903335 0
M  V30 36 H 4.840172 -4.071429 6.082064 0
M  V30 37 H 4.880731 -2.236448 5.995260 0
M  V30 38 H 4.777045 -4.273648 3.852842 0
M  V30 39 H 5.308741 -2.512179 3.794074 0
M  V30 40 H 5.042614 -1.391287 2.046259 0
M  V30 41 H 4.354096 0.324455 0.342823 0
M  V30 42 H 2.613701 1.395899 -0.885997 0
M  V30 43 H -1.071626 4.200233 -0.476377 0
M  V30 44 H -3.364456 4.706312 -1.187128 0
M  V30 45 H -5.652979 4.762180 -2.026380 0
M  V30 46 H -6.690202 2.793744 -2.978532 0
M  V30 47 H -5.417324 0.688647 -3.107336 0
M  V30 48 H -3.751268 -1.376382 -2.066294 0
M  V30 49 H -0.791509 -1.303414 -2.830524 0
M  V30 50 H -1.609130 -1.920779 -1.291812 0
M  V30 51 H -2.406822 -3.792775 -2.472194 0
M  V30 52 H -1.082582 -3.415907 -3.610251 0
M  V30 53 H -3.943829 -3.016731 -3.986698 0
M  V30 54 H -2.632362 -2.838175 -5.233795 0
M  V30 55 H -4.102119 -0.781488 -4.461301 0
M  V30 56 H -2.289443 -0.544866 -4.649114 0
M  V30 57 H 2.360068 -4.814150 3.396272 0
M  V30 58 H 1.276118 -3.380071 3.612736 0
M  V30 59 H 2.637375 -5.090836 5.618920 0
M  V30 60 H 1.196462 -4.046561 5.753154 0
M  V30 END ATOM
M  V30 BEGIN BOND
M  V30 1 1 1 2
M  V30 2 1 2 3
M  V30 3 1 3 4
M  V30 4 1 4 5
M  V30 5 1 5 6
M  V30 6 2 6 7
M  V30 7 1 7 8
M  V30 8 2 8 9
M  V30 9 1 9 10
M  V30 10 1 10 11
M  V30 11 2 11 12
M  V30 12 1 12 13
M  V30 13 2 13 14
M  V30 14 1 14 15
M  V30 15 2 15 16
M  V30 16 1 16 17
M  V30 17 2 17 18
M  V30 18 1 18 19
M  V30 19 2 19 20
M  V30 20 1 20 21
M  V30 21 1 21 22
M  V30 22 1 22 23
M  V30 23 1 23 24
M  V30 24 1 24 25
M  V30 25 1 25 26
M  V30 26 1 21 27
M  V30 27 2 27 28
M  V30 28 1 9 29
M  V30 29 2 29 30
M  V30 30 1 5 31
M  V30 31 1 31 32
M  V30 32 1 32 2
M  V30 33 1 30 6
M  V30 34 1 28 11
M  V30 35 1 27 14
M  V30 36 1 20 15
M  V30 37 1 26 22
M  V30 38 1 1 33
M  V30 39 1 1 34
M  V30 40 1 1 35
M  V30 41 1 3 36
M  V30 42 1 3 37
M  V30 43 1 4 38
M  V30 44 1 4 39
M  V30 45 1 7 40
M  V30 46 1 8 41
M  V30 47 1 10 42
M  V30 48 1 13 43
M  V30 49 1 16 44
M  V30 50 1 17 45
M  V30 51 1 18 46
M  V30 52 1 19 47
M  V30 53 1 22 48
M  V30 54 1 23 49
M  V30 55 1 23 50
M  V30 56 1 24 51
M  V30 57 1 24 52
M  V30 58 1 25 53
M  V30 59 1 25 54
M  V30 60 1 26 55
M  V30 61 1 26 56
M  V30 62 1 31 57
M  V30 63 1 31 58
M  V30 64 1 32 59
M  V30 65 1 32 60
M  V30 END BOND
M  V30 END CTAB
M  END
>  <Dataset>  (596) 
ChEMBL_Kinases

>  <Ligand_Instance>  (596) 
nan

>  <PDB_ID>  (596) 
nan

>  <Standardized_SMILES>  (596) 
CN1CCN(c2ccc(Nc3ncc4c5ccccc5n(C5CCCC5)c4n3)nn2)CC1

>  <Name>  (596) 
nan

>  <Pocket>  (596) 
nan

>  <ATP_Site>  (596) 
nan

>  <Peripheral>  (596) 
nan

>  <Num_H_Atoms_ProtBoundConf>  (596) 
nan

>  <Num_Resolved_Atoms>  (596) 
nan

>  <Num_Not_Resolved_Atoms>  (596) 
nan

$$$$
CHEMBL222465
     RDKit          3D

  0  0  0  0  0  0  0  0  0  0999 V3000
M  V30 BEGIN CTAB
M  V30 COUNTS 51 54 0 0 0
M  V30 BEGIN ATOM
M  V30 1 O 0.121110 2.301532 2.990944 0
M  V30 2 C -0.167733 1.126698 2.625939 0
M  V30 3 N 0.828935 0.089310 2.622499 0
M  V30 4 C 2.206784 0.370024 3.042567 0
M  V30 5 C 2.627205 -0.420117 4.226978 0
M  V30 6 O 3.930408 -0.140709 4.621244 0
M  V30 7 C 3.036746 0.204427 1.834424 0
M  V30 8 C 2.506135 0.841589 0.718334 0
M  V30 9 C 3.111377 0.818939 -0.515241 0
M  V30 10 C 4.308083 0.126074 -0.647266 0
M  V30 11 C 5.025837 0.056066 -1.951541 0
M  V30 12 F 4.903451 -1.179597 -2.539321 0
M  V30 13 F 4.544708 1.014053 -2.828595 0
M  V30 14 F 6.368197 0.361561 -1.772213 0
M  V30 15 C 4.867052 -0.523030 0.449704 0
M  V30 16 C 4.225655 -0.471537 1.659112 0
M  V30 17 C -1.507402 0.730764 2.186172 0
M  V30 18 C -1.970205 -0.481974 1.775325 0
M  V30 19 C -3.295852 -0.349911 1.463172 0
M  V30 20 C -4.121339 -1.427296 0.991425 0
M  V30 21 N -5.181384 -1.788336 1.741257 0
M  V30 22 N -5.799051 -2.799077 1.112871 0
M  V30 23 C -5.118741 -3.058421 -0.021914 0
M  V30 24 C -4.035783 -2.202529 -0.139618 0
M  V30 25 C -3.009866 -2.071248 -1.150976 0
M  V30 26 C -2.275742 -3.255949 -1.270685 0
M  V30 27 C -1.229945 -3.342415 -2.196396 0
M  V30 28 C -0.952397 -2.233371 -2.976092 0
M  V30 29 C -1.676405 -1.046949 -2.866634 0
M  V30 30 Cl -1.319564 0.335717 -3.848651 0
M  V30 31 C -2.698618 -0.990741 -1.948391 0
M  V30 32 C -3.671329 0.976300 1.683810 0
M  V30 33 N -2.548026 1.584598 2.121079 0
M  V30 34 H 0.642201 -0.876930 2.335581 0
M  V30 35 H 2.272959 1.456063 3.331608 0
M  V30 36 H 2.449424 -1.511311 4.104330 0
M  V30 37 H 1.986207 -0.076560 5.082397 0
M  V30 38 H 4.170944 -0.559036 5.473311 0
M  V30 39 H 1.569305 1.416604 0.706414 0
M  V30 40 H 2.721215 1.305420 -1.399358 0
M  V30 41 H 5.796484 -1.070238 0.379171 0
M  V30 42 H 4.590876 -0.947332 2.552727 0
M  V30 43 H -1.368841 -1.383049 1.715292 0
M  V30 44 H -5.577156 -1.452831 2.646968 0
M  V30 45 H -5.327222 -3.818132 -0.791110 0
M  V30 46 H -2.420166 -4.170057 -0.705723 0
M  V30 47 H -0.637123 -4.253790 -2.314541 0
M  V30 48 H -0.155395 -2.229374 -3.714609 0
M  V30 49 H -3.318041 -0.138208 -1.778282 0
M  V30 50 H -4.648345 1.415120 1.535411 0
M  V30 51 H -2.531924 2.612489 2.371752 0
M  V30 END ATOM
M  V30 BEGIN BOND
M  V30 1 2 1 2
M  V30 2 1 2 3
M  V30 3 1 3 4
M  V30 4 1 4 5
M  V30 5 1 5 6
M  V30 6 1 4 7
M  V30 7 2 7 8
M  V30 8 1 8 9
M  V30 9 2 9 10
M  V30 10 1 10 11
M  V30 11 1 11 12
M  V30 12 1 11 13
M  V30 13 1 11 14
M  V30 14 1 10 15
M  V30 15 2 15 16
M  V30 16 1 2 17
M  V30 17 2 17 18
M  V30 18 1 18 19
M  V30 19 1 19 20
M  V30 20 1 20 21
M  V30 21 1 21 22
M  V30 22 2 22 23
M  V30 23 1 23 24
M  V30 24 1 24 25
M  V30 25 2 25 26
M  V30 26 1 26 27
M  V30 27 2 27 28
M  V30 28 1 28 29
M  V30 29 1 29 30
M  V30 30 2 29 31
M  V30 31 2 19 32
M  V30 32 1 32 33
M  V30 33 1 16 7
M  V30 34 1 33 17
M  V30 35 2 24 20
M  V30 36 1 31 25
M  V30 37 1 3 34
M  V30 38 1 4 35
M  V30 39 1 5 36
M  V30 40 1 5 37
M  V30 41 1 6 38
M  V30 42 1 8 39
M  V30 43 1 9 40
M  V30 44 1 15 41
M  V30 45 1 16 42
M  V30 46 1 18 43
M  V30 47 1 21 44
M  V30 48 1 23 45
M  V30 49 1 26 46
M  V30 50 1 27 47
M  V30 51 1 28 48
M  V30 52 1 31 49
M  V30 53 1 32 50
M  V30 54 1 33 51
M  V30 END BOND
M  V30 END CTAB
M  END
>  <Dataset>  (597) 
ChEMBL_Kinases

>  <Ligand_Instance>  (597) 
nan

>  <PDB_ID>  (597) 
nan

>  <Standardized_SMILES>  (597) 
O=C(NC(CO)c1ccc(C(F)(F)F)cc1)c1cc(-c2[nH]ncc2-c2cccc(Cl)c2)c[nH]1

>  <Name>  (597) 
nan

>  <Pocket>  (597) 
nan

>  <ATP_Site>  (597) 
nan

>  <Peripheral>  (597) 
nan

>  <Num_H_Atoms_ProtBoundConf>  (597) 
nan

>  <Num_Resolved_Atoms>  (597) 
nan

>  <Num_Not_Resolved_Atoms>  (597) 
nan

$$$$
CHEMBL3702198
     RDKit          3D

  0  0  0  0  0  0  0  0  0  0999 V3000
M  V30 BEGIN CTAB
M  V30 COUNTS 61 66 0 0 0
M  V30 BEGIN ATOM
M  V30 1 C -0.094250 -1.348457 5.576790 0
M  V30 2 N 1.118010 -2.110107 5.626133 0
M  V30 3 C 1.242787 -3.096330 4.623550 0
M  V30 4 C 2.620554 -3.244531 4.011578 0
M  V30 5 N 3.095343 -1.895588 3.773095 0
M  V30 6 C 3.136219 -1.399672 2.443633 0
M  V30 7 C 4.070438 -1.552559 1.442928 0
M  V30 8 C 3.856337 -0.964643 0.214202 0
M  V30 9 C 2.704008 -0.211891 -0.039786 0
M  V30 10 N 2.494480 0.382439 -1.336872 0
M  V30 11 C 1.277357 1.124423 -1.478076 0
M  V30 12 N 1.029544 2.464135 -1.406729 0
M  V30 13 C -0.231264 2.900586 -1.566832 0
M  V30 14 C -1.243021 1.992244 -1.797830 0
M  V30 15 C -2.606731 2.165998 -1.993150 0
M  V30 16 C -3.403216 3.297250 -2.024116 0
M  V30 17 C -4.762207 3.142742 -2.246042 0
M  V30 18 C -5.257599 1.861266 -2.425131 0
M  V30 19 C -4.461085 0.755234 -2.391353 0
M  V30 20 C -3.110939 0.909256 -2.172014 0
M  V30 21 N -2.172166 -0.045606 -2.105427 0
M  V30 22 C -2.208252 -1.469512 -2.218476 0
M  V30 23 C -0.835238 -2.100186 -2.134371 0
M  V30 24 C -1.145316 -3.542407 -2.517479 0
M  V30 25 C -2.432796 -3.491764 -3.340067 0
M  V30 26 C -2.655533 -1.986768 -3.566002 0
M  V30 27 C -1.022869 0.633335 -1.874474 0
M  V30 28 N 0.270073 0.267270 -1.704076 0
M  V30 29 N 1.802744 -0.080804 0.970977 0
M  V30 30 C 1.989969 -0.644528 2.176670 0
M  V30 31 C 3.429258 -1.375637 5.095330 0
M  V30 32 C 2.279254 -1.418643 6.053772 0
M  V30 33 H 0.031361 -0.290506 5.874794 0
M  V30 34 H -0.870308 -1.856866 6.214038 0
M  V30 35 H -0.503395 -1.426015 4.535732 0
M  V30 36 H 0.494821 -2.977071 3.785676 0
M  V30 37 H 0.961099 -4.093041 5.067925 0
M  V30 38 H 2.487039 -3.802489 3.056296 0
M  V30 39 H 3.259820 -3.845706 4.675647 0
M  V30 40 H 4.902343 -2.145262 1.752861 0
M  V30 41 H 4.611151 -1.109546 -0.530132 0
M  V30 42 H 3.207502 0.241400 -2.054381 0
M  V30 43 H -0.372560 3.968566 -1.500792 0
M  V30 44 H -2.934205 4.268408 -1.872815 0
M  V30 45 H -5.351350 4.024661 -2.265332 0
M  V30 46 H -6.321691 1.791111 -2.596226 0
M  V30 47 H -4.927370 -0.205644 -2.537984 0
M  V30 48 H -2.828956 -1.977784 -1.449241 0
M  V30 49 H -0.183281 -1.691518 -2.959368 0
M  V30 50 H -0.395818 -2.007400 -1.139248 0
M  V30 51 H -1.360605 -4.132510 -1.600070 0
M  V30 52 H -0.302484 -4.004649 -3.091340 0
M  V30 53 H -3.300413 -3.825553 -2.739780 0
M  V30 54 H -2.376809 -4.057977 -4.271660 0
M  V30 55 H -3.691335 -1.780159 -3.825337 0
M  V30 56 H -1.929263 -1.698825 -4.350551 0
M  V30 57 H 1.171250 -0.429786 2.835107 0
M  V30 58 H 4.255782 -1.991559 5.512553 0
M  V30 59 H 3.765880 -0.322569 4.906103 0
M  V30 60 H 2.667901 -1.843799 7.032030 0
M  V30 61 H 2.032185 -0.355072 6.300567 0
M  V30 END ATOM
M  V30 BEGIN BOND
M  V30 1 1 1 2
M  V30 2 1 2 3
M  V30 3 1 3 4
M  V30 4 1 4 5
M  V30 5 1 5 6
M  V30 6 2 6 7
M  V30 7 1 7 8
M  V30 8 2 8 9
M  V30 9 1 9 10
M  V30 10 1 10 11
M  V30 11 2 11 12
M  V30 12 1 12 13
M  V30 13 2 13 14
M  V30 14 1 14 15
M  V30 15 2 15 16
M  V30 16 1 16 17
M  V30 17 2 17 18
M  V30 18 1 18 19
M  V30 19 2 19 20
M  V30 20 1 20 21
M  V30 21 1 21 22
M  V30 22 1 22 23
M  V30 23 1 23 24
M  V30 24 1 24 25
M  V30 25 1 25 26
M  V30 26 1 21 27
M  V30 27 2 27 28
M  V30 28 1 9 29
M  V30 29 2 29 30
M  V30 30 1 5 31
M  V30 31 1 31 32
M  V30 32 1 32 2
M  V30 33 1 30 6
M  V30 34 1 28 11
M  V30 35 1 27 14
M  V30 36 1 20 15
M  V30 37 1 26 22
M  V30 38 1 1 33
M  V30 39 1 1 34
M  V30 40 1 1 35
M  V30 41 1 3 36
M  V30 42 1 3 37
M  V30 43 1 4 38
M  V30 44 1 4 39
M  V30 45 1 7 40
M  V30 46 1 8 41
M  V30 47 1 10 42
M  V30 48 1 13 43
M  V30 49 1 16 44
M  V30 50 1 17 45
M  V30 51 1 18 46
M  V30 52 1 19 47
M  V30 53 1 22 48
M  V30 54 1 23 49
M  V30 55 1 23 50
M  V30 56 1 24 51
M  V30 57 1 24 52
M  V30 58 1 25 53
M  V30 59 1 25 54
M  V30 60 1 26 55
M  V30 61 1 26 56
M  V30 62 1 30 57
M  V30 63 1 31 58
M  V30 64 1 31 59
M  V30 65 1 32 60
M  V30 66 1 32 61
M  V30 END BOND
M  V30 END CTAB
M  END
>  <Dataset>  (598) 
ChEMBL_Kinases

>  <Ligand_Instance>  (598) 
nan

>  <PDB_ID>  (598) 
nan

>  <Standardized_SMILES>  (598) 
CN1CCN(c2ccc(Nc3ncc4c5ccccc5n(C5CCCC5)c4n3)nc2)CC1

>  <Name>  (598) 
nan

>  <Pocket>  (598) 
nan

>  <ATP_Site>  (598) 
nan

>  <Peripheral>  (598) 
nan

>  <Num_H_Atoms_ProtBoundConf>  (598) 
nan

>  <Num_Resolved_Atoms>  (598) 
nan

>  <Num_Not_Resolved_Atoms>  (598) 
nan

$$$$
CHEMBL3702199
     RDKit          3D

  0  0  0  0  0  0  0  0  0  0999 V3000
M  V30 BEGIN CTAB
M  V30 COUNTS 63 68 0 0 0
M  V30 BEGIN ATOM
M  V30 1 C 4.246458 -0.341105 5.697511 0
M  V30 2 C 3.533717 -1.641899 5.378997 0
M  V30 3 C 3.956057 -2.676695 6.381797 0
M  V30 4 C 3.946816 -2.041103 3.972476 0
M  V30 5 N 2.759752 -1.945969 3.148358 0
M  V30 6 C 2.534199 -1.086286 2.043070 0
M  V30 7 C 3.500175 -0.409009 1.343735 0
M  V30 8 C 3.190804 0.414817 0.286497 0
M  V30 9 C 1.875117 0.566804 -0.082909 0
M  V30 10 N 1.342530 1.352662 -1.156665 0
M  V30 11 C -0.047734 1.470945 -1.426498 0
M  V30 12 N -0.553295 2.645830 -0.945952 0
M  V30 13 C -1.873315 2.907161 -1.114602 0
M  V30 14 C -2.637673 1.964389 -1.767011 0
M  V30 15 C -3.989934 2.010988 -2.049484 0
M  V30 16 C -4.965692 2.977009 -1.780301 0
M  V30 17 C -6.240806 2.694906 -2.210041 0
M  V30 18 C -6.598895 1.543935 -2.873050 0
M  V30 19 C -5.596698 0.622530 -3.113856 0
M  V30 20 C -4.273050 0.831971 -2.709841 0
M  V30 21 N -3.150969 0.086837 -2.833080 0
M  V30 22 C -3.043094 -1.204945 -3.453945 0
M  V30 23 C -3.023940 -2.334937 -2.448266 0
M  V30 24 C -1.911627 -3.292092 -2.897012 0
M  V30 25 C -1.700101 -2.949635 -4.358734 0
M  V30 26 C -1.814908 -1.419013 -4.273496 0
M  V30 27 C -2.149040 0.774177 -2.259051 0
M  V30 28 N -0.823031 0.562971 -2.063904 0
M  V30 29 N 0.949858 -0.123265 0.638827 0
M  V30 30 N 1.246670 -0.904248 1.640574 0
M  V30 31 C 1.722640 -2.895797 3.560567 0
M  V30 32 C 1.324748 -2.521154 4.970998 0
M  V30 33 N 2.110248 -1.427627 5.512233 0
M  V30 34 H 4.048681 -0.092689 6.777031 0
M  V30 35 H 5.351368 -0.454903 5.631331 0
M  V30 36 H 3.888807 0.508506 5.098948 0
M  V30 37 H 3.095803 -3.170978 6.882396 0
M  V30 38 H 4.545679 -3.440501 5.826181 0
M  V30 39 H 4.617363 -2.259527 7.151970 0
M  V30 40 H 4.817791 -1.491368 3.589337 0
M  V30 41 H 4.222123 -3.136395 4.022350 0
M  V30 42 H 4.516222 -0.533649 1.637207 0
M  V30 43 H 3.897390 0.969464 -0.297514 0
M  V30 44 H 1.940953 1.902040 -1.829190 0
M  V30 45 H -2.281588 3.846045 -0.730989 0
M  V30 46 H -4.723597 3.909132 -1.254638 0
M  V30 47 H -6.989798 3.428390 -2.007565 0
M  V30 48 H -7.586557 1.305176 -3.215070 0
M  V30 49 H -5.778110 -0.325096 -3.633040 0
M  V30 50 H -3.911297 -1.316952 -4.147104 0
M  V30 51 H -2.838828 -1.970207 -1.420884 0
M  V30 52 H -3.961600 -2.918962 -2.532087 0
M  V30 53 H -2.215734 -4.331953 -2.814054 0
M  V30 54 H -0.964563 -3.088645 -2.385293 0
M  V30 55 H -2.418641 -3.395929 -5.043794 0
M  V30 56 H -0.638518 -3.196249 -4.639826 0
M  V30 57 H -1.850313 -0.965561 -5.272609 0
M  V30 58 H -0.858662 -1.143122 -3.746114 0
M  V30 59 H 0.870683 -2.789657 2.874427 0
M  V30 60 H 2.126524 -3.938766 3.542503 0
M  V30 61 H 1.417867 -3.425911 5.628877 0
M  V30 62 H 0.260351 -2.215138 5.027540 0
M  V30 63 H 1.898747 -1.412319 6.542023 0
M  V30 END ATOM
M  V30 BEGIN BOND
M  V30 1 1 1 2
M  V30 2 1 2 3
M  V30 3 1 2 4
M  V30 4 1 4 5
M  V30 5 1 5 6
M  V30 6 2 6 7
M  V30 7 1 7 8
M  V30 8 2 8 9
M  V30 9 1 9 10
M  V30 10 1 10 11
M  V30 11 2 11 12
M  V30 12 1 12 13
M  V30 13 2 13 14
M  V30 14 1 14 15
M  V30 15 2 15 16
M  V30 16 1 16 17
M  V30 17 2 17 18
M  V30 18 1 18 19
M  V30 19 2 19 20
M  V30 20 1 20 21
M  V30 21 1 21 22
M  V30 22 1 22 23
M  V30 23 1 23 24
M  V30 24 1 24 25
M  V30 25 1 25 26
M  V30 26 1 21 27
M  V30 27 2 27 28
M  V30 28 1 9 29
M  V30 29 2 29 30
M  V30 30 1 5 31
M  V30 31 1 31 32
M  V30 32 1 32 33
M  V30 33 1 33 2
M  V30 34 1 30 6
M  V30 35 1 28 11
M  V30 36 1 27 14
M  V30 37 1 20 15
M  V30 38 1 26 22
M  V30 39 1 1 34
M  V30 40 1 1 35
M  V30 41 1 1 36
M  V30 42 1 3 37
M  V30 43 1 3 38
M  V30 44 1 3 39
M  V30 45 1 4 40
M  V30 46 1 4 41
M  V30 47 1 7 42
M  V30 48 1 8 43
M  V30 49 1 10 44
M  V30 50 1 13 45
M  V30 51 1 16 46
M  V30 52 1 17 47
M  V30 53 1 18 48
M  V30 54 1 19 49
M  V30 55 1 22 50
M  V30 56 1 23 51
M  V30 57 1 23 52
M  V30 58 1 24 53
M  V30 59 1 24 54
M  V30 60 1 25 55
M  V30 61 1 25 56
M  V30 62 1 26 57
M  V30 63 1 26 58
M  V30 64 1 31 59
M  V30 65 1 31 60
M  V30 66 1 32 61
M  V30 67 1 32 62
M  V30 68 1 33 63
M  V30 END BOND
M  V30 END CTAB
M  END
>  <Dataset>  (599) 
ChEMBL_Kinases

>  <Ligand_Instance>  (599) 
nan

>  <PDB_ID>  (599) 
nan

>  <Standardized_SMILES>  (599) 
CC1(C)CN(c2ccc(Nc3ncc4c5ccccc5n(C5CCCC5)c4n3)nn2)CCN1

>  <Name>  (599) 
nan

>  <Pocket>  (599) 
nan

>  <ATP_Site>  (599) 
nan

>  <Peripheral>  (599) 
nan

>  <Num_H_Atoms_ProtBoundConf>  (599) 
nan

>  <Num_Resolved_Atoms>  (599) 
nan

>  <Num_Not_Resolved_Atoms>  (599) 
nan

$$$$
CHEMBL3702162
     RDKit          3D

  0  0  0  0  0  0  0  0  0  0999 V3000
M  V30 BEGIN CTAB
M  V30 COUNTS 52 57 0 0 0
M  V30 BEGIN ATOM
M  V30 1 C 1.696209 -5.785349 4.331038 0
M  V30 2 C 1.598812 -4.848552 3.295327 0
M  V30 3 C 2.279810 -5.159985 2.136625 0
M  V30 4 C 2.139266 -4.144786 1.084573 0
M  V30 5 C 1.990262 -2.797086 1.441028 0
M  V30 6 C 1.857545 -1.889838 0.410167 0
M  V30 7 C 1.860134 -2.207186 -0.932770 0
M  V30 8 N 1.705463 -1.234058 -1.927813 0
M  V30 9 C 1.544676 0.124906 -1.546763 0
M  V30 10 N 2.319243 1.222909 -1.702974 0
M  V30 11 C 1.910131 2.418409 -1.215319 0
M  V30 12 C 0.695689 2.561111 -0.544821 0
M  V30 13 C 0.063978 3.645193 0.038896 0
M  V30 14 C 0.439359 4.949923 0.141972 0
M  V30 15 C -0.475818 5.771364 0.817135 0
M  V30 16 N -1.620330 5.253417 1.304276 0
M  V30 17 C -1.947716 3.969766 1.180987 0
M  V30 18 C -1.102195 3.093886 0.529900 0
M  V30 19 N -1.205191 1.782371 0.282632 0
M  V30 20 C -2.214115 0.833975 0.612305 0
M  V30 21 C -3.630931 1.326962 0.542482 0
M  V30 22 C -4.470525 0.208095 0.021002 0
M  V30 23 C -3.563211 -0.895145 -0.401471 0
M  V30 24 C -2.193858 -0.336567 -0.355153 0
M  V30 25 C -0.071011 1.417212 -0.402305 0
M  V30 26 N 0.369352 0.245447 -0.901729 0
M  V30 27 N 2.007615 -3.528846 -1.233294 0
M  V30 28 C 2.139302 -4.440752 -0.260973 0
M  V30 29 C 3.010006 -6.322947 2.010959 0
M  V30 30 C 3.045345 -7.198354 3.108358 0
M  V30 31 N 2.392675 -6.921971 4.247440 0
M  V30 32 H 1.189544 -5.614608 5.272520 0
M  V30 33 H 0.997167 -3.983762 3.526514 0
M  V30 34 H 1.983064 -2.517616 2.473036 0
M  V30 35 H 1.745541 -0.869145 0.726564 0
M  V30 36 H 1.713767 -1.544669 -2.942182 0
M  V30 37 H 2.574855 3.239630 -1.375395 0
M  V30 38 H 1.357672 5.353679 -0.251438 0
M  V30 39 H -0.288853 6.819453 0.958405 0
M  V30 40 H -2.871667 3.624725 1.593484 0
M  V30 41 H -2.042827 0.359375 1.622695 0
M  V30 42 H -3.991979 1.541773 1.587899 0
M  V30 43 H -3.761788 2.201497 -0.114622 0
M  V30 44 H -5.205839 -0.140914 0.794303 0
M  V30 45 H -5.136233 0.575415 -0.811255 0
M  V30 46 H -3.697995 -1.808701 0.218697 0
M  V30 47 H -3.843825 -1.139764 -1.469437 0
M  V30 48 H -1.409301 -1.072977 -0.085376 0
M  V30 49 H -1.949505 0.059670 -1.358624 0
M  V30 50 H 2.261849 -5.517907 -0.447003 0
M  V30 51 H 3.516346 -6.495336 1.067823 0
M  V30 52 H 3.654378 -8.079883 2.885364 0
M  V30 END ATOM
M  V30 BEGIN BOND
M  V30 1 2 1 2
M  V30 2 1 2 3
M  V30 3 1 3 4
M  V30 4 2 4 5
M  V30 5 1 5 6
M  V30 6 2 6 7
M  V30 7 1 7 8
M  V30 8 1 8 9
M  V30 9 2 9 10
M  V30 10 1 10 11
M  V30 11 2 11 12
M  V30 12 1 12 13
M  V30 13 2 13 14
M  V30 14 1 14 15
M  V30 15 2 15 16
M  V30 16 1 16 17
M  V30 17 2 17 18
M  V30 18 1 18 19
M  V30 19 1 19 20
M  V30 20 1 20 21
M  V30 21 1 21 22
M  V30 22 1 22 23
M  V30 23 1 23 24
M  V30 24 1 19 25
M  V30 25 2 25 26
M  V30 26 1 7 27
M  V30 27 2 27 28
M  V30 28 2 3 29
M  V30 29 1 29 30
M  V30 30 2 30 31
M  V30 31 1 31 1
M  V30 32 1 28 4
M  V30 33 1 26 9
M  V30 34 1 25 12
M  V30 35 1 18 13
M  V30 36 1 24 20
M  V30 37 1 1 32
M  V30 38 1 2 33
M  V30 39 1 5 34
M  V30 40 1 6 35
M  V30 41 1 8 36
M  V30 42 1 11 37
M  V30 43 1 14 38
M  V30 44 1 15 39
M  V30 45 1 17 40
M  V30 46 1 20 41
M  V30 47 1 21 42
M  V30 48 1 21 43
M  V30 49 1 22 44
M  V30 50 1 22 45
M  V30 51 1 23 46
M  V30 52 1 23 47
M  V30 53 1 24 48
M  V30 54 1 24 49
M  V30 55 1 28 50
M  V30 56 1 29 51
M  V30 57 1 30 52
M  V30 END BOND
M  V30 END CTAB
M  END
>  <Dataset>  (600) 
ChEMBL_Kinases

>  <Ligand_Instance>  (600) 
nan

>  <PDB_ID>  (600) 
nan

>  <Standardized_SMILES>  (600) 
c1cc(-c2ccc(Nc3ncc4c5ccncc5n(C5CCCC5)c4n3)nc2)ccn1

>  <Name>  (600) 
nan

>  <Pocket>  (600) 
nan

>  <ATP_Site>  (600) 
nan

>  <Peripheral>  (600) 
nan

>  <Num_H_Atoms_ProtBoundConf>  (600) 
nan

>  <Num_Resolved_Atoms>  (600) 
nan

>  <Num_Not_Resolved_Atoms>  (600) 
nan

$$$$
CHEMBL3702200
     RDKit          3D

  0  0  0  0  0  0  0  0  0  0999 V3000
M  V30 BEGIN CTAB
M  V30 COUNTS 66 71 0 0 0
M  V30 BEGIN ATOM
M  V30 1 C 5.820403 -0.363900 3.901669 0
M  V30 2 N 6.037208 0.670280 2.909568 0
M  V30 3 C 5.089245 1.732720 3.005156 0
M  V30 4 C 6.174006 0.092940 1.588228 0
M  V30 5 C 6.407611 1.120921 0.540046 0
M  V30 6 C 5.171059 1.632711 -0.103835 0
M  V30 7 N 4.075189 0.686195 -0.135317 0
M  V30 8 C 2.687733 0.992984 -0.148900 0
M  V30 9 C 1.654447 0.079043 -0.176632 0
M  V30 10 C 0.369666 0.581172 -0.184822 0
M  V30 11 C 0.048823 1.920689 -0.167377 0
M  V30 12 N -1.240150 2.467256 -0.174396 0
M  V30 13 C -2.505379 1.821593 -0.200266 0
M  V30 14 N -3.659541 2.486211 -0.201560 0
M  V30 15 C -4.851466 1.876575 -0.225859 0
M  V30 16 C -4.966902 0.505498 -0.251469 0
M  V30 17 C -6.004661 -0.403864 -0.279257 0
M  V30 18 C -7.366967 -0.183690 -0.290643 0
M  V30 19 C -8.183891 -1.295587 -0.319397 0
M  V30 20 C -7.654856 -2.586931 -0.336260 0
M  V30 21 C -6.280509 -2.718703 -0.323202 0
M  V30 22 C -5.407468 -1.656004 -0.294658 0
M  V30 23 N -4.068067 -1.520840 -0.277115 0
M  V30 24 C -3.129404 -2.612087 -0.285855 0
M  V30 25 C -3.179879 -3.484256 -1.492922 0
M  V30 26 C -2.589514 -4.777740 -1.032808 0
M  V30 27 C -2.666468 -4.827652 0.472172 0
M  V30 28 C -3.238836 -3.508988 0.922644 0
M  V30 29 C -3.786540 -0.191720 -0.250428 0
M  V30 30 N -2.633025 0.487596 -0.225325 0
M  V30 31 N 1.113362 2.738988 -0.140844 0
M  V30 32 N 2.355838 2.295018 -0.132248 0
M  V30 33 C 4.630694 -0.652769 -0.149123 0
M  V30 34 C 5.099982 -0.906375 1.280883 0
M  V30 35 H 6.476931 -0.187886 4.761281 0
M  V30 36 H 5.944150 -1.336842 3.419018 0
M  V30 37 H 4.762026 -0.241135 4.270982 0
M  V30 38 H 5.557591 2.705923 2.736875 0
M  V30 39 H 4.872177 1.846828 4.109556 0
M  V30 40 H 4.113018 1.544296 2.551694 0
M  V30 41 H 7.139527 -0.500639 1.651900 0
M  V30 42 H 7.150186 0.794687 -0.231413 0
M  V30 43 H 6.913853 2.003994 1.026924 0
M  V30 44 H 5.392328 2.042977 -1.112556 0
M  V30 45 H 4.794860 2.519404 0.475851 0
M  V30 46 H 1.911970 -0.951193 -0.189885 0
M  V30 47 H -0.401270 -0.150857 -0.206280 0
M  V30 48 H -1.315834 3.510139 -0.158697 0
M  V30 49 H -5.758488 2.489498 -0.225254 0
M  V30 50 H -7.772879 0.826784 -0.277370 0
M  V30 51 H -9.274641 -1.195087 -0.329777 0
M  V30 52 H -8.331611 -3.443495 -0.358903 0
M  V30 53 H -5.920362 -3.717289 -0.336793 0
M  V30 54 H -2.092728 -2.191676 -0.246063 0
M  V30 55 H -4.167749 -3.588897 -1.970262 0
M  V30 56 H -2.508656 -3.047926 -2.289514 0
M  V30 57 H -3.113207 -5.668214 -1.446215 0
M  V30 58 H -1.513094 -4.842944 -1.357887 0
M  V30 59 H -1.645192 -5.002715 0.887138 0
M  V30 60 H -3.271513 -5.689380 0.829331 0
M  V30 61 H -4.233044 -3.569675 1.362858 0
M  V30 62 H -2.571221 -3.127698 1.749213 0
M  V30 63 H 5.483860 -0.784712 -0.825920 0
M  V30 64 H 3.880520 -1.409683 -0.461690 0
M  V30 65 H 4.256055 -0.763132 1.994468 0
M  V30 66 H 5.477476 -1.945041 1.294778 0
M  V30 END ATOM
M  V30 BEGIN BOND
M  V30 1 1 1 2
M  V30 2 1 2 3
M  V30 3 1 2 4
M  V30 4 1 4 5
M  V30 5 1 5 6
M  V30 6 1 6 7
M  V30 7 1 7 8
M  V30 8 2 8 9
M  V30 9 1 9 10
M  V30 10 2 10 11
M  V30 11 1 11 12
M  V30 12 1 12 13
M  V30 13 2 13 14
M  V30 14 1 14 15
M  V30 15 2 15 16
M  V30 16 1 16 17
M  V30 17 2 17 18
M  V30 18 1 18 19
M  V30 19 2 19 20
M  V30 20 1 20 21
M  V30 21 2 21 22
M  V30 22 1 22 23
M  V30 23 1 23 24
M  V30 24 1 24 25
M  V30 25 1 25 26
M  V30 26 1 26 27
M  V30 27 1 27 28
M  V30 28 1 23 29
M  V30 29 2 29 30
M  V30 30 1 11 31
M  V30 31 2 31 32
M  V30 32 1 7 33
M  V30 33 1 33 34
M  V30 34 1 34 4
M  V30 35 1 32 8
M  V30 36 1 30 13
M  V30 37 1 29 16
M  V30 38 1 22 17
M  V30 39 1 28 24
M  V30 40 1 1 35
M  V30 41 1 1 36
M  V30 42 1 1 37
M  V30 43 1 3 38
M  V30 44 1 3 39
M  V30 45 1 3 40
M  V30 46 1 4 41
M  V30 47 1 5 42
M  V30 48 1 5 43
M  V30 49 1 6 44
M  V30 50 1 6 45
M  V30 51 1 9 46
M  V30 52 1 10 47
M  V30 53 1 12 48
M  V30 54 1 15 49
M  V30 55 1 18 50
M  V30 56 1 19 51
M  V30 57 1 20 52
M  V30 58 1 21 53
M  V30 59 1 24 54
M  V30 60 1 25 55
M  V30 61 1 25 56
M  V30 62 1 26 57
M  V30 63 1 26 58
M  V30 64 1 27 59
M  V30 65 1 27 60
M  V30 66 1 28 61
M  V30 67 1 28 62
M  V30 68 1 33 63
M  V30 69 1 33 64
M  V30 70 1 34 65
M  V30 71 1 34 66
M  V30 END BOND
M  V30 END CTAB
M  END
>  <Dataset>  (601) 
ChEMBL_Kinases

>  <Ligand_Instance>  (601) 
nan

>  <PDB_ID>  (601) 
nan

>  <Standardized_SMILES>  (601) 
CN(C)C1CCN(c2ccc(Nc3ncc4c5ccccc5n(C5CCCC5)c4n3)nn2)CC1

>  <Name>  (601) 
nan

>  <Pocket>  (601) 
nan

>  <ATP_Site>  (601) 
nan

>  <Peripheral>  (601) 
nan

>  <Num_H_Atoms_ProtBoundConf>  (601) 
nan

>  <Num_Resolved_Atoms>  (601) 
nan

>  <Num_Not_Resolved_Atoms>  (601) 
nan

$$$$
CHEMBL4561291
     RDKit          3D

  0  0  0  0  0  0  0  0  0  0999 V3000
M  V30 BEGIN CTAB
M  V30 COUNTS 46 49 0 0 0
M  V30 BEGIN ATOM
M  V30 1 C 3.726878 -3.128351 3.239229 0
M  V30 2 S 4.300976 -3.105155 1.517445 0
M  V30 3 C 3.270255 -2.003257 0.559678 0
M  V30 4 N 3.465236 -1.785975 -0.766433 0
M  V30 5 C 2.551520 -0.921391 -1.218749 0
M  V30 6 C 2.259783 -0.316758 -2.517276 0
M  V30 7 C 1.135445 -0.415881 -3.307850 0
M  V30 8 C 1.096541 0.259376 -4.512439 0
M  V30 9 C 2.166501 1.026276 -4.926827 0
M  V30 10 F 2.104550 1.680428 -6.115774 0
M  V30 11 C 3.309328 1.140711 -4.147180 0
M  V30 12 C 3.334027 0.460119 -2.945368 0
M  V30 13 C 1.738121 -0.566411 -0.152689 0
M  V30 14 C 0.584699 0.293345 0.084546 0
M  V30 15 C 0.596438 1.661787 -0.099169 0
M  V30 16 C -0.506461 2.459266 0.133812 0
M  V30 17 N -1.629579 1.821178 0.561989 0
M  V30 18 C -1.653056 0.488633 0.744604 0
M  V30 19 N -2.855233 -0.169921 1.203701 0
M  V30 20 C -2.776452 -0.174119 2.613745 0
M  V30 21 O -1.744494 0.361071 3.146577 0
M  V30 22 C -3.689601 -0.697402 3.658180 0
M  V30 23 C -3.061219 -0.398645 5.024162 0
M  V30 24 C -2.586365 -1.851723 5.060310 0
M  V30 25 C -3.584915 -2.170839 3.960686 0
M  V30 26 C -0.564706 -0.338169 0.519834 0
M  V30 27 N 2.208232 -1.248399 0.920328 0
M  V30 28 H 4.498514 -2.669220 3.915544 0
M  V30 29 H 2.818013 -2.523041 3.367793 0
M  V30 30 H 3.554120 -4.163242 3.602153 0
M  V30 31 H 0.380868 -1.041723 -2.867312 0
M  V30 32 H 0.190934 0.140759 -5.080159 0
M  V30 33 H 4.102595 1.754993 -4.534550 0
M  V30 34 H 4.279791 0.621392 -2.415764 0
M  V30 35 H 1.523540 2.124381 -0.444431 0
M  V30 36 H -0.463413 3.529578 -0.020766 0
M  V30 37 H -3.744954 -0.634652 0.875535 0
M  V30 38 H -4.747341 -0.389805 3.594985 0
M  V30 39 H -2.226725 0.325656 5.008059 0
M  V30 40 H -3.797302 -0.167584 5.818410 0
M  V30 41 H -1.520990 -1.969283 4.768473 0
M  V30 42 H -2.822874 -2.323920 6.019968 0
M  V30 43 H -4.519683 -2.642032 4.309796 0
M  V30 44 H -3.081581 -2.676486 3.111485 0
M  V30 45 H -0.639686 -1.409026 0.683867 0
M  V30 46 H 1.908020 -1.293010 1.935745 0
M  V30 END ATOM
M  V30 BEGIN BOND
M  V30 1 1 1 2
M  V30 2 1 2 3
M  V30 3 2 3 4
M  V30 4 1 4 5
M  V30 5 1 5 6
M  V30 6 2 6 7
M  V30 7 1 7 8
M  V30 8 2 8 9
M  V30 9 1 9 10
M  V30 10 1 9 11
M  V30 11 2 11 12
M  V30 12 2 5 13
M  V30 13 1 13 14
M  V30 14 2 14 15
M  V30 15 1 15 16
M  V30 16 2 16 17
M  V30 17 1 17 18
M  V30 18 1 18 19
M  V30 19 1 19 20
M  V30 20 2 20 21
M  V30 21 1 20 22
M  V30 22 1 22 23
M  V30 23 1 23 24
M  V30 24 1 24 25
M  V30 25 2 18 26
M  V30 26 1 13 27
M  V30 27 1 27 3
M  V30 28 1 12 6
M  V30 29 1 26 14
M  V30 30 1 25 22
M  V30 31 1 1 28
M  V30 32 1 1 29
M  V30 33 1 1 30
M  V30 34 1 7 31
M  V30 35 1 8 32
M  V30 36 1 11 33
M  V30 37 1 12 34
M  V30 38 1 15 35
M  V30 39 1 16 36
M  V30 40 1 19 37
M  V30 41 1 22 38
M  V30 42 1 23 39
M  V30 43 1 23 40
M  V30 44 1 24 41
M  V30 45 1 24 42
M  V30 46 1 25 43
M  V30 47 1 25 44
M  V30 48 1 26 45
M  V30 49 1 27 46
M  V30 END BOND
M  V30 END CTAB
M  END
>  <Dataset>  (602) 
ChEMBL_Kinases

>  <Ligand_Instance>  (602) 
nan

>  <PDB_ID>  (602) 
nan

>  <Standardized_SMILES>  (602) 
CSc1nc(-c2ccc(F)cc2)c(-c2ccnc(NC(=O)C3CCC3)c2)[nH]1

>  <Name>  (602) 
nan

>  <Pocket>  (602) 
nan

>  <ATP_Site>  (602) 
nan

>  <Peripheral>  (602) 
nan

>  <Num_H_Atoms_ProtBoundConf>  (602) 
nan

>  <Num_Resolved_Atoms>  (602) 
nan

>  <Num_Not_Resolved_Atoms>  (602) 
nan

$$$$
CHEMBL223082
     RDKit          3D

  0  0  0  0  0  0  0  0  0  0999 V3000
M  V30 BEGIN CTAB
M  V30 COUNTS 22 23 0 0 0
M  V30 BEGIN ATOM
M  V30 1 O -0.922402 -5.006915 1.802082 0
M  V30 2 C -1.008098 -3.941989 1.081627 0
M  V30 3 O -1.297551 -4.237066 -0.230328 0
M  V30 4 C -0.739153 -2.902426 2.108779 0
M  V30 5 S 0.934307 -2.277892 2.185062 0
M  V30 6 C 1.130871 -0.651395 1.476653 0
M  V30 7 N 0.000166 0.074378 1.228616 0
M  V30 8 C 0.352825 1.330102 0.855318 0
M  V30 9 C -0.438640 2.418833 0.552056 0
M  V30 10 Br -2.351655 2.257473 0.578101 0
M  V30 11 C 0.231734 3.609968 0.248004 0
M  V30 12 Br -0.858795 5.142372 -0.162399 0
M  V30 13 C 1.596905 3.737859 0.236260 0
M  V30 14 Br 2.396616 5.415714 -0.182326 0
M  V30 15 C 2.322144 2.580226 0.555755 0
M  V30 16 Br 4.211535 2.692828 0.600707 0
M  V30 17 C 1.714020 1.390868 0.861884 0
M  V30 18 N 2.186226 0.186422 1.235464 0
M  V30 19 H -1.140579 -5.165757 -0.580947 0
M  V30 20 H -1.338232 -1.967105 1.654774 0
M  V30 21 H -1.253037 -3.038431 3.067252 0
M  V30 22 H 3.157318 -0.155648 1.343864 0
M  V30 END ATOM
M  V30 BEGIN BOND
M  V30 1 2 1 2
M  V30 2 1 2 3
M  V30 3 1 2 4
M  V30 4 1 4 5
M  V30 5 1 5 6
M  V30 6 2 6 7
M  V30 7 1 7 8
M  V30 8 2 8 9
M  V30 9 1 9 10
M  V30 10 1 9 11
M  V30 11 1 11 12
M  V30 12 2 11 13
M  V30 13 1 13 14
M  V30 14 1 13 15
M  V30 15 1 15 16
M  V30 16 2 15 17
M  V30 17 1 17 18
M  V30 18 1 18 6
M  V30 19 1 17 8
M  V30 20 1 3 19
M  V30 21 1 4 20
M  V30 22 1 4 21
M  V30 23 1 18 22
M  V30 END BOND
M  V30 END CTAB
M  END
>  <Dataset>  (603) 
ChEMBL_Kinases

>  <Ligand_Instance>  (603) 
nan

>  <PDB_ID>  (603) 
nan

>  <Standardized_SMILES>  (603) 
O=C(O)CSc1nc2c(Br)c(Br)c(Br)c(Br)c2[nH]1

>  <Name>  (603) 
nan

>  <Pocket>  (603) 
nan

>  <ATP_Site>  (603) 
nan

>  <Peripheral>  (603) 
nan

>  <Num_H_Atoms_ProtBoundConf>  (603) 
nan

>  <Num_Resolved_Atoms>  (603) 
nan

>  <Num_Not_Resolved_Atoms>  (603) 
nan

$$$$
CHEMBL223147
     RDKit          3D

  0  0  0  0  0  0  0  0  0  0999 V3000
M  V30 BEGIN CTAB
M  V30 COUNTS 50 54 0 0 0
M  V30 BEGIN ATOM
M  V30 1 C 3.005908 -3.182627 3.868291 0
M  V30 2 C 3.425784 -3.137039 2.414153 0
M  V30 3 N 3.397023 -1.776979 1.891082 0
M  V30 4 C 4.470141 -0.857324 1.912603 0
M  V30 5 O 5.617521 -0.993302 2.357963 0
M  V30 6 C 4.080134 0.436906 1.290291 0
M  V30 7 C 4.979793 0.626388 0.093782 0
M  V30 8 C 4.133758 1.575426 2.253100 0
M  V30 9 C 2.673455 0.187415 0.901353 0
M  V30 10 C 1.769068 1.037841 0.269866 0
M  V30 11 C 0.481175 0.601227 -0.007681 0
M  V30 12 N -0.624942 1.146686 -0.593367 0
M  V30 13 C -1.625510 0.267894 -0.605383 0
M  V30 14 C -1.127612 -0.878414 -0.001856 0
M  V30 15 C 0.173104 -0.686813 0.372542 0
M  V30 16 C 1.041053 -1.569875 1.003827 0
M  V30 17 C 2.320913 -1.090670 1.262545 0
M  V30 18 C -1.935801 -2.114854 0.187149 0
M  V30 19 C -3.239326 -1.796531 0.838462 0
M  V30 20 C -4.338799 -1.438706 -0.113575 0
M  V30 21 C -4.059012 -0.232506 -0.898233 0
M  V30 22 C -5.075558 0.396508 -1.617597 0
M  V30 23 C -6.507646 -0.051997 -1.680205 0
M  V30 24 N -4.557423 1.469919 -2.244046 0
M  V30 25 N -3.249144 1.585503 -1.977291 0
M  V30 26 C -2.945337 0.569553 -1.172454 0
M  V30 27 H 2.363094 -4.095720 4.000557 0
M  V30 28 H 3.865500 -3.258567 4.564257 0
M  V30 29 H 2.315199 -2.338070 4.105640 0
M  V30 30 H 2.795657 -3.794991 1.806273 0
M  V30 31 H 4.488491 -3.507259 2.409912 0
M  V30 32 H 5.489856 1.596576 0.053099 0
M  V30 33 H 5.744397 -0.172976 -0.011176 0
M  V30 34 H 4.331635 0.537157 -0.812616 0
M  V30 35 H 5.012808 1.563734 2.913338 0
M  V30 36 H 4.094412 2.516521 1.633372 0
M  V30 37 H 3.195390 1.571986 2.846965 0
M  V30 38 H 2.034691 2.041869 -0.017766 0
M  V30 39 H -0.669714 2.115814 -0.974419 0
M  V30 40 H 0.710648 -2.557898 1.263162 0
M  V30 41 H -1.341482 -2.781642 0.874124 0
M  V30 42 H -2.124417 -2.625980 -0.788558 0
M  V30 43 H -3.098821 -1.008002 1.602500 0
M  V30 44 H -3.560174 -2.714203 1.381994 0
M  V30 45 H -5.242509 -1.232327 0.517127 0
M  V30 46 H -4.620723 -2.311918 -0.730137 0
M  V30 47 H -7.103689 0.383336 -0.865662 0
M  V30 48 H -6.977564 0.232499 -2.645075 0
M  V30 49 H -6.523727 -1.180704 -1.670696 0
M  V30 50 H -2.560159 2.285702 -2.292270 0
M  V30 END ATOM
M  V30 BEGIN BOND
M  V30 1 1 1 2
M  V30 2 1 2 3
M  V30 3 1 3 4
M  V30 4 2 4 5
M  V30 5 1 4 6
M  V30 6 1 6 7
M  V30 7 1 6 8
M  V30 8 1 6 9
M  V30 9 2 9 10
M  V30 10 1 10 11
M  V30 11 1 11 12
M  V30 12 1 12 13
M  V30 13 2 13 14
M  V30 14 1 14 15
M  V30 15 1 15 16
M  V30 16 2 16 17
M  V30 17 1 14 18
M  V30 18 1 18 19
M  V30 19 1 19 20
M  V30 20 1 20 21
M  V30 21 1 21 22
M  V30 22 1 22 23
M  V30 23 2 22 24
M  V30 24 1 24 25
M  V30 25 1 25 26
M  V30 26 1 17 3
M  V30 27 2 26 21
M  V30 28 1 17 9
M  V30 29 2 15 11
M  V30 30 1 26 13
M  V30 31 1 1 27
M  V30 32 1 1 28
M  V30 33 1 1 29
M  V30 34 1 2 30
M  V30 35 1 2 31
M  V30 36 1 7 32
M  V30 37 1 7 33
M  V30 38 1 7 34
M  V30 39 1 8 35
M  V30 40 1 8 36
M  V30 41 1 8 37
M  V30 42 1 10 38
M  V30 43 1 12 39
M  V30 44 1 16 40
M  V30 45 1 18 41
M  V30 46 1 18 42
M  V30 47 1 19 43
M  V30 48 1 19 44
M  V30 49 1 20 45
M  V30 50 1 20 46
M  V30 51 1 23 47
M  V30 52 1 23 48
M  V30 53 1 23 49
M  V30 54 1 25 50
M  V30 END BOND
M  V30 END CTAB
M  END
>  <Dataset>  (604) 
ChEMBL_Kinases

>  <Ligand_Instance>  (604) 
nan

>  <PDB_ID>  (604) 
nan

>  <Standardized_SMILES>  (604) 
CCN1C(=O)C(C)(C)c2cc3[nH]c4c(c3cc21)CCCc1c(C)n[nH]c1-4

>  <Name>  (604) 
nan

>  <Pocket>  (604) 
nan

>  <ATP_Site>  (604) 
nan

>  <Peripheral>  (604) 
nan

>  <Num_H_Atoms_ProtBoundConf>  (604) 
nan

>  <Num_Resolved_Atoms>  (604) 
nan

>  <Num_Not_Resolved_Atoms>  (604) 
nan

$$$$
CHEMBL4551912
     RDKit          3D

  0  0  0  0  0  0  0  0  0  0999 V3000
M  V30 BEGIN CTAB
M  V30 COUNTS 30 31 0 0 0
M  V30 BEGIN ATOM
M  V30 1 C -1.889170 -3.617139 3.532385 0
M  V30 2 C -0.442992 -3.920654 3.438550 0
M  V30 3 O -0.113422 -4.898125 4.123646 0
M  V30 4 C 0.544381 -3.194754 2.648642 0
M  V30 5 C 1.834765 -3.669059 2.722997 0
M  V30 6 N 2.761451 -3.007132 1.996882 0
M  V30 7 C 2.456687 -1.939681 1.236420 0
M  V30 8 C 1.161972 -1.433821 1.138504 0
M  V30 9 C 0.807777 -0.277737 0.320341 0
M  V30 10 C -0.482500 -0.278228 -0.220731 0
M  V30 11 C -0.888150 0.798069 -1.014412 0
M  V30 12 C -0.036871 1.850226 -1.266731 0
M  V30 13 C -0.493110 2.966725 -2.104764 0
M  V30 14 N 0.368484 4.057407 -2.375182 0
M  V30 15 O -1.677893 2.859404 -2.539485 0
M  V30 16 C 1.250018 1.851712 -0.727655 0
M  V30 17 C 1.648809 0.785048 0.057533 0
M  V30 18 C 0.201891 -2.105019 1.879467 0
M  V30 19 H -2.164327 -2.695388 3.005319 0
M  V30 20 H -2.454729 -4.460228 3.085887 0
M  V30 21 H -2.232164 -3.517342 4.583002 0
M  V30 22 H 2.105789 -4.526390 3.327718 0
M  V30 23 H 3.242041 -1.448015 0.674819 0
M  V30 24 H -1.199530 -1.081485 -0.056281 0
M  V30 25 H -1.904097 0.763982 -1.421027 0
M  V30 26 H 0.470033 4.600606 -1.496370 0
M  V30 27 H 0.551766 3.858210 -3.379555 0
M  V30 28 H 1.938162 2.683408 -0.920475 0
M  V30 29 H 2.632580 0.725345 0.504815 0
M  V30 30 H -0.794778 -1.747088 1.828648 0
M  V30 END ATOM
M  V30 BEGIN BOND
M  V30 1 1 1 2
M  V30 2 2 2 3
M  V30 3 1 2 4
M  V30 4 2 4 5
M  V30 5 1 5 6
M  V30 6 2 6 7
M  V30 7 1 7 8
M  V30 8 1 8 9
M  V30 9 2 9 10
M  V30 10 1 10 11
M  V30 11 2 11 12
M  V30 12 1 12 13
M  V30 13 1 13 14
M  V30 14 2 13 15
M  V30 15 1 12 16
M  V30 16 2 16 17
M  V30 17 2 8 18
M  V30 18 1 18 4
M  V30 19 1 17 9
M  V30 20 1 1 19
M  V30 21 1 1 20
M  V30 22 1 1 21
M  V30 23 1 5 22
M  V30 24 1 7 23
M  V30 25 1 10 24
M  V30 26 1 11 25
M  V30 27 1 14 26
M  V30 28 1 14 27
M  V30 29 1 16 28
M  V30 30 1 17 29
M  V30 31 1 18 30
M  V30 END BOND
M  V30 END CTAB
M  END
>  <Dataset>  (605) 
ChEMBL_Kinases

>  <Ligand_Instance>  (605) 
nan

>  <PDB_ID>  (605) 
nan

>  <Standardized_SMILES>  (605) 
CC(=O)c1cncc(-c2ccc(C(N)=O)cc2)c1

>  <Name>  (605) 
nan

>  <Pocket>  (605) 
nan

>  <ATP_Site>  (605) 
nan

>  <Peripheral>  (605) 
nan

>  <Num_H_Atoms_ProtBoundConf>  (605) 
nan

>  <Num_Resolved_Atoms>  (605) 
nan

>  <Num_Not_Resolved_Atoms>  (605) 
nan

$$$$
CHEMBL4552537
     RDKit          3D

  0  0  0  0  0  0  0  0  0  0999 V3000
M  V30 BEGIN CTAB
M  V30 COUNTS 62 65 0 0 0
M  V30 BEGIN ATOM
M  V30 1 C 6.633982 0.187931 5.922877 0
M  V30 2 O 5.800272 1.092618 5.193869 0
M  V30 3 C 5.059026 0.639470 4.090838 0
M  V30 4 C 5.134624 -0.683603 3.708490 0
M  V30 5 C 4.385717 -1.112441 2.604457 0
M  V30 6 C 3.586526 -0.186858 1.926188 0
M  V30 7 C 3.527714 1.131017 2.328184 0
M  V30 8 C 4.274700 1.563191 3.430865 0
M  V30 9 C 2.717848 2.184282 1.686680 0
M  V30 10 C 1.993798 1.729668 0.465897 0 CFG=2
M  V30 11 C 0.586324 1.331494 0.782196 0
M  V30 12 O -0.020109 1.332691 1.885165 0
M  V30 13 N -0.101253 0.900918 -0.384103 0
M  V30 14 C -1.472897 0.453776 -0.410041 0
M  V30 15 C -2.296965 1.556940 -0.638817 0
M  V30 16 C -3.681610 1.365688 -0.705713 0
M  V30 17 C -4.183150 0.091439 -0.542668 0
M  V30 18 C -5.586707 -0.218073 -0.593007 0
M  V30 19 C -6.528306 0.700931 -0.164612 0
M  V30 20 C -7.887341 0.466355 -0.186755 0
M  V30 21 N -8.296494 -0.721072 -0.651683 0
M  V30 22 C -7.474078 -1.686034 -1.092371 0
M  V30 23 C -6.133911 -1.396177 -1.046515 0
M  V30 24 C -3.347792 -0.977653 -0.318300 0
M  V30 25 C -1.979712 -0.846091 -0.243675 0
M  V30 26 O -0.904722 -1.664838 -0.041256 0
M  V30 27 C -0.867523 -3.027758 0.165703 0
M  V30 28 C -1.401159 -3.877480 -0.940169 0
M  V30 29 N -0.667004 -3.668264 -2.176599 0
M  V30 30 C -1.169982 -4.478803 -3.243311 0
M  V30 31 C 0.745540 -3.778593 -1.977816 0
M  V30 32 C 2.657767 0.529704 -0.173106 0
M  V30 33 O 2.795186 -0.464102 0.823203 0
M  V30 34 H 7.251103 -0.424075 5.213084 0
M  V30 35 H 7.247666 0.761042 6.616618 0
M  V30 36 H 5.955004 -0.550692 6.400719 0
M  V30 37 H 5.746612 -1.412103 4.221073 0
M  V30 38 H 4.377098 -2.125634 2.227461 0
M  V30 39 H 4.260124 2.593770 3.784354 0
M  V30 40 H 3.256471 3.135048 1.527535 0
M  V30 41 H 1.920382 2.443103 2.444354 0
M  V30 42 H 1.948409 2.572880 -0.278203 0
M  V30 43 H 0.162896 0.807370 -1.385191 0
M  V30 44 H -2.021592 2.572366 -0.776919 0
M  V30 45 H -4.393730 2.156870 -0.878357 0
M  V30 46 H -6.206604 1.663900 0.212813 0
M  V30 47 H -8.620985 1.170936 0.142206 0
M  V30 48 H -7.890651 -2.603922 -1.446125 0
M  V30 49 H -5.447655 -2.170018 -1.401428 0
M  V30 50 H -3.629892 -1.999974 -0.171697 0
M  V30 51 H 0.193981 -3.307580 0.363834 0
M  V30 52 H -1.415031 -3.349854 1.096142 0
M  V30 53 H -2.474973 -3.822243 -1.060589 0
M  V30 54 H -1.148106 -4.945596 -0.651551 0
M  V30 55 H -1.491965 -3.838275 -4.081588 0
M  V30 56 H -2.051902 -5.081264 -2.930157 0
M  V30 57 H -0.428371 -5.205822 -3.626888 0
M  V30 58 H 1.145945 -2.767295 -1.715631 0
M  V30 59 H 1.039748 -4.468890 -1.180874 0
M  V30 60 H 1.275235 -4.101389 -2.898081 0
M  V30 61 H 3.672708 0.835714 -0.526558 0
M  V30 62 H 2.068584 0.169115 -1.040743 0
M  V30 END ATOM
M  V30 BEGIN BOND
M  V30 1 1 1 2
M  V30 2 1 2 3
M  V30 3 2 3 4
M  V30 4 1 4 5
M  V30 5 2 5 6
M  V30 6 1 6 7
M  V30 7 2 7 8
M  V30 8 1 7 9
M  V30 9 1 9 10
M  V30 10 1 10 11
M  V30 11 2 11 12
M  V30 12 1 11 13
M  V30 13 1 13 14
M  V30 14 2 14 15
M  V30 15 1 15 16
M  V30 16 2 16 17
M  V30 17 1 17 18
M  V30 18 2 18 19
M  V30 19 1 19 20
M  V30 20 2 20 21
M  V30 21 1 21 22
M  V30 22 2 22 23
M  V30 23 1 17 24
M  V30 24 2 24 25
M  V30 25 1 25 26
M  V30 26 1 26 27
M  V30 27 1 27 28
M  V30 28 1 28 29
M  V30 29 1 29 30
M  V30 30 1 29 31
M  V30 31 1 10 32
M  V30 32 1 32 33
M  V30 33 1 8 3
M  V30 34 1 25 14
M  V30 35 1 33 6
M  V30 36 1 23 18
M  V30 37 1 1 34
M  V30 38 1 1 35
M  V30 39 1 1 36
M  V30 40 1 4 37
M  V30 41 1 5 38
M  V30 42 1 8 39
M  V30 43 1 9 40
M  V30 44 1 9 41
M  V30 45 1 10 42 CFG=3
M  V30 46 1 13 43
M  V30 47 1 15 44
M  V30 48 1 16 45
M  V30 49 1 19 46
M  V30 50 1 20 47
M  V30 51 1 22 48
M  V30 52 1 23 49
M  V30 53 1 24 50
M  V30 54 1 27 51
M  V30 55 1 27 52
M  V30 56 1 28 53
M  V30 57 1 28 54
M  V30 58 1 30 55
M  V30 59 1 30 56
M  V30 60 1 30 57
M  V30 61 1 31 58
M  V30 62 1 31 59
M  V30 63 1 31 60
M  V30 64 1 32 61
M  V30 65 1 32 62
M  V30 END BOND
M  V30 END CTAB
M  END
>  <Dataset>  (606) 
ChEMBL_Kinases

>  <Ligand_Instance>  (606) 
nan

>  <PDB_ID>  (606) 
nan

>  <Standardized_SMILES>  (606) 
COc1ccc2c(c1)C[C@H](C(=O)Nc1ccc(-c3ccncc3)cc1OCCN(C)C)CO2

>  <Name>  (606) 
nan

>  <Pocket>  (606) 
nan

>  <ATP_Site>  (606) 
nan

>  <Peripheral>  (606) 
nan

>  <Num_H_Atoms_ProtBoundConf>  (606) 
nan

>  <Num_Resolved_Atoms>  (606) 
nan

>  <Num_Not_Resolved_Atoms>  (606) 
nan

$$$$
CHEMBL3702216
     RDKit          3D

  0  0  0  0  0  0  0  0  0  0999 V3000
M  V30 BEGIN CTAB
M  V30 COUNTS 64 68 0 0 0
M  V30 BEGIN ATOM
M  V30 1 C 2.395291 -0.616962 4.096792 0
M  V30 2 C 1.898157 0.712080 3.528118 0
M  V30 3 C 2.639925 0.912515 2.249835 0 CFG=1
M  V30 4 C 2.332202 -0.243374 1.309537 0
M  V30 5 N 2.403027 2.150596 1.575590 0
M  V30 6 C 3.195113 3.025602 0.975609 0
M  V30 7 C 4.578613 2.977131 0.849246 0
M  V30 8 N 5.197169 3.979396 0.195133 0
M  V30 9 C 4.479104 5.006641 -0.324738 0
M  V30 10 C 3.104462 5.107526 -0.229912 0
M  V30 11 C 2.484669 4.077336 0.441267 0
M  V30 12 C 1.177224 3.807615 0.746466 0
M  V30 13 C 0.034044 4.505977 0.461559 0
M  V30 14 N -1.158026 4.014710 0.877525 0
M  V30 15 C -1.244102 2.862405 1.561355 0
M  V30 16 N -2.257250 2.032330 2.137484 0
M  V30 17 C -2.583870 0.859694 1.407431 0
M  V30 18 C -3.521733 -0.051134 1.884002 0
M  V30 19 C -3.819285 -1.194875 1.172577 0
M  V30 20 C -3.185079 -1.445410 -0.025058 0
M  V30 21 N -3.319317 -2.572785 -0.870493 0
M  V30 22 C -3.682326 -3.964045 -0.599604 0
M  V30 23 C -3.141460 -4.889030 -1.635875 0
M  V30 24 C -1.834480 -4.546512 -2.237473 0
M  V30 25 N -0.663495 -5.074098 -1.595889 0
M  V30 26 C -0.560175 -6.505374 -1.590687 0
M  V30 27 C -0.297774 -4.465672 -0.357447 0
M  V30 28 C -1.736912 -3.084783 -2.538089 0
M  V30 29 C -3.096771 -2.473062 -2.305096 0
M  V30 30 N -2.268710 -0.535754 -0.475755 0
M  V30 31 N -2.012642 0.547520 0.237080 0
M  V30 32 N -0.084009 2.222524 1.810145 0
M  V30 33 C 1.128376 2.619833 1.445800 0
M  V30 34 H 1.670087 -1.020894 4.801682 0
M  V30 35 H 3.410835 -0.483573 4.521734 0
M  V30 36 H 2.513172 -1.297492 3.214819 0
M  V30 37 H 0.797202 0.572316 3.372909 0
M  V30 38 H 2.120362 1.462588 4.282929 0
M  V30 39 H 3.727881 0.867729 2.472603 0
M  V30 40 H 2.224535 0.167250 0.283872 0
M  V30 41 H 1.364469 -0.730810 1.558804 0
M  V30 42 H 3.180762 -0.939240 1.267072 0
M  V30 43 H 5.168772 2.174841 1.253404 0
M  V30 44 H 5.074750 5.755765 -0.825253 0
M  V30 45 H 2.560569 5.943772 -0.659066 0
M  V30 46 H -0.038448 5.434662 -0.079023 0
M  V30 47 H -2.752883 2.247713 3.042015 0
M  V30 48 H -3.991109 0.175570 2.806771 0
M  V30 49 H -4.526501 -1.917287 1.488291 0
M  V30 50 H -3.279506 -4.291652 0.386558 0
M  V30 51 H -4.789591 -4.009457 -0.626171 0
M  V30 52 H -3.916138 -5.115540 -2.432824 0
M  V30 53 H -3.011008 -5.901183 -1.143981 0
M  V30 54 H -1.826690 -5.054302 -3.266100 0
M  V30 55 H 0.232737 -6.768791 -2.339252 0
M  V30 56 H -0.119962 -6.807653 -0.612689 0
M  V30 57 H -1.477891 -7.025735 -1.861635 0
M  V30 58 H -0.884528 -3.603354 -0.051890 0
M  V30 59 H 0.782420 -4.146744 -0.450167 0
M  V30 60 H -0.291844 -5.263642 0.424216 0
M  V30 61 H -1.044733 -2.550163 -1.833729 0
M  V30 62 H -1.342905 -2.853878 -3.548695 0
M  V30 63 H -3.894476 -2.970577 -2.883143 0
M  V30 64 H -3.009834 -1.394181 -2.606781 0
M  V30 END ATOM
M  V30 BEGIN BOND
M  V30 1 1 1 2
M  V30 2 1 2 3
M  V30 3 1 3 4
M  V30 4 1 3 5
M  V30 5 1 5 6
M  V30 6 2 6 7
M  V30 7 1 7 8
M  V30 8 2 8 9
M  V30 9 1 9 10
M  V30 10 2 10 11
M  V30 11 1 11 12
M  V30 12 2 12 13
M  V30 13 1 13 14
M  V30 14 2 14 15
M  V30 15 1 15 16
M  V30 16 1 16 17
M  V30 17 2 17 18
M  V30 18 1 18 19
M  V30 19 2 19 20
M  V30 20 1 20 21
M  V30 21 1 21 22
M  V30 22 1 22 23
M  V30 23 1 23 24
M  V30 24 1 24 25
M  V30 25 1 25 26
M  V30 26 1 25 27
M  V30 27 1 24 28
M  V30 28 1 28 29
M  V30 29 1 20 30
M  V30 30 2 30 31
M  V30 31 1 15 32
M  V30 32 2 32 33
M  V30 33 1 33 5
M  V30 34 1 11 6
M  V30 35 1 33 12
M  V30 36 1 31 17
M  V30 37 1 29 21
M  V30 38 1 1 34
M  V30 39 1 1 35
M  V30 40 1 1 36
M  V30 41 1 2 37
M  V30 42 1 2 38
M  V30 43 1 3 39 CFG=1
M  V30 44 1 4 40
M  V30 45 1 4 41
M  V30 46 1 4 42
M  V30 47 1 7 43
M  V30 48 1 9 44
M  V30 49 1 10 45
M  V30 50 1 13 46
M  V30 51 1 16 47
M  V30 52 1 18 48
M  V30 53 1 19 49
M  V30 54 1 22 50
M  V30 55 1 22 51
M  V30 56 1 23 52
M  V30 57 1 23 53
M  V30 58 1 24 54
M  V30 59 1 26 55
M  V30 60 1 26 56
M  V30 61 1 26 57
M  V30 62 1 27 58
M  V30 63 1 27 59
M  V30 64 1 27 60
M  V30 65 1 28 61
M  V30 66 1 28 62
M  V30 67 1 29 63
M  V30 68 1 29 64
M  V30 END BOND
M  V30 END CTAB
M  END
>  <Dataset>  (607) 
ChEMBL_Kinases

>  <Ligand_Instance>  (607) 
nan

>  <PDB_ID>  (607) 
nan

>  <Standardized_SMILES>  (607) 
CC[C@@H](C)n1c2cnccc2c2cnc(Nc3ccc(N4CCC(N(C)C)CC4)nn3)nc21

>  <Name>  (607) 
nan

>  <Pocket>  (607) 
nan

>  <ATP_Site>  (607) 
nan

>  <Peripheral>  (607) 
nan

>  <Num_H_Atoms_ProtBoundConf>  (607) 
nan

>  <Num_Resolved_Atoms>  (607) 
nan

>  <Num_Not_Resolved_Atoms>  (607) 
nan

$$$$
CHEMBL4545000
     RDKit          3D

  0  0  0  0  0  0  0  0  0  0999 V3000
M  V30 BEGIN CTAB
M  V30 COUNTS 35 38 0 0 0
M  V30 BEGIN ATOM
M  V30 1 C -0.125008 -4.762932 1.884758 0
M  V30 2 C 0.954977 -4.792642 1.034348 0
M  V30 3 C 1.810437 -3.697985 0.967908 0
M  V30 4 C 1.543258 -2.605092 1.767752 0
M  V30 5 C 2.349307 -1.387541 1.807075 0
M  V30 6 N 3.698538 -1.346567 1.740459 0
M  V30 7 O 4.093861 -0.094242 1.803984 0
M  V30 8 C 3.056974 0.706465 1.910871 0
M  V30 9 C 2.983863 2.186737 2.013933 0
M  V30 10 S 2.872067 3.016104 0.428644 0
M  V30 11 C 1.312312 2.610507 -0.342224 0
M  V30 12 N 1.136681 3.197625 -1.554835 0
M  V30 13 N -0.062043 2.805773 -2.004408 0
M  V30 14 C -0.612248 1.992917 -1.084719 0
M  V30 15 C -1.908498 1.325258 -1.136540 0
M  V30 16 C -2.290332 0.523768 -0.081151 0
M  V30 17 C -3.545667 -0.080483 -0.202718 0
M  V30 18 N -4.342620 0.100842 -1.278870 0
M  V30 19 C -3.952711 0.879413 -2.286181 0
M  V30 20 C -2.712917 1.529327 -2.260373 0
M  V30 21 O 0.238274 1.880261 -0.070741 0
M  V30 22 N 1.961402 -0.102090 1.912995 0
M  V30 23 C 0.442898 -2.596355 2.622546 0
M  V30 24 C -0.421013 -3.685314 2.698581 0
M  V30 25 H -0.814002 -5.610161 1.956819 0
M  V30 26 H 1.157571 -5.661452 0.406383 0
M  V30 27 H 2.678510 -3.652877 0.322180 0
M  V30 28 H 2.095135 2.436730 2.665424 0
M  V30 29 H 3.873103 2.590127 2.568817 0
M  V30 30 H -1.642690 0.393767 0.762821 0
M  V30 31 H -3.827208 -0.705218 0.633717 0
M  V30 32 H -4.604920 1.008327 -3.131555 0
M  V30 33 H -2.401012 2.166568 -3.092703 0
M  V30 34 H 0.176212 -1.767066 3.279252 0
M  V30 35 H -1.278327 -3.673956 3.367044 0
M  V30 END ATOM
M  V30 BEGIN BOND
M  V30 1 2 1 2
M  V30 2 1 2 3
M  V30 3 2 3 4
M  V30 4 1 4 5
M  V30 5 2 5 6
M  V30 6 1 6 7
M  V30 7 1 7 8
M  V30 8 1 8 9
M  V30 9 1 9 10
M  V30 10 1 10 11
M  V30 11 2 11 12
M  V30 12 1 12 13
M  V30 13 2 13 14
M  V30 14 1 14 15
M  V30 15 2 15 16
M  V30 16 1 16 17
M  V30 17 2 17 18
M  V30 18 1 18 19
M  V30 19 2 19 20
M  V30 20 1 14 21
M  V30 21 2 8 22
M  V30 22 1 4 23
M  V30 23 2 23 24
M  V30 24 1 24 1
M  V30 25 1 22 5
M  V30 26 1 21 11
M  V30 27 1 20 15
M  V30 28 1 1 25
M  V30 29 1 2 26
M  V30 30 1 3 27
M  V30 31 1 9 28
M  V30 32 1 9 29
M  V30 33 1 16 30
M  V30 34 1 17 31
M  V30 35 1 19 32
M  V30 36 1 20 33
M  V30 37 1 23 34
M  V30 38 1 24 35
M  V30 END BOND
M  V30 END CTAB
M  END
>  <Dataset>  (608) 
ChEMBL_Kinases

>  <Ligand_Instance>  (608) 
nan

>  <PDB_ID>  (608) 
nan

>  <Standardized_SMILES>  (608) 
c1ccc(-c2noc(CSc3nnc(-c4ccncc4)o3)n2)cc1

>  <Name>  (608) 
nan

>  <Pocket>  (608) 
nan

>  <ATP_Site>  (608) 
nan

>  <Peripheral>  (608) 
nan

>  <Num_H_Atoms_ProtBoundConf>  (608) 
nan

>  <Num_Resolved_Atoms>  (608) 
nan

>  <Num_Not_Resolved_Atoms>  (608) 
nan

$$$$
CHEMBL3702217
     RDKit          3D

  0  0  0  0  0  0  0  0  0  0999 V3000
M  V30 BEGIN CTAB
M  V30 COUNTS 58 62 0 0 0
M  V30 BEGIN ATOM
M  V30 1 C 3.457632 -0.601807 0.079341 0
M  V30 2 C 4.319771 -0.524341 1.318857 0
M  V30 3 C 3.555394 0.137091 2.439186 0 CFG=1
M  V30 4 C 4.391171 0.235471 3.704662 0
M  V30 5 N 2.971312 1.409715 2.068547 0
M  V30 6 C 3.580597 2.532266 1.709722 0
M  V30 7 C 4.888631 2.892044 1.558478 0
M  V30 8 N 5.253697 4.132572 1.171590 0
M  V30 9 C 4.322642 5.065178 0.919658 0
M  V30 10 C 2.966342 4.827215 1.035658 0
M  V30 11 C 2.648379 3.538953 1.435555 0
M  V30 12 C 1.412366 2.970327 1.647084 0
M  V30 13 C 0.096045 3.364192 1.572842 0
M  V30 14 N -0.931494 2.543370 1.856285 0
M  V30 15 C -0.709696 1.253388 2.238831 0
M  V30 16 N -1.614500 0.217104 2.591439 0
M  V30 17 C -2.219490 -0.611497 1.601926 0
M  V30 18 C -3.084950 -1.630549 1.940145 0
M  V30 19 C -3.660481 -2.406365 0.954708 0
M  V30 20 C -3.341374 -2.126917 -0.357319 0
M  V30 21 N -3.840354 -2.823004 -1.494039 0
M  V30 22 C -3.567812 -2.471231 -2.901572 0
M  V30 23 C -2.725869 -3.584443 -3.519719 0
M  V30 24 N -2.668494 -4.721741 -2.611263 0
M  V30 25 C -3.993942 -5.101414 -2.235856 0 CFG=1
M  V30 26 C -4.003136 -6.394399 -1.442980 0
M  V30 27 C -4.694070 -3.989819 -1.514291 0
M  V30 28 N -2.492329 -1.125763 -0.668200 0
M  V30 29 N -1.942069 -0.382903 0.288471 0
M  V30 30 N 0.586671 0.860375 2.313227 0
M  V30 31 C 1.627336 1.660619 2.035654 0
M  V30 32 H 3.175401 -1.654233 -0.177781 0
M  V30 33 H 4.046384 -0.219191 -0.802543 0
M  V30 34 H 2.547852 0.043322 0.197835 0
M  V30 35 H 5.311096 -0.112921 1.126946 0
M  V30 36 H 4.492357 -1.590913 1.643097 0
M  V30 37 H 2.734803 -0.594927 2.698305 0
M  V30 38 H 4.782420 1.277239 3.792918 0
M  V30 39 H 3.718199 0.109243 4.589173 0
M  V30 40 H 5.164622 -0.534379 3.769633 0
M  V30 41 H 5.655901 2.169059 1.752512 0
M  V30 42 H 4.645636 6.043621 0.614004 0
M  V30 43 H 2.188798 5.525447 0.848969 0
M  V30 44 H -0.138136 4.356854 1.280742 0
M  V30 45 H -1.851715 0.045197 3.587675 0
M  V30 46 H -3.329936 -1.843653 2.971987 0
M  V30 47 H -4.343205 -3.216032 1.137773 0
M  V30 48 H -4.486130 -2.272101 -3.469948 0
M  V30 49 H -2.950608 -1.552464 -2.921411 0
M  V30 50 H -3.255944 -3.921793 -4.428609 0
M  V30 51 H -1.734513 -3.200902 -3.803849 0
M  V30 52 H -2.093309 -4.408461 -1.791308 0
M  V30 53 H -4.579454 -5.321420 -3.157972 0
M  V30 54 H -3.386189 -6.328994 -0.528228 0
M  V30 55 H -3.558724 -7.171529 -2.104305 0
M  V30 56 H -5.055402 -6.683033 -1.273548 0
M  V30 57 H -5.694379 -3.763814 -1.943161 0
M  V30 58 H -4.849148 -4.360760 -0.458272 0
M  V30 END ATOM
M  V30 BEGIN BOND
M  V30 1 1 1 2
M  V30 2 1 2 3
M  V30 3 1 3 4
M  V30 4 1 3 5
M  V30 5 1 5 6
M  V30 6 2 6 7
M  V30 7 1 7 8
M  V30 8 2 8 9
M  V30 9 1 9 10
M  V30 10 2 10 11
M  V30 11 1 11 12
M  V30 12 2 12 13
M  V30 13 1 13 14
M  V30 14 2 14 15
M  V30 15 1 15 16
M  V30 16 1 16 17
M  V30 17 2 17 18
M  V30 18 1 18 19
M  V30 19 2 19 20
M  V30 20 1 20 21
M  V30 21 1 21 22
M  V30 22 1 22 23
M  V30 23 1 23 24
M  V30 24 1 24 25
M  V30 25 1 25 26
M  V30 26 1 25 27
M  V30 27 1 20 28
M  V30 28 2 28 29
M  V30 29 1 15 30
M  V30 30 2 30 31
M  V30 31 1 31 5
M  V30 32 1 11 6
M  V30 33 1 31 12
M  V30 34 1 29 17
M  V30 35 1 27 21
M  V30 36 1 1 32
M  V30 37 1 1 33
M  V30 38 1 1 34
M  V30 39 1 2 35
M  V30 40 1 2 36
M  V30 41 1 3 37 CFG=1
M  V30 42 1 4 38
M  V30 43 1 4 39
M  V30 44 1 4 40
M  V30 45 1 7 41
M  V30 46 1 9 42
M  V30 47 1 10 43
M  V30 48 1 13 44
M  V30 49 1 16 45
M  V30 50 1 18 46
M  V30 51 1 19 47
M  V30 52 1 22 48
M  V30 53 1 22 49
M  V30 54 1 23 50
M  V30 55 1 23 51
M  V30 56 1 24 52
M  V30 57 1 25 53 CFG=3
M  V30 58 1 26 54
M  V30 59 1 26 55
M  V30 60 1 26 56
M  V30 61 1 27 57
M  V30 62 1 27 58
M  V30 END BOND
M  V30 END CTAB
M  END
>  <Dataset>  (609) 
ChEMBL_Kinases

>  <Ligand_Instance>  (609) 
nan

>  <PDB_ID>  (609) 
nan

>  <Standardized_SMILES>  (609) 
CC[C@@H](C)n1c2cnccc2c2cnc(Nc3ccc(N4CCN[C@@H](C)C4)nn3)nc21

>  <Name>  (609) 
nan

>  <Pocket>  (609) 
nan

>  <ATP_Site>  (609) 
nan

>  <Peripheral>  (609) 
nan

>  <Num_H_Atoms_ProtBoundConf>  (609) 
nan

>  <Num_Resolved_Atoms>  (609) 
nan

>  <Num_Not_Resolved_Atoms>  (609) 
nan

$$$$
CHEMBL3699778
     RDKit          3D

  0  0  0  0  0  0  0  0  0  0999 V3000
M  V30 BEGIN CTAB
M  V30 COUNTS 60 65 0 0 0
M  V30 BEGIN ATOM
M  V30 1 C 6.361931 -5.323502 4.871083 0
M  V30 2 C 5.315000 -4.698831 4.014564 0
M  V30 3 C 4.803645 -3.404161 4.145457 0
M  V30 4 C 3.874075 -3.362281 3.100527 0
M  V30 5 C 3.070720 -2.151846 2.846680 0
M  V30 6 C 3.169216 -1.001349 3.601820 0
M  V30 7 C 2.385795 0.095118 3.304802 0
M  V30 8 C 2.538998 1.307303 4.156566 0
M  V30 9 C 1.501849 0.031881 2.245070 0
M  V30 10 N 0.636130 0.962469 1.760894 0
M  V30 11 C -0.024683 0.434343 0.701238 0
M  V30 12 C -1.049704 0.999329 -0.172485 0
M  V30 13 C -0.905479 1.711368 -1.337245 0
M  V30 14 C -2.032906 2.159896 -2.022564 0
M  V30 15 C -3.325824 1.900498 -1.549969 0
M  V30 16 C -4.317485 2.490497 -2.476746 0
M  V30 17 N -4.078208 3.878595 -2.812808 0
M  V30 18 C -5.764436 2.296480 -2.097432 0
M  V30 19 C -5.873300 1.121107 -3.057131 0
M  V30 20 C -4.590683 1.619941 -3.694693 0
M  V30 21 C -3.437963 1.184367 -0.379648 0
M  V30 22 C -2.331907 0.737499 0.304202 0
M  V30 23 C 0.452401 -0.872519 0.525419 0
M  V30 24 C 0.121910 -1.912909 -0.435396 0
M  V30 25 C 0.275388 -1.874567 -1.812157 0
M  V30 26 C -0.094078 -2.963815 -2.575810 0
M  V30 27 C -0.620699 -4.117541 -2.031850 0
M  V30 28 C -0.759486 -4.120707 -0.657978 0
M  V30 29 C -0.410301 -3.066897 0.162782 0
M  V30 30 N 1.392775 -1.088938 1.494293 0
M  V30 31 C 2.174396 -2.172130 1.796633 0
M  V30 32 N 3.874481 -4.538960 2.447914 0
M  V30 33 N 4.746958 -5.365543 2.991763 0
M  V30 34 H 7.204336 -5.634940 4.231384 0
M  V30 35 H 6.682064 -4.647528 5.687807 0
M  V30 36 H 5.955910 -6.252090 5.341519 0
M  V30 37 H 5.118397 -2.696519 4.899335 0
M  V30 38 H 3.888202 -1.042266 4.412287 0
M  V30 39 H 2.495962 1.055276 5.236060 0
M  V30 40 H 1.784263 2.078357 3.915082 0
M  V30 41 H 3.542500 1.750566 3.948970 0
M  V30 42 H 0.106728 1.862150 -1.623500 0
M  V30 43 H -1.743045 2.700960 -2.913544 0
M  V30 44 H -4.328459 4.515348 -2.017734 0
M  V30 45 H -4.749891 4.098753 -3.606777 0
M  V30 46 H -6.441900 3.143497 -2.355620 0
M  V30 47 H -5.938055 1.988878 -1.053330 0
M  V30 48 H -6.758709 1.252772 -3.719095 0
M  V30 49 H -5.765524 0.139764 -2.571187 0
M  V30 50 H -3.844621 0.820196 -3.754897 0
M  V30 51 H -4.728240 2.207478 -4.604823 0
M  V30 52 H -4.461066 1.036362 -0.101249 0
M  V30 53 H -2.610578 0.195029 1.198152 0
M  V30 54 H 0.691164 -0.950576 -2.192308 0
M  V30 55 H 0.046116 -2.882867 -3.645437 0
M  V30 56 H -0.894629 -4.940051 -2.660023 0
M  V30 57 H -1.176338 -5.027995 -0.203254 0
M  V30 58 H -0.559757 -3.170661 1.230928 0
M  V30 59 H 2.098308 -3.086844 1.198993 0
M  V30 60 H 3.265010 -4.752210 1.629336 0
M  V30 END ATOM
M  V30 BEGIN BOND
M  V30 1 1 1 2
M  V30 2 1 2 3
M  V30 3 2 3 4
M  V30 4 1 4 5
M  V30 5 1 5 6
M  V30 6 2 6 7
M  V30 7 1 7 8
M  V30 8 1 7 9
M  V30 9 2 9 10
M  V30 10 1 10 11
M  V30 11 1 11 12
M  V30 12 2 12 13
M  V30 13 1 13 14
M  V30 14 2 14 15
M  V30 15 1 15 16
M  V30 16 1 16 17
M  V30 17 1 16 18
M  V30 18 1 18 19
M  V30 19 1 19 20
M  V30 20 1 15 21
M  V30 21 2 21 22
M  V30 22 2 11 23
M  V30 23 1 23 24
M  V30 24 2 24 25
M  V30 25 1 25 26
M  V30 26 2 26 27
M  V30 27 1 27 28
M  V30 28 2 28 29
M  V30 29 1 23 30
M  V30 30 1 30 31
M  V30 31 1 4 32
M  V30 32 1 32 33
M  V30 33 2 33 2
M  V30 34 2 31 5
M  V30 35 1 30 9
M  V30 36 1 22 12
M  V30 37 1 29 24
M  V30 38 1 20 16
M  V30 39 1 1 34
M  V30 40 1 1 35
M  V30 41 1 1 36
M  V30 42 1 3 37
M  V30 43 1 6 38
M  V30 44 1 8 39
M  V30 45 1 8 40
M  V30 46 1 8 41
M  V30 47 1 13 42
M  V30 48 1 14 43
M  V30 49 1 17 44
M  V30 50 1 17 45
M  V30 51 1 18 46
M  V30 52 1 18 47
M  V30 53 1 19 48
M  V30 54 1 19 49
M  V30 55 1 20 50
M  V30 56 1 20 51
M  V30 57 1 21 52
M  V30 58 1 22 53
M  V30 59 1 25 54
M  V30 60 1 26 55
M  V30 61 1 27 56
M  V30 62 1 28 57
M  V30 63 1 29 58
M  V30 64 1 31 59
M  V30 65 1 32 60
M  V30 END BOND
M  V30 END CTAB
M  END
>  <Dataset>  (610) 
ChEMBL_Kinases

>  <Ligand_Instance>  (610) 
nan

>  <PDB_ID>  (610) 
nan

>  <Standardized_SMILES>  (610) 
Cc1cc(-c2cc(C)c3nc(-c4ccc(C5(N)CCC5)cc4)c(-c4ccccc4)n3c2)[nH]n1

>  <Name>  (610) 
nan

>  <Pocket>  (610) 
nan

>  <ATP_Site>  (610) 
nan

>  <Peripheral>  (610) 
nan

>  <Num_H_Atoms_ProtBoundConf>  (610) 
nan

>  <Num_Resolved_Atoms>  (610) 
nan

>  <Num_Not_Resolved_Atoms>  (610) 
nan

$$$$
CHEMBL4543738
     RDKit          3D

  0  0  0  0  0  0  0  0  0  0999 V3000
M  V30 BEGIN CTAB
M  V30 COUNTS 51 55 0 0 0
M  V30 BEGIN ATOM
M  V30 1 C 2.131865 -0.614561 5.341886 0
M  V30 2 C 2.487561 -1.826876 4.560454 0
M  V30 3 C 2.470133 -3.063022 5.171362 0
M  V30 4 C 2.798151 -4.166849 4.443230 0
M  V30 5 C 3.141431 -4.058853 3.122390 0
M  V30 6 C 3.182144 -2.843645 2.433986 0
M  V30 7 N 3.543763 -2.757715 1.085856 0
M  V30 8 C 3.617331 -1.610492 0.234876 0
M  V30 9 C 2.305797 -0.953660 -0.002831 0
M  V30 10 N 1.538385 0.017452 0.517195 0
M  V30 11 C 0.389714 0.171696 -0.160401 0
M  V30 12 C -0.571262 1.186502 0.264196 0
M  V30 13 C -1.062313 2.297503 -0.278752 0
M  V30 14 C -1.973047 3.050498 0.386614 0
M  V30 15 C -2.604831 4.220515 0.019751 0
M  V30 16 N -3.472980 4.805245 0.824074 0
M  V30 17 C -3.863714 4.403319 2.036853 0
M  V30 18 C -3.277121 3.243815 2.471134 0
M  V30 19 C -2.347541 2.590899 1.644183 0
M  V30 20 S -1.388426 1.093104 1.845184 0
M  V30 21 C 0.417659 -0.754947 -1.178057 0
M  V30 22 C -0.675248 -0.882127 -2.130626 0
M  V30 23 C -1.131183 0.032183 -3.055528 0
M  V30 24 C -2.202103 -0.303985 -3.870978 0
M  V30 25 C -2.777341 -1.559769 -3.721684 0
M  V30 26 C -2.313897 -2.466165 -2.794223 0
M  V30 27 C -2.978970 -3.789765 -2.692262 0
M  V30 28 N -1.283816 -2.088431 -2.039503 0
M  V30 29 N 1.580271 -1.419997 -1.062552 0
M  V30 30 C 2.841018 -1.777611 3.228466 0
M  V30 31 H 1.659923 0.076282 4.613850 0
M  V30 32 H 1.366087 -0.831197 6.117529 0
M  V30 33 H 3.010523 -0.117476 5.778539 0
M  V30 34 H 2.205238 -3.181885 6.206308 0
M  V30 35 H 2.782660 -5.130930 4.927813 0
M  V30 36 H 3.391163 -4.991365 2.609035 0
M  V30 37 H 3.802255 -3.682495 0.622717 0
M  V30 38 H 4.142625 -1.827534 -0.710818 0
M  V30 39 H 4.228468 -0.844584 0.799967 0
M  V30 40 H -0.677128 2.531728 -1.264577 0
M  V30 41 H -2.464338 4.753653 -0.913507 0
M  V30 42 H -4.575153 4.891900 2.683832 0
M  V30 43 H -3.466721 2.755398 3.434922 0
M  V30 44 H -0.593712 0.949970 -3.057107 0
M  V30 45 H -2.512056 0.449325 -4.571390 0
M  V30 46 H -3.607744 -1.743880 -4.395599 0
M  V30 47 H -4.093616 -3.635954 -2.737568 0
M  V30 48 H -2.818274 -4.249934 -1.676250 0
M  V30 49 H -2.648932 -4.520194 -3.437327 0
M  V30 50 H 1.756573 -2.167486 -1.769597 0
M  V30 51 H 2.838436 -0.784310 2.819595 0
M  V30 END ATOM
M  V30 BEGIN BOND
M  V30 1 1 1 2
M  V30 2 2 2 3
M  V30 3 1 3 4
M  V30 4 2 4 5
M  V30 5 1 5 6
M  V30 6 1 6 7
M  V30 7 1 7 8
M  V30 8 1 8 9
M  V30 9 2 9 10
M  V30 10 1 10 11
M  V30 11 1 11 12
M  V30 12 2 12 13
M  V30 13 1 13 14
M  V30 14 2 14 15
M  V30 15 1 15 16
M  V30 16 2 16 17
M  V30 17 1 17 18
M  V30 18 2 18 19
M  V30 19 1 19 20
M  V30 20 2 11 21
M  V30 21 1 21 22
M  V30 22 2 22 23
M  V30 23 1 23 24
M  V30 24 2 24 25
M  V30 25 1 25 26
M  V30 26 1 26 27
M  V30 27 2 26 28
M  V30 28 1 21 29
M  V30 29 2 6 30
M  V30 30 1 30 2
M  V30 31 1 29 9
M  V30 32 1 20 12
M  V30 33 1 28 22
M  V30 34 1 19 14
M  V30 35 1 1 31
M  V30 36 1 1 32
M  V30 37 1 1 33
M  V30 38 1 3 34
M  V30 39 1 4 35
M  V30 40 1 5 36
M  V30 41 1 7 37
M  V30 42 1 8 38
M  V30 43 1 8 39
M  V30 44 1 13 40
M  V30 45 1 15 41
M  V30 46 1 17 42
M  V30 47 1 18 43
M  V30 48 1 23 44
M  V30 49 1 24 45
M  V30 50 1 25 46
M  V30 51 1 27 47
M  V30 52 1 27 48
M  V30 53 1 27 49
M  V30 54 1 29 50
M  V30 55 1 30 51
M  V30 END BOND
M  V30 END CTAB
M  END
>  <Dataset>  (611) 
ChEMBL_Kinases

>  <Ligand_Instance>  (611) 
nan

>  <PDB_ID>  (611) 
nan

>  <Standardized_SMILES>  (611) 
Cc1cccc(NCc2nc(-c3cc4cnccc4s3)c(-c3cccc(C)n3)[nH]2)c1

>  <Name>  (611) 
nan

>  <Pocket>  (611) 
nan

>  <ATP_Site>  (611) 
nan

>  <Peripheral>  (611) 
nan

>  <Num_H_Atoms_ProtBoundConf>  (611) 
nan

>  <Num_Resolved_Atoms>  (611) 
nan

>  <Num_Not_Resolved_Atoms>  (611) 
nan

$$$$
CHEMBL3699777
     RDKit          3D

  0  0  0  0  0  0  0  0  0  0999 V3000
M  V30 BEGIN CTAB
M  V30 COUNTS 59 64 0 0 0
M  V30 BEGIN ATOM
M  V30 1 C 4.890237 -1.218744 0.642952 0
M  V30 2 C 3.901534 -0.211567 1.108935 0
M  V30 3 C 4.329234 0.876178 1.830344 0
M  V30 4 C 3.350216 1.784199 2.237729 0
M  V30 5 C 3.758816 2.956763 3.007320 0
M  V30 6 C 2.932370 3.540788 3.955973 0
M  V30 7 C 3.379028 4.652516 4.653101 0
M  V30 8 C 4.635520 5.150962 4.385870 0
M  V30 9 N 5.466255 4.602431 3.464886 0
M  V30 10 C 5.021448 3.522128 2.793481 0
M  V30 11 C 2.008353 1.596085 1.928108 0
M  V30 12 N 1.678937 0.502988 1.217776 0
M  V30 13 C 0.440769 0.110927 0.799422 0
M  V30 14 C -0.861026 0.739102 0.990024 0
M  V30 15 C -1.282709 1.984804 0.566999 0
M  V30 16 C -2.566306 2.403378 0.847886 0
M  V30 17 C -3.473220 1.633438 1.541904 0
M  V30 18 C -3.046252 0.389552 1.962125 0
M  V30 19 C -1.767475 -0.045361 1.690546 0
M  V30 20 C 0.575679 -1.072214 0.102149 0
M  V30 21 C -0.374799 -1.954987 -0.571646 0
M  V30 22 C -1.160474 -1.595555 -1.666925 0
M  V30 23 C -2.006232 -2.558105 -2.178522 0
M  V30 24 C -2.103307 -3.834554 -1.660484 0
M  V30 25 C -3.077740 -4.676708 -2.381755 0
M  V30 26 N -3.020652 -4.550407 -3.833004 0
M  V30 27 C -4.499630 -4.644199 -1.871618 0
M  V30 28 C -4.581874 -6.122323 -2.262028 0
M  V30 29 C -3.063342 -6.152805 -2.041057 0
M  V30 30 C -1.312366 -4.167775 -0.571995 0
M  V30 31 C -0.450768 -3.237699 -0.025904 0
M  V30 32 N 1.904622 -1.389138 0.104085 0
M  V30 33 C 2.577621 -0.427792 0.784897 0
M  V30 34 H 4.976849 -1.996592 1.433863 0
M  V30 35 H 5.898954 -0.751293 0.505931 0
M  V30 36 H 4.613274 -1.642850 -0.349724 0
M  V30 37 H 5.379837 0.988263 2.051259 0
M  V30 38 H 1.946517 3.105667 4.128288 0
M  V30 39 H 2.739766 5.093761 5.378080 0
M  V30 40 H 5.021662 6.010279 4.902126 0
M  V30 41 H 5.709227 3.091376 2.050953 0
M  V30 42 H 1.289502 2.312251 2.257078 0
M  V30 43 H -0.530838 2.542504 0.029454 0
M  V30 44 H -2.853987 3.389690 0.495738 0
M  V30 45 H -4.467732 2.061815 1.711378 0
M  V30 46 H -3.779719 -0.203309 2.509966 0
M  V30 47 H -1.534035 -1.033073 2.063017 0
M  V30 48 H -1.050040 -0.593697 -2.033384 0
M  V30 49 H -2.580127 -2.179626 -3.035722 0
M  V30 50 H -3.827053 -4.064468 -4.245994 0
M  V30 51 H -2.090259 -4.198425 -4.154549 0
M  V30 52 H -4.555529 -4.569235 -0.767505 0
M  V30 53 H -5.180574 -3.994632 -2.448272 0
M  V30 54 H -5.158387 -6.732399 -1.545052 0
M  V30 55 H -4.791217 -6.288055 -3.341210 0
M  V30 56 H -2.881452 -6.409420 -0.983881 0
M  V30 57 H -2.526728 -6.810117 -2.750288 0
M  V30 58 H -1.445455 -5.172997 -0.229590 0
M  V30 59 H 0.143944 -3.556660 0.826011 0
M  V30 END ATOM
M  V30 BEGIN BOND
M  V30 1 1 1 2
M  V30 2 2 2 3
M  V30 3 1 3 4
M  V30 4 1 4 5
M  V30 5 2 5 6
M  V30 6 1 6 7
M  V30 7 2 7 8
M  V30 8 1 8 9
M  V30 9 2 9 10
M  V30 10 2 4 11
M  V30 11 1 11 12
M  V30 12 1 12 13
M  V30 13 1 13 14
M  V30 14 2 14 15
M  V30 15 1 15 16
M  V30 16 2 16 17
M  V30 17 1 17 18
M  V30 18 2 18 19
M  V30 19 2 13 20
M  V30 20 1 20 21
M  V30 21 2 21 22
M  V30 22 1 22 23
M  V30 23 2 23 24
M  V30 24 1 24 25
M  V30 25 1 25 26
M  V30 26 1 25 27
M  V30 27 1 27 28
M  V30 28 1 28 29
M  V30 29 1 24 30
M  V30 30 2 30 31
M  V30 31 1 20 32
M  V30 32 2 32 33
M  V30 33 1 33 2
M  V30 34 1 10 5
M  V30 35 1 33 12
M  V30 36 1 19 14
M  V30 37 1 31 21
M  V30 38 1 29 25
M  V30 39 1 1 34
M  V30 40 1 1 35
M  V30 41 1 1 36
M  V30 42 1 3 37
M  V30 43 1 6 38
M  V30 44 1 7 39
M  V30 45 1 8 40
M  V30 46 1 10 41
M  V30 47 1 11 42
M  V30 48 1 15 43
M  V30 49 1 16 44
M  V30 50 1 17 45
M  V30 51 1 18 46
M  V30 52 1 19 47
M  V30 53 1 22 48
M  V30 54 1 23 49
M  V30 55 1 26 50
M  V30 56 1 26 51
M  V30 57 1 27 52
M  V30 58 1 27 53
M  V30 59 1 28 54
M  V30 60 1 28 55
M  V30 61 1 29 56
M  V30 62 1 29 57
M  V30 63 1 30 58
M  V30 64 1 31 59
M  V30 END BOND
M  V30 END CTAB
M  END
>  <Dataset>  (612) 
ChEMBL_Kinases

>  <Ligand_Instance>  (612) 
nan

>  <PDB_ID>  (612) 
nan

>  <Standardized_SMILES>  (612) 
Cc1cc(-c2cccnc2)cn2c(-c3ccccc3)c(-c3ccc(C4(N)CCC4)cc3)nc12

>  <Name>  (612) 
nan

>  <Pocket>  (612) 
nan

>  <ATP_Site>  (612) 
nan

>  <Peripheral>  (612) 
nan

>  <Num_H_Atoms_ProtBoundConf>  (612) 
nan

>  <Num_Resolved_Atoms>  (612) 
nan

>  <Num_Not_Resolved_Atoms>  (612) 
nan

$$$$
CHEMBL3699776
     RDKit          3D

  0  0  0  0  0  0  0  0  0  0999 V3000
M  V30 BEGIN CTAB
M  V30 COUNTS 57 62 0 0 0
M  V30 BEGIN ATOM
M  V30 1 C 4.085109 -2.992433 1.323457 0
M  V30 2 C 3.580447 -1.610091 1.561392 0
M  V30 3 C 4.437751 -0.704511 2.116691 0
M  V30 4 C 4.002770 0.590829 2.352168 0
M  V30 5 C 4.857756 1.604013 2.938485 0
M  V30 6 C 6.170003 1.400745 3.320697 0
M  V30 7 C 6.709377 2.562808 3.844649 0
M  V30 8 N 5.711936 3.460756 3.773014 0
M  V30 9 N 4.624657 2.900976 3.241854 0
M  V30 10 C 2.692622 0.908584 2.005089 0
M  V30 11 N 1.873103 -0.022933 1.454884 0
M  V30 12 C 0.575542 0.076693 1.047861 0
M  V30 13 C -0.298130 1.222596 1.091978 0
M  V30 14 C 0.186589 2.233961 0.249545 0
M  V30 15 C -0.495238 3.451332 0.126526 0
M  V30 16 C -1.659311 3.682638 0.831672 0
M  V30 17 C -2.115303 2.668299 1.655468 0
M  V30 18 C -1.461314 1.461326 1.792971 0
M  V30 19 C 0.169626 -1.143603 0.551801 0
M  V30 20 C -1.076497 -1.647890 -0.014998 0
M  V30 21 C -2.325623 -1.820200 0.542322 0
M  V30 22 C -3.351832 -2.321966 -0.228639 0
M  V30 23 C -3.183065 -2.664927 -1.552557 0
M  V30 24 C -4.414041 -3.179927 -2.178050 0
M  V30 25 N -5.586218 -2.359314 -1.903110 0
M  V30 26 C -4.364961 -3.587320 -3.603693 0
M  V30 27 C -4.946741 -4.947616 -3.219445 0
M  V30 28 C -4.649340 -4.624772 -1.789883 0
M  V30 29 C -1.927267 -2.496889 -2.130289 0
M  V30 30 C -0.897467 -1.994262 -1.360252 0
M  V30 31 N 1.262695 -1.951121 0.681488 0
M  V30 32 C 2.286868 -1.266896 1.227534 0
M  V30 33 H 4.045066 -3.609634 2.256434 0
M  V30 34 H 5.122470 -2.986656 0.899885 0
M  V30 35 H 3.468003 -3.519103 0.570335 0
M  V30 36 H 5.469389 -0.976779 2.383374 0
M  V30 37 H 6.712857 0.477386 3.231586 0
M  V30 38 H 7.726445 2.708624 4.230178 0
M  V30 39 H 3.703959 3.365754 3.068453 0
M  V30 40 H 2.317804 1.926300 2.178897 0
M  V30 41 H 1.092074 2.202976 -0.372785 0
M  V30 42 H -0.149556 4.251636 -0.513395 0
M  V30 43 H -2.219148 4.611052 0.765835 0
M  V30 44 H -3.024467 2.797474 2.232238 0
M  V30 45 H -1.739482 0.637214 2.399542 0
M  V30 46 H -2.340235 -1.522194 1.578328 0
M  V30 47 H -4.280227 -2.401871 0.349383 0
M  V30 48 H -5.948398 -2.518792 -0.941289 0
M  V30 49 H -6.365584 -2.613167 -2.551102 0
M  V30 50 H -5.098515 -3.034489 -4.253564 0
M  V30 51 H -3.401635 -3.761241 -4.087062 0
M  V30 52 H -4.387401 -5.825437 -3.557771 0
M  V30 53 H -6.058091 -5.022178 -3.353966 0
M  V30 54 H -5.487153 -4.777537 -1.073455 0
M  V30 55 H -3.722611 -5.112043 -1.401117 0
M  V30 56 H -1.876123 -2.783192 -3.153917 0
M  V30 57 H 0.028069 -1.916742 -1.944581 0
M  V30 END ATOM
M  V30 BEGIN BOND
M  V30 1 1 1 2
M  V30 2 2 2 3
M  V30 3 1 3 4
M  V30 4 1 4 5
M  V30 5 2 5 6
M  V30 6 1 6 7
M  V30 7 2 7 8
M  V30 8 1 8 9
M  V30 9 2 4 10
M  V30 10 1 10 11
M  V30 11 1 11 12
M  V30 12 1 12 13
M  V30 13 2 13 14
M  V30 14 1 14 15
M  V30 15 2 15 16
M  V30 16 1 16 17
M  V30 17 2 17 18
M  V30 18 2 12 19
M  V30 19 1 19 20
M  V30 20 2 20 21
M  V30 21 1 21 22
M  V30 22 2 22 23
M  V30 23 1 23 24
M  V30 24 1 24 25
M  V30 25 1 24 26
M  V30 26 1 26 27
M  V30 27 1 27 28
M  V30 28 1 23 29
M  V30 29 2 29 30
M  V30 30 1 19 31
M  V30 31 2 31 32
M  V30 32 1 32 2
M  V30 33 1 9 5
M  V30 34 1 32 11
M  V30 35 1 18 13
M  V30 36 1 30 20
M  V30 37 1 28 24
M  V30 38 1 1 33
M  V30 39 1 1 34
M  V30 40 1 1 35
M  V30 41 1 3 36
M  V30 42 1 6 37
M  V30 43 1 7 38
M  V30 44 1 9 39
M  V30 45 1 10 40
M  V30 46 1 14 41
M  V30 47 1 15 42
M  V30 48 1 16 43
M  V30 49 1 17 44
M  V30 50 1 18 45
M  V30 51 1 21 46
M  V30 52 1 22 47
M  V30 53 1 25 48
M  V30 54 1 25 49
M  V30 55 1 26 50
M  V30 56 1 26 51
M  V30 57 1 27 52
M  V30 58 1 27 53
M  V30 59 1 28 54
M  V30 60 1 28 55
M  V30 61 1 29 56
M  V30 62 1 30 57
M  V30 END BOND
M  V30 END CTAB
M  END
>  <Dataset>  (613) 
ChEMBL_Kinases

>  <Ligand_Instance>  (613) 
nan

>  <PDB_ID>  (613) 
nan

>  <Standardized_SMILES>  (613) 
Cc1cc(-c2ccn[nH]2)cn2c(-c3ccccc3)c(-c3ccc(C4(N)CCC4)cc3)nc12

>  <Name>  (613) 
nan

>  <Pocket>  (613) 
nan

>  <ATP_Site>  (613) 
nan

>  <Peripheral>  (613) 
nan

>  <Num_H_Atoms_ProtBoundConf>  (613) 
nan

>  <Num_Resolved_Atoms>  (613) 
nan

>  <Num_Not_Resolved_Atoms>  (613) 
nan

$$$$
CHEMBL3699775
     RDKit          3D

  0  0  0  0  0  0  0  0  0  0999 V3000
M  V30 BEGIN CTAB
M  V30 COUNTS 57 62 0 0 0
M  V30 BEGIN ATOM
M  V30 1 C 4.117654 -3.133437 1.028743 0
M  V30 2 C 3.703267 -1.720050 1.215835 0
M  V30 3 C 4.566558 -0.761093 1.643888 0
M  V30 4 C 4.224263 0.560260 1.830772 0
M  V30 5 C 5.193407 1.536468 2.290338 0
M  V30 6 C 6.536244 1.441157 1.969196 0
M  V30 7 N 7.169779 2.478041 2.533131 0
M  V30 8 N 6.300249 3.226431 3.195191 0
M  V30 9 C 5.070502 2.670439 3.063866 0
M  V30 10 C 2.917102 0.967286 1.572239 0
M  V30 11 N 2.075975 0.001437 1.148559 0
M  V30 12 C 0.763624 0.162985 0.837255 0
M  V30 13 C -0.146768 1.292961 0.834643 0
M  V30 14 C -0.531466 2.075164 1.899473 0
M  V30 15 C -1.416745 3.122380 1.717791 0
M  V30 16 C -1.928669 3.399325 0.463945 0
M  V30 17 C -1.565792 2.631415 -0.645724 0
M  V30 18 C -0.672331 1.590861 -0.405247 0
M  V30 19 C 0.281051 -1.088587 0.448024 0
M  V30 20 C -1.020183 -1.584637 0.001895 0
M  V30 21 C -2.168406 -1.569502 0.776852 0
M  V30 22 C -3.354849 -2.071939 0.240680 0
M  V30 23 C -3.363424 -2.579471 -1.063499 0
M  V30 24 C -4.713358 -3.063175 -1.445262 0
M  V30 25 N -5.807136 -2.249878 -1.017514 0
M  V30 26 C -4.863841 -3.632751 -2.820114 0
M  V30 27 C -4.484480 -4.989793 -2.270410 0
M  V30 28 C -4.883849 -4.477228 -0.884838 0
M  V30 29 C -2.217946 -2.587944 -1.819513 0
M  V30 30 C -1.039194 -2.090985 -1.292612 0
M  V30 31 N 1.323913 -1.965412 0.538535 0
M  V30 32 C 2.417294 -1.286740 0.968354 0
M  V30 33 H 4.718673 -3.291633 0.117292 0
M  V30 34 H 3.247059 -3.816524 0.994548 0
M  V30 35 H 4.735011 -3.513304 1.894250 0
M  V30 36 H 5.597798 -1.055590 1.853506 0
M  V30 37 H 7.106716 0.717653 1.381093 0
M  V30 38 H 6.470901 4.102278 3.741550 0
M  V30 39 H 4.120409 2.979660 3.450810 0
M  V30 40 H 2.601596 1.995180 1.704782 0
M  V30 41 H -0.083232 1.791548 2.854021 0
M  V30 42 H -1.692455 3.713185 2.586529 0
M  V30 43 H -2.622628 4.213958 0.300364 0
M  V30 44 H -1.967218 2.853672 -1.611217 0
M  V30 45 H -0.430663 1.030594 -1.315318 0
M  V30 46 H -2.081059 -1.158601 1.781328 0
M  V30 47 H -4.186715 -2.016229 0.917652 0
M  V30 48 H -6.018096 -2.387587 -0.003046 0
M  V30 49 H -6.663580 -2.571154 -1.529960 0
M  V30 50 H -5.936598 -3.591065 -3.142693 0
M  V30 51 H -4.231158 -3.219847 -3.607480 0
M  V30 52 H -3.394978 -5.165039 -2.283459 0
M  V30 53 H -5.132316 -5.839061 -2.573229 0
M  V30 54 H -5.915708 -4.729989 -0.580856 0
M  V30 55 H -4.160717 -4.751835 -0.089870 0
M  V30 56 H -2.344981 -2.995668 -2.790550 0
M  V30 57 H -0.156495 -2.112348 -1.913431 0
M  V30 END ATOM
M  V30 BEGIN BOND
M  V30 1 1 1 2
M  V30 2 2 2 3
M  V30 3 1 3 4
M  V30 4 1 4 5
M  V30 5 1 5 6
M  V30 6 2 6 7
M  V30 7 1 7 8
M  V30 8 1 8 9
M  V30 9 2 4 10
M  V30 10 1 10 11
M  V30 11 1 11 12
M  V30 12 1 12 13
M  V30 13 2 13 14
M  V30 14 1 14 15
M  V30 15 2 15 16
M  V30 16 1 16 17
M  V30 17 2 17 18
M  V30 18 2 12 19
M  V30 19 1 19 20
M  V30 20 2 20 21
M  V30 21 1 21 22
M  V30 22 2 22 23
M  V30 23 1 23 24
M  V30 24 1 24 25
M  V30 25 1 24 26
M  V30 26 1 26 27
M  V30 27 1 27 28
M  V30 28 1 23 29
M  V30 29 2 29 30
M  V30 30 1 19 31
M  V30 31 2 31 32
M  V30 32 1 32 2
M  V30 33 2 9 5
M  V30 34 1 32 11
M  V30 35 1 18 13
M  V30 36 1 30 20
M  V30 37 1 28 24
M  V30 38 1 1 33
M  V30 39 1 1 34
M  V30 40 1 1 35
M  V30 41 1 3 36
M  V30 42 1 6 37
M  V30 43 1 8 38
M  V30 44 1 9 39
M  V30 45 1 10 40
M  V30 46 1 14 41
M  V30 47 1 15 42
M  V30 48 1 16 43
M  V30 49 1 17 44
M  V30 50 1 18 45
M  V30 51 1 21 46
M  V30 52 1 22 47
M  V30 53 1 25 48
M  V30 54 1 25 49
M  V30 55 1 26 50
M  V30 56 1 26 51
M  V30 57 1 27 52
M  V30 58 1 27 53
M  V30 59 1 28 54
M  V30 60 1 28 55
M  V30 61 1 29 56
M  V30 62 1 30 57
M  V30 END BOND
M  V30 END CTAB
M  END
>  <Dataset>  (614) 
ChEMBL_Kinases

>  <Ligand_Instance>  (614) 
nan

>  <PDB_ID>  (614) 
nan

>  <Standardized_SMILES>  (614) 
Cc1cc(-c2cn[nH]c2)cn2c(-c3ccccc3)c(-c3ccc(C4(N)CCC4)cc3)nc12

>  <Name>  (614) 
nan

>  <Pocket>  (614) 
nan

>  <ATP_Site>  (614) 
nan

>  <Peripheral>  (614) 
nan

>  <Num_H_Atoms_ProtBoundConf>  (614) 
nan

>  <Num_Resolved_Atoms>  (614) 
nan

>  <Num_Not_Resolved_Atoms>  (614) 
nan

$$$$
CHEMBL4547725
     RDKit          3D

  0  0  0  0  0  0  0  0  0  0999 V3000
M  V30 BEGIN CTAB
M  V30 COUNTS 61 64 0 0 0
M  V30 BEGIN ATOM
M  V30 1 C 0.724512 0.665807 5.508797 0
M  V30 2 O 2.027538 0.136741 5.710524 0
M  V30 3 C 2.798333 -0.095195 4.583585 0
M  V30 4 C 4.055985 -0.607946 4.829161 0
M  V30 5 C 4.941588 -0.891656 3.798346 0
M  V30 6 C 4.525371 -0.644256 2.503090 0
M  V30 7 C 3.260561 -0.129540 2.278725 0
M  V30 8 C 2.863064 0.116499 0.858781 0 CFG=1
M  V30 9 C 3.789743 -0.600714 -0.096947 0
M  V30 10 N 1.524351 -0.409391 0.733385 0
M  V30 11 C 0.483033 0.435291 0.254554 0
M  V30 12 O 0.855840 1.630485 -0.038672 0
M  V30 13 C -0.939388 0.230687 0.025140 0
M  V30 14 C -1.691557 1.063552 0.867156 0
M  V30 15 C -3.079752 1.033808 0.843749 0
M  V30 16 C -3.724783 0.182086 -0.010246 0
M  V30 17 C -5.179176 0.156135 -0.063240 0
M  V30 18 C -5.971015 -0.622641 -0.866476 0
M  V30 19 C -7.362045 -0.524545 -0.808413 0
M  V30 20 N -7.964930 0.333637 0.034433 0
M  V30 21 C -7.174715 1.090427 0.814510 0
M  V30 22 N -5.832176 1.006637 0.769420 0
M  V30 23 C -2.944444 -0.608118 -0.809276 0
M  V30 24 C -1.544157 -0.624592 -0.833627 0
M  V30 25 N -0.783689 -1.434028 -1.725572 0
M  V30 26 C -1.319411 -2.762756 -1.967045 0
M  V30 27 C -0.386759 -3.468467 -2.884194 0
M  V30 28 C 0.782564 -2.553485 -3.020328 0 CFG=2
M  V30 29 C 2.052577 -3.084740 -2.392047 0
M  V30 30 N 1.954197 -3.335114 -0.987731 0
M  V30 31 C 0.421508 -1.189596 -2.491287 0
M  V30 32 C 2.364079 0.159714 3.286259 0
M  V30 33 H 0.070603 -0.052102 5.002017 0
M  V30 34 H 0.355482 0.958879 6.524086 0
M  V30 35 H 0.784934 1.635307 4.933106 0
M  V30 36 H 4.407907 -0.812799 5.846536 0
M  V30 37 H 5.907497 -1.288512 4.035145 0
M  V30 38 H 5.237556 -0.878670 1.748002 0
M  V30 39 H 2.926445 1.183031 0.604550 0
M  V30 40 H 3.448483 -0.455086 -1.140669 0
M  V30 41 H 4.809206 -0.109399 -0.085439 0
M  V30 42 H 3.911294 -1.669028 0.101761 0
M  V30 43 H 1.161689 -1.359591 0.948060 0
M  V30 44 H -1.285666 1.780198 1.588266 0
M  V30 45 H -3.665230 1.678737 1.495549 0
M  V30 46 H -5.467715 -1.305407 -1.534194 0
M  V30 47 H -7.860480 -1.199159 -1.503065 0
M  V30 48 H -7.622400 1.809217 1.519840 0
M  V30 49 H -3.460064 -1.281269 -1.478084 0
M  V30 50 H -2.315550 -2.609073 -2.479204 0
M  V30 51 H -1.428343 -3.341301 -1.023347 0
M  V30 52 H -0.902344 -3.649821 -3.872960 0
M  V30 53 H -0.110935 -4.475807 -2.496096 0
M  V30 54 H 1.026594 -2.454506 -4.113084 0
M  V30 55 H 2.885252 -2.373606 -2.569034 0
M  V30 56 H 2.368675 -4.026189 -2.892434 0
M  V30 57 H 2.502970 -4.148942 -0.654488 0
M  V30 58 H 1.013114 -3.241543 -0.570883 0
M  V30 59 H 1.228305 -0.687677 -1.975074 0
M  V30 60 H 0.144555 -0.503877 -3.359737 0
M  V30 61 H 1.373503 0.562659 3.131790 0
M  V30 END ATOM
M  V30 BEGIN BOND
M  V30 1 1 1 2
M  V30 2 1 2 3
M  V30 3 2 3 4
M  V30 4 1 4 5
M  V30 5 2 5 6
M  V30 6 1 6 7
M  V30 7 1 7 8
M  V30 8 1 8 9
M  V30 9 1 8 10
M  V30 10 1 10 11
M  V30 11 2 11 12
M  V30 12 1 11 13
M  V30 13 2 13 14
M  V30 14 1 14 15
M  V30 15 2 15 16
M  V30 16 1 16 17
M  V30 17 2 17 18
M  V30 18 1 18 19
M  V30 19 2 19 20
M  V30 20 1 20 21
M  V30 21 2 21 22
M  V30 22 1 16 23
M  V30 23 2 23 24
M  V30 24 1 24 25
M  V30 25 1 25 26
M  V30 26 1 26 27
M  V30 27 1 27 28
M  V30 28 1 28 29
M  V30 29 1 29 30
M  V30 30 1 28 31
M  V30 31 2 7 32
M  V30 32 1 32 3
M  V30 33 1 24 13
M  V30 34 1 31 25
M  V30 35 1 22 17
M  V30 36 1 1 33
M  V30 37 1 1 34
M  V30 38 1 1 35
M  V30 39 1 4 36
M  V30 40 1 5 37
M  V30 41 1 6 38
M  V30 42 1 8 39 CFG=3
M  V30 43 1 9 40
M  V30 44 1 9 41
M  V30 45 1 9 42
M  V30 46 1 10 43
M  V30 47 1 14 44
M  V30 48 1 15 45
M  V30 49 1 18 46
M  V30 50 1 19 47
M  V30 51 1 21 48
M  V30 52 1 23 49
M  V30 53 1 26 50
M  V30 54 1 26 51
M  V30 55 1 27 52
M  V30 56 1 27 53
M  V30 57 1 28 54 CFG=3
M  V30 58 1 29 55
M  V30 59 1 29 56
M  V30 60 1 30 57
M  V30 61 1 30 58
M  V30 62 1 31 59
M  V30 63 1 31 60
M  V30 64 1 32 61
M  V30 END BOND
M  V30 END CTAB
M  END
>  <Dataset>  (615) 
ChEMBL_Kinases

>  <Ligand_Instance>  (615) 
nan

>  <PDB_ID>  (615) 
nan

>  <Standardized_SMILES>  (615) 
COc1cccc([C@@H](C)NC(=O)c2ccc(-c3ccncn3)cc2N2CC[C@H](CN)C2)c1

>  <Name>  (615) 
nan

>  <Pocket>  (615) 
nan

>  <ATP_Site>  (615) 
nan

>  <Peripheral>  (615) 
nan

>  <Num_H_Atoms_ProtBoundConf>  (615) 
nan

>  <Num_Resolved_Atoms>  (615) 
nan

>  <Num_Not_Resolved_Atoms>  (615) 
nan

$$$$
CHEMBL4541837
     RDKit          3D

  0  0  0  0  0  0  0  0  0  0999 V3000
M  V30 BEGIN CTAB
M  V30 COUNTS 52 54 0 0 0
M  V30 BEGIN ATOM
M  V30 1 C 1.621772 -2.212434 3.714405 0
M  V30 2 O 1.723700 -1.586686 4.900214 0
M  V30 3 C 2.094212 -0.306225 5.024607 0
M  V30 4 C 3.500998 -0.131583 4.411574 0
M  V30 5 C 2.354391 -0.040771 6.525341 0
M  V30 6 C 1.178293 0.758224 4.491370 0
M  V30 7 C 0.921968 0.710644 3.064137 0
M  V30 8 C 0.710680 0.692174 1.873981 0
M  V30 9 C 0.467831 0.676553 0.451570 0
M  V30 10 C 1.058517 1.593492 -0.410475 0
M  V30 11 Cl 2.162613 2.902442 -0.030620 0
M  V30 12 C 0.568440 1.230114 -1.649124 0
M  V30 13 C 0.830031 1.807997 -2.875665 0
M  V30 14 Cl 1.894782 3.191164 -3.103601 0
M  V30 15 C 0.217402 1.268116 -4.003019 0
M  V30 16 C -0.637627 0.172463 -3.894078 0
M  V30 17 C -1.263774 -0.367968 -5.102011 0
M  V30 18 N -2.134313 -1.489834 -4.959299 0
M  V30 19 O -1.019811 0.168798 -6.235593 0
M  V30 20 N -0.866459 -0.362744 -2.675139 0
M  V30 21 C -0.284198 0.138548 -1.545525 0
M  V30 22 N -0.316910 -0.168824 -0.236160 0
M  V30 23 C -1.088358 -1.246418 0.299809 0 CFG=1
M  V30 24 C -2.559890 -0.843025 0.160270 0
M  V30 25 C -3.455630 -2.059265 0.232180 0
M  V30 26 C -3.203490 -2.929219 -0.994460 0
M  V30 27 N -1.884409 -2.661510 -1.524261 0
M  V30 28 C -0.893328 -2.533034 -0.469148 0
M  V30 29 H 0.905404 -1.847068 2.982683 0
M  V30 30 H 1.345527 -3.292740 3.940200 0
M  V30 31 H 2.593729 -2.333444 3.166984 0
M  V30 32 H 3.476056 -0.352473 3.329767 0
M  V30 33 H 4.156498 -0.876391 4.896509 0
M  V30 34 H 3.900519 0.869700 4.574993 0
M  V30 35 H 2.597094 1.040162 6.589397 0
M  V30 36 H 3.265047 -0.600151 6.777118 0
M  V30 37 H 1.477664 -0.306828 7.125725 0
M  V30 38 H 0.181883 0.738305 4.989264 0
M  V30 39 H 1.589127 1.777187 4.778773 0
M  V30 40 H 0.371306 1.663888 -4.998907 0
M  V30 41 H -1.943637 -2.184608 -5.715157 0
M  V30 42 H -2.266842 -2.392749 -5.501608 0
M  V30 43 H -0.918603 -1.396993 1.377685 0
M  V30 44 H -2.768026 -0.294327 -0.760051 0
M  V30 45 H -2.842103 -0.163083 1.009025 0
M  V30 46 H -3.255884 -2.672367 1.127865 0
M  V30 47 H -4.490505 -1.679358 0.236982 0
M  V30 48 H -3.962857 -2.694817 -1.769422 0
M  V30 49 H -3.352742 -3.997074 -0.751032 0
M  V30 50 H -1.573614 -3.446923 -2.147049 0
M  V30 51 H -0.908976 -3.361240 0.252904 0
M  V30 52 H 0.090845 -2.464338 -0.970239 0
M  V30 END ATOM
M  V30 BEGIN BOND
M  V30 1 1 1 2
M  V30 2 1 2 3
M  V30 3 1 3 4
M  V30 4 1 3 5
M  V30 5 1 3 6
M  V30 6 1 6 7
M  V30 7 3 7 8
M  V30 8 1 8 9
M  V30 9 2 9 10
M  V30 10 1 10 11
M  V30 11 1 10 12
M  V30 12 2 12 13
M  V30 13 1 13 14
M  V30 14 1 13 15
M  V30 15 2 15 16
M  V30 16 1 16 17
M  V30 17 1 17 18
M  V30 18 2 17 19
M  V30 19 1 16 20
M  V30 20 2 20 21
M  V30 21 1 21 22
M  V30 22 1 22 23
M  V30 23 1 23 24
M  V30 24 1 24 25
M  V30 25 1 25 26
M  V30 26 1 26 27
M  V30 27 1 27 28
M  V30 28 1 22 9
M  V30 29 1 28 23
M  V30 30 1 21 12
M  V30 31 1 1 29
M  V30 32 1 1 30
M  V30 33 1 1 31
M  V30 34 1 4 32
M  V30 35 1 4 33
M  V30 36 1 4 34
M  V30 37 1 5 35
M  V30 38 1 5 36
M  V30 39 1 5 37
M  V30 40 1 6 38
M  V30 41 1 6 39
M  V30 42 1 15 40
M  V30 43 1 18 41
M  V30 44 1 18 42
M  V30 45 1 23 43 CFG=1
M  V30 46 1 24 44
M  V30 47 1 24 45
M  V30 48 1 25 46
M  V30 49 1 25 47
M  V30 50 1 26 48
M  V30 51 1 26 49
M  V30 52 1 27 50
M  V30 53 1 28 51
M  V30 54 1 28 52
M  V30 END BOND
M  V30 END CTAB
M  END
>  <Dataset>  (616) 
ChEMBL_Kinases

>  <Ligand_Instance>  (616) 
nan

>  <PDB_ID>  (616) 
nan

>  <Standardized_SMILES>  (616) 
COC(C)(C)CC#Cc1c(Cl)c2c(Cl)cc(C(N)=O)nc2n1[C@H]1CCCNC1

>  <Name>  (616) 
nan

>  <Pocket>  (616) 
nan

>  <ATP_Site>  (616) 
nan

>  <Peripheral>  (616) 
nan

>  <Num_H_Atoms_ProtBoundConf>  (616) 
nan

>  <Num_Resolved_Atoms>  (616) 
nan

>  <Num_Not_Resolved_Atoms>  (616) 
nan

$$$$
CHEMBL3699774
     RDKit          3D

  0  0  0  0  0  0  0  0  0  0999 V3000
M  V30 BEGIN CTAB
M  V30 COUNTS 54 58 0 0 0
M  V30 BEGIN ATOM
M  V30 1 C 0.085409 -2.103913 5.717865 0
M  V30 2 C 0.887609 -1.108790 4.959147 0
M  V30 3 C 1.881202 -0.385832 5.629669 0
M  V30 4 C 2.569673 0.509758 4.842413 0
M  V30 5 C 3.607302 1.269100 5.524237 0
M  V30 6 N 4.508761 2.261956 5.058262 0
M  V30 7 O 3.969328 1.230655 6.726173 0
M  V30 8 C 2.391918 0.763969 3.506059 0
M  V30 9 N 1.404989 0.019251 2.924392 0
M  V30 10 C 0.990018 0.034988 1.637729 0
M  V30 11 C 1.459216 0.828824 0.508300 0
M  V30 12 C 0.736335 1.759412 -0.233253 0
M  V30 13 C 1.342021 2.425665 -1.279446 0
M  V30 14 C 2.666549 2.142913 -1.560814 0
M  V30 15 C 3.422529 1.222443 -0.846077 0
M  V30 16 C 2.786925 0.574915 0.192098 0
M  V30 17 C -0.030484 -0.883338 1.508612 0
M  V30 18 C -0.816972 -1.250862 0.336357 0
M  V30 19 C -2.186852 -1.092270 0.309618 0
M  V30 20 C -2.971509 -1.429038 -0.785965 0
M  V30 21 C -2.359860 -1.957252 -1.929869 0
M  V30 22 C -3.308314 -2.263736 -2.997892 0
M  V30 23 N -4.427293 -1.316880 -3.102317 0
M  V30 24 C -3.885380 -3.665140 -2.975459 0
M  V30 25 C -3.723419 -3.705220 -4.477226 0
M  V30 26 C -2.743177 -2.556763 -4.357662 0
M  V30 27 C -0.992307 -2.107422 -1.882542 0
M  V30 28 C -0.218041 -1.771989 -0.793641 0
M  V30 29 N -0.194841 -1.423562 2.730925 0
M  V30 30 C 0.675083 -0.883906 3.611890 0
M  V30 31 H 0.628155 -2.432054 6.633566 0
M  V30 32 H -0.148911 -2.996192 5.079239 0
M  V30 33 H -0.915219 -1.650586 5.961928 0
M  V30 34 H 2.094516 -0.515649 6.676677 0
M  V30 35 H 4.867690 2.665057 4.173170 0
M  V30 36 H 4.603219 2.377224 4.011486 0
M  V30 37 H 2.987083 1.491640 2.973707 0
M  V30 38 H -0.270839 1.879211 0.090506 0
M  V30 39 H 0.752852 3.137162 -1.829656 0
M  V30 40 H 3.156927 2.662497 -2.385506 0
M  V30 41 H 4.456604 1.067067 -1.141434 0
M  V30 42 H 3.419918 -0.130319 0.715398 0
M  V30 43 H -2.637814 -0.677703 1.216382 0
M  V30 44 H -4.037250 -1.247215 -0.659203 0
M  V30 45 H -5.150464 -1.530810 -2.358140 0
M  V30 46 H -4.894039 -1.500883 -4.022135 0
M  V30 47 H -4.942318 -3.745853 -2.686852 0
M  V30 48 H -3.294568 -4.420774 -2.431357 0
M  V30 49 H -4.631964 -3.423436 -5.061976 0
M  V30 50 H -3.293372 -4.640627 -4.889497 0
M  V30 51 H -2.983044 -1.754280 -5.084666 0
M  V30 52 H -1.693220 -2.830312 -4.439874 0
M  V30 53 H -0.569037 -2.516639 -2.783119 0
M  V30 54 H 0.859635 -1.927918 -0.851525 0
M  V30 END ATOM
M  V30 BEGIN BOND
M  V30 1 1 1 2
M  V30 2 2 2 3
M  V30 3 1 3 4
M  V30 4 1 4 5
M  V30 5 1 5 6
M  V30 6 2 5 7
M  V30 7 2 4 8
M  V30 8 1 8 9
M  V30 9 1 9 10
M  V30 10 1 10 11
M  V30 11 2 11 12
M  V30 12 1 12 13
M  V30 13 2 13 14
M  V30 14 1 14 15
M  V30 15 2 15 16
M  V30 16 2 10 17
M  V30 17 1 17 18
M  V30 18 2 18 19
M  V30 19 1 19 20
M  V30 20 2 20 21
M  V30 21 1 21 22
M  V30 22 1 22 23
M  V30 23 1 22 24
M  V30 24 1 24 25
M  V30 25 1 25 26
M  V30 26 1 21 27
M  V30 27 2 27 28
M  V30 28 1 17 29
M  V30 29 2 29 30
M  V30 30 1 30 2
M  V30 31 1 30 9
M  V30 32 1 16 11
M  V30 33 1 28 18
M  V30 34 1 26 22
M  V30 35 1 1 31
M  V30 36 1 1 32
M  V30 37 1 1 33
M  V30 38 1 3 34
M  V30 39 1 6 35
M  V30 40 1 6 36
M  V30 41 1 8 37
M  V30 42 1 12 38
M  V30 43 1 13 39
M  V30 44 1 14 40
M  V30 45 1 15 41
M  V30 46 1 16 42
M  V30 47 1 19 43
M  V30 48 1 20 44
M  V30 49 1 23 45
M  V30 50 1 23 46
M  V30 51 1 24 47
M  V30 52 1 24 48
M  V30 53 1 25 49
M  V30 54 1 25 50
M  V30 55 1 26 51
M  V30 56 1 26 52
M  V30 57 1 27 53
M  V30 58 1 28 54
M  V30 END BOND
M  V30 END CTAB
M  END
>  <Dataset>  (617) 
ChEMBL_Kinases

>  <Ligand_Instance>  (617) 
nan

>  <PDB_ID>  (617) 
nan

>  <Standardized_SMILES>  (617) 
Cc1cc(C(N)=O)cn2c(-c3ccccc3)c(-c3ccc(C4(N)CCC4)cc3)nc12

>  <Name>  (617) 
nan

>  <Pocket>  (617) 
nan

>  <ATP_Site>  (617) 
nan

>  <Peripheral>  (617) 
nan

>  <Num_H_Atoms_ProtBoundConf>  (617) 
nan

>  <Num_Resolved_Atoms>  (617) 
nan

>  <Num_Not_Resolved_Atoms>  (617) 
nan

$$$$
CHEMBL3699773
     RDKit          3D

  0  0  0  0  0  0  0  0  0  0999 V3000
M  V30 BEGIN CTAB
M  V30 COUNTS 57 61 0 0 0
M  V30 BEGIN ATOM
M  V30 1 C 3.838498 -4.395865 3.881432 0
M  V30 2 C 3.195588 -3.298302 3.151151 0
M  V30 3 C 3.757222 -2.056903 3.076985 0
M  V30 4 C 5.019836 -1.784868 3.724394 0
M  V30 5 N 5.680515 -0.527223 3.704212 0
M  V30 6 O 5.823739 -2.462765 4.410707 0
M  V30 7 C 3.183144 -1.019050 2.405730 0
M  V30 8 N 1.998698 -1.277673 1.798080 0
M  V30 9 C 1.210184 -0.461873 1.072891 0
M  V30 10 C 1.358120 0.940672 0.705014 0
M  V30 11 C 1.379459 1.914519 1.701245 0
M  V30 12 C 1.520743 3.253474 1.338611 0
M  V30 13 C 1.641113 3.669813 0.045942 0
M  V30 14 C 1.621602 2.716098 -0.950255 0
M  V30 15 C 1.482202 1.391364 -0.598091 0
M  V30 16 C 0.099060 -1.135694 0.642371 0
M  V30 17 C -1.092731 -0.853997 -0.151135 0
M  V30 18 C -2.348811 -0.571908 0.399095 0
M  V30 19 C -3.439129 -0.316299 -0.422740 0
M  V30 20 C -3.310776 -0.334218 -1.807684 0
M  V30 21 C -4.566409 -0.038604 -2.509016 0
M  V30 22 N -5.214295 1.175781 -2.034794 0
M  V30 23 C -4.552778 -0.050251 -4.002689 0
M  V30 24 C -5.890313 -0.795347 -3.939256 0
M  V30 25 C -5.604843 -1.148805 -2.510018 0
M  V30 26 C -2.067786 -0.613630 -2.335357 0
M  V30 27 C -0.969927 -0.870578 -1.539649 0
M  V30 28 N 0.222874 -2.401749 1.125253 0
M  V30 29 C 1.385322 -2.478185 1.828807 0
M  V30 30 C 1.994303 -3.529905 2.524877 0
M  V30 31 C 1.278043 -4.834677 2.529101 0
M  V30 32 H 3.150333 -5.237632 4.101560 0
M  V30 33 H 4.182820 -4.049629 4.900417 0
M  V30 34 H 4.726641 -4.730515 3.314767 0
M  V30 35 H 6.330335 -0.437506 2.877898 0
M  V30 36 H 5.625730 0.273961 4.341256 0
M  V30 37 H 3.635548 -0.037592 2.352115 0
M  V30 38 H 1.290465 1.668534 2.742336 0
M  V30 39 H 1.540634 4.032169 2.086670 0
M  V30 40 H 1.751688 4.718911 -0.233550 0
M  V30 41 H 1.716181 3.024745 -1.981871 0
M  V30 42 H 1.472906 0.680470 -1.394425 0
M  V30 43 H -2.370093 -0.575824 1.475420 0
M  V30 44 H -4.335008 -0.117052 0.170706 0
M  V30 45 H -6.091009 1.278967 -2.612932 0
M  V30 46 H -5.555782 0.978057 -1.058792 0
M  V30 47 H -4.751050 0.948115 -4.469739 0
M  V30 48 H -3.764398 -0.637269 -4.479309 0
M  V30 49 H -6.781717 -0.132195 -3.999738 0
M  V30 50 H -5.919679 -1.682308 -4.623228 0
M  V30 51 H -5.158600 -2.154078 -2.338872 0
M  V30 52 H -6.442758 -0.982439 -1.802766 0
M  V30 53 H -2.031805 -0.612840 -3.411120 0
M  V30 54 H -0.010443 -1.084942 -2.036581 0
M  V30 55 H 0.574735 -4.836938 3.393403 0
M  V30 56 H 0.675982 -4.907787 1.599243 0
M  V30 57 H 1.967889 -5.704485 2.513011 0
M  V30 END ATOM
M  V30 BEGIN BOND
M  V30 1 1 1 2
M  V30 2 1 2 3
M  V30 3 1 3 4
M  V30 4 1 4 5
M  V30 5 2 4 6
M  V30 6 2 3 7
M  V30 7 1 7 8
M  V30 8 1 8 9
M  V30 9 1 9 10
M  V30 10 2 10 11
M  V30 11 1 11 12
M  V30 12 2 12 13
M  V30 13 1 13 14
M  V30 14 2 14 15
M  V30 15 2 9 16
M  V30 16 1 16 17
M  V30 17 2 17 18
M  V30 18 1 18 19
M  V30 19 2 19 20
M  V30 20 1 20 21
M  V30 21 1 21 22
M  V30 22 1 21 23
M  V30 23 1 23 24
M  V30 24 1 24 25
M  V30 25 1 20 26
M  V30 26 2 26 27
M  V30 27 1 16 28
M  V30 28 2 28 29
M  V30 29 1 29 30
M  V30 30 1 30 31
M  V30 31 2 30 2
M  V30 32 1 29 8
M  V30 33 1 15 10
M  V30 34 1 27 17
M  V30 35 1 25 21
M  V30 36 1 1 32
M  V30 37 1 1 33
M  V30 38 1 1 34
M  V30 39 1 5 35
M  V30 40 1 5 36
M  V30 41 1 7 37
M  V30 42 1 11 38
M  V30 43 1 12 39
M  V30 44 1 13 40
M  V30 45 1 14 41
M  V30 46 1 15 42
M  V30 47 1 18 43
M  V30 48 1 19 44
M  V30 49 1 22 45
M  V30 50 1 22 46
M  V30 51 1 23 47
M  V30 52 1 23 48
M  V30 53 1 24 49
M  V30 54 1 24 50
M  V30 55 1 25 51
M  V30 56 1 25 52
M  V30 57 1 26 53
M  V30 58 1 27 54
M  V30 59 1 31 55
M  V30 60 1 31 56
M  V30 61 1 31 57
M  V30 END BOND
M  V30 END CTAB
M  END
>  <Dataset>  (618) 
ChEMBL_Kinases

>  <Ligand_Instance>  (618) 
nan

>  <PDB_ID>  (618) 
nan

>  <Standardized_SMILES>  (618) 
Cc1c(C(N)=O)cn2c(-c3ccccc3)c(-c3ccc(C4(N)CCC4)cc3)nc2c1C

>  <Name>  (618) 
nan

>  <Pocket>  (618) 
nan

>  <ATP_Site>  (618) 
nan

>  <Peripheral>  (618) 
nan

>  <Num_H_Atoms_ProtBoundConf>  (618) 
nan

>  <Num_Resolved_Atoms>  (618) 
nan

>  <Num_Not_Resolved_Atoms>  (618) 
nan

$$$$
CHEMBL3699772
     RDKit          3D

  0  0  0  0  0  0  0  0  0  0999 V3000
M  V30 BEGIN CTAB
M  V30 COUNTS 60 65 0 0 0
M  V30 BEGIN ATOM
M  V30 1 N 4.243170 -1.229195 5.030192 0
M  V30 2 C 3.208311 -1.558926 4.103321 0
M  V30 3 O 2.704474 -2.713813 4.074050 0
M  V30 4 C 2.768689 -0.503598 3.202196 0
M  V30 5 C 3.295544 0.771821 3.206249 0
M  V30 6 C 2.863267 1.763178 2.338114 0
M  V30 7 C 3.488821 3.088206 2.425278 0
M  V30 8 C 4.823812 3.218195 2.804262 0
M  V30 9 C 5.350884 4.494839 2.866132 0
M  V30 10 C 4.620006 5.627430 2.572487 0
M  V30 11 N 3.317006 5.485471 2.203602 0
M  V30 12 C 2.788611 4.248474 2.138449 0
M  V30 13 C 1.861624 1.487789 1.418192 0
M  V30 14 N 1.361666 0.235962 1.432029 0
M  V30 15 C 0.394304 -0.274035 0.647892 0
M  V30 16 C -0.337468 0.418661 -0.400531 0
M  V30 17 C -0.407787 0.178844 -1.751589 0
M  V30 18 C -1.185759 0.994545 -2.544083 0
M  V30 19 C -1.902906 2.052026 -2.027410 0
M  V30 20 C -1.844201 2.307605 -0.673746 0
M  V30 21 C -1.061051 1.489758 0.137303 0
M  V30 22 C 0.178912 -1.615312 0.994709 0
M  V30 23 C -0.813904 -2.482340 0.333335 0
M  V30 24 C -0.461879 -3.646749 -0.323985 0
M  V30 25 C -1.428892 -4.419644 -0.928171 0
M  V30 26 C -2.783231 -4.065956 -0.902882 0
M  V30 27 C -3.638820 -5.025507 -1.605033 0
M  V30 28 N -3.444775 -6.419748 -1.218648 0
M  V30 29 C -5.110699 -4.741460 -1.658292 0
M  V30 30 C -4.977345 -4.160570 -3.070972 0
M  V30 31 C -3.629475 -4.857260 -3.127989 0
M  V30 32 C -3.100676 -2.898749 -0.239072 0
M  V30 33 C -2.131365 -2.124643 0.366183 0
M  V30 34 N 1.040797 -1.876367 1.997172 0
M  V30 35 C 1.762384 -0.759078 2.269132 0
M  V30 36 H 4.042904 -0.810508 5.946256 0
M  V30 37 H 5.061986 -1.549160 4.445196 0
M  V30 38 H 4.062458 0.946975 3.925424 0
M  V30 39 H 5.397543 2.341817 3.033747 0
M  V30 40 H 6.386407 4.616500 3.158462 0
M  V30 41 H 5.081160 6.621083 2.635732 0
M  V30 42 H 1.748993 4.069711 1.848452 0
M  V30 43 H 1.524537 2.239829 0.750488 0
M  V30 44 H 0.182400 -0.659968 -2.046066 0
M  V30 45 H -1.194566 0.747553 -3.596754 0
M  V30 46 H -2.510620 2.684874 -2.663716 0
M  V30 47 H -2.416214 3.142824 -0.294331 0
M  V30 48 H -1.097909 1.795976 1.191936 0
M  V30 49 H 0.595927 -3.907478 -0.334118 0
M  V30 50 H -1.030111 -5.305445 -1.409645 0
M  V30 51 H -4.146749 -6.949813 -1.813502 0
M  V30 52 H -2.506476 -6.697562 -1.581618 0
M  V30 53 H -5.772891 -5.638723 -1.644162 0
M  V30 54 H -5.523401 -3.989489 -0.987384 0
M  V30 55 H -4.917573 -3.053630 -3.107691 0
M  V30 56 H -5.747964 -4.572123 -3.729130 0
M  V30 57 H -2.847089 -4.184012 -3.503936 0
M  V30 58 H -3.622117 -5.822522 -3.662644 0
M  V30 59 H -4.153311 -2.680185 -0.253534 0
M  V30 60 H -2.452700 -1.221342 0.869533 0
M  V30 END ATOM
M  V30 BEGIN BOND
M  V30 1 1 1 2
M  V30 2 2 2 3
M  V30 3 1 2 4
M  V30 4 2 4 5
M  V30 5 1 5 6
M  V30 6 1 6 7
M  V30 7 2 7 8
M  V30 8 1 8 9
M  V30 9 2 9 10
M  V30 10 1 10 11
M  V30 11 2 11 12
M  V30 12 2 6 13
M  V30 13 1 13 14
M  V30 14 1 14 15
M  V30 15 1 15 16
M  V30 16 2 16 17
M  V30 17 1 17 18
M  V30 18 2 18 19
M  V30 19 1 19 20
M  V30 20 2 20 21
M  V30 21 2 15 22
M  V30 22 1 22 23
M  V30 23 2 23 24
M  V30 24 1 24 25
M  V30 25 2 25 26
M  V30 26 1 26 27
M  V30 27 1 27 28
M  V30 28 1 27 29
M  V30 29 1 29 30
M  V30 30 1 30 31
M  V30 31 1 26 32
M  V30 32 2 32 33
M  V30 33 1 22 34
M  V30 34 2 34 35
M  V30 35 1 35 4
M  V30 36 1 12 7
M  V30 37 1 35 14
M  V30 38 1 21 16
M  V30 39 1 33 23
M  V30 40 1 31 27
M  V30 41 1 1 36
M  V30 42 1 1 37
M  V30 43 1 5 38
M  V30 44 1 8 39
M  V30 45 1 9 40
M  V30 46 1 10 41
M  V30 47 1 12 42
M  V30 48 1 13 43
M  V30 49 1 17 44
M  V30 50 1 18 45
M  V30 51 1 19 46
M  V30 52 1 20 47
M  V30 53 1 21 48
M  V30 54 1 24 49
M  V30 55 1 25 50
M  V30 56 1 28 51
M  V30 57 1 28 52
M  V30 58 1 29 53
M  V30 59 1 29 54
M  V30 60 1 30 55
M  V30 61 1 30 56
M  V30 62 1 31 57
M  V30 63 1 31 58
M  V30 64 1 32 59
M  V30 65 1 33 60
M  V30 END BOND
M  V30 END CTAB
M  END
>  <Dataset>  (619) 
ChEMBL_Kinases

>  <Ligand_Instance>  (619) 
nan

>  <PDB_ID>  (619) 
nan

>  <Standardized_SMILES>  (619) 
NC(=O)c1cc(-c2cccnc2)cn2c(-c3ccccc3)c(-c3ccc(C4(N)CCC4)cc3)nc12

>  <Name>  (619) 
nan

>  <Pocket>  (619) 
nan

>  <ATP_Site>  (619) 
nan

>  <Peripheral>  (619) 
nan

>  <Num_H_Atoms_ProtBoundConf>  (619) 
nan

>  <Num_Resolved_Atoms>  (619) 
nan

>  <Num_Not_Resolved_Atoms>  (619) 
nan

$$$$
CHEMBL228701
     RDKit          3D

  0  0  0  0  0  0  0  0  0  0999 V3000
M  V30 BEGIN CTAB
M  V30 COUNTS 57 60 0 0 0
M  V30 BEGIN ATOM
M  V30 1 N 8.154615 -1.689512 4.834440 0
M  V30 2 C 7.545884 -1.266445 3.621149 0
M  V30 3 O 7.383175 -2.324611 2.964109 0
M  V30 4 N 7.243537 0.097579 3.346622 0
M  V30 5 C 6.635550 0.566059 2.148459 0
M  V30 6 C 7.537696 0.904577 1.134891 0
M  V30 7 C 7.076337 1.371828 -0.077424 0
M  V30 8 C 5.716091 1.528765 -0.353638 0
M  V30 9 C 4.879691 1.176216 0.690989 0
M  V30 10 C 5.295637 0.704487 1.921001 0
M  V30 11 C 3.503875 1.390929 0.254808 0
M  V30 12 C 2.331922 1.197527 0.823960 0
M  V30 13 C 0.975162 1.428689 0.356215 0
M  V30 14 C -0.029773 0.484889 0.455245 0
M  V30 15 C -1.188020 1.035254 -0.053967 0
M  V30 16 C -2.492935 0.363604 -0.139541 0
M  V30 17 O -3.493952 0.963719 -0.634261 0
M  V30 18 N -2.604768 -0.969840 0.344809 0
M  V30 19 C -3.829477 -1.723523 0.310542 0
M  V30 20 C -4.355008 -1.909537 -1.120822 0
M  V30 21 N -5.543704 -2.666998 -1.070675 0
M  V30 22 C -6.699901 -2.099610 -0.491446 0
M  V30 23 C -7.305688 -3.160598 0.434753 0
M  V30 24 C -6.844831 -4.515445 -0.075985 0
M  V30 25 C -6.854398 -4.558353 -1.609360 0
M  V30 26 C -5.817861 -3.557920 -2.140533 0
M  V30 27 C -0.850290 2.311429 -0.451757 0
M  V30 28 N 0.461429 2.519658 -0.190872 0
M  V30 29 C 3.557583 1.888146 -1.100668 0
M  V30 30 O 2.668663 2.214194 -1.896182 0
M  V30 31 N 4.928042 1.964422 -1.453470 0
M  V30 32 H 7.641593 -1.966325 5.716851 0
M  V30 33 H 9.166805 -1.786753 5.029059 0
M  V30 34 H 7.505700 0.774996 4.112963 0
M  V30 35 H 8.632845 0.826300 1.222169 0
M  V30 36 H 7.785834 1.638329 -0.873766 0
M  V30 37 H 4.630231 0.437969 2.717573 0
M  V30 38 H 2.380333 0.785379 1.845139 0
M  V30 39 H 0.074756 -0.508921 0.859383 0
M  V30 40 H -1.738458 -1.423502 0.749279 0
M  V30 41 H -4.636550 -1.224608 0.918194 0
M  V30 42 H -3.688295 -2.721724 0.747538 0
M  V30 43 H -4.477766 -0.917722 -1.591077 0
M  V30 44 H -3.603152 -2.472387 -1.719176 0
M  V30 45 H -7.460021 -1.919331 -1.293905 0
M  V30 46 H -6.500099 -1.199695 0.103824 0
M  V30 47 H -8.412217 -3.109474 0.387745 0
M  V30 48 H -6.886703 -2.969440 1.442108 0
M  V30 49 H -7.487158 -5.341373 0.261655 0
M  V30 50 H -5.763305 -4.660619 0.201881 0
M  V30 51 H -7.871530 -4.270303 -1.924782 0
M  V30 52 H -6.572781 -5.600389 -1.872393 0
M  V30 53 H -6.318705 -3.072919 -3.023750 0
M  V30 54 H -4.926011 -4.157353 -2.434082 0
M  V30 55 H -1.610831 2.945313 -0.891448 0
M  V30 56 H 0.858556 3.450413 -0.425950 0
M  V30 57 H 5.354658 2.280805 -2.355329 0
M  V30 END ATOM
M  V30 BEGIN BOND
M  V30 1 1 1 2
M  V30 2 2 2 3
M  V30 3 1 2 4
M  V30 4 1 4 5
M  V30 5 2 5 6
M  V30 6 1 6 7
M  V30 7 2 7 8
M  V30 8 1 8 9
M  V30 9 2 9 10
M  V30 10 1 9 11
M  V30 11 2 11 12
M  V30 12 1 12 13
M  V30 13 2 13 14
M  V30 14 1 14 15
M  V30 15 1 15 16
M  V30 16 2 16 17
M  V30 17 1 16 18
M  V30 18 1 18 19
M  V30 19 1 19 20
M  V30 20 1 20 21
M  V30 21 1 21 22
M  V30 22 1 22 23
M  V30 23 1 23 24
M  V30 24 1 24 25
M  V30 25 1 25 26
M  V30 26 2 15 27
M  V30 27 1 27 28
M  V30 28 1 11 29
M  V30 29 2 29 30
M  V30 30 1 29 31
M  V30 31 1 10 5
M  V30 32 1 28 13
M  V30 33 1 31 8
M  V30 34 1 26 21
M  V30 35 1 1 32
M  V30 36 1 1 33
M  V30 37 1 4 34
M  V30 38 1 6 35
M  V30 39 1 7 36
M  V30 40 1 10 37
M  V30 41 1 12 38
M  V30 42 1 14 39
M  V30 43 1 18 40
M  V30 44 1 19 41
M  V30 45 1 19 42
M  V30 46 1 20 43
M  V30 47 1 20 44
M  V30 48 1 22 45
M  V30 49 1 22 46
M  V30 50 1 23 47
M  V30 51 1 23 48
M  V30 52 1 24 49
M  V30 53 1 24 50
M  V30 54 1 25 51
M  V30 55 1 25 52
M  V30 56 1 26 53
M  V30 57 1 26 54
M  V30 58 1 27 55
M  V30 59 1 28 56
M  V30 60 1 31 57
M  V30 END BOND
M  V30 END CTAB
M  END
>  <Dataset>  (620) 
ChEMBL_Kinases

>  <Ligand_Instance>  (620) 
nan

>  <PDB_ID>  (620) 
nan

>  <Standardized_SMILES>  (620) 
NC(=O)Nc1ccc2c(c1)/C(=C/c1cc(C(=O)NCCN3CCCCC3)c[nH]1)C(=O)N2

>  <Name>  (620) 
nan

>  <Pocket>  (620) 
nan

>  <ATP_Site>  (620) 
nan

>  <Peripheral>  (620) 
nan

>  <Num_H_Atoms_ProtBoundConf>  (620) 
nan

>  <Num_Resolved_Atoms>  (620) 
nan

>  <Num_Not_Resolved_Atoms>  (620) 
nan

$$$$
CHEMBL228755
     RDKit          3D

  0  0  0  0  0  0  0  0  0  0999 V3000
M  V30 BEGIN CTAB
M  V30 COUNTS 45 47 0 0 0
M  V30 BEGIN ATOM
M  V30 1 C 4.381429 -5.512309 0.616242 0
M  V30 2 C 3.425518 -4.846010 -0.324497 0
M  V30 3 O 2.198748 -4.947761 -0.126546 0
M  V30 4 N 3.904272 -4.101341 -1.437071 0
M  V30 5 C 3.064042 -3.425941 -2.395399 0
M  V30 6 C 2.511308 -2.161526 -1.815853 0
M  V30 7 C 3.188898 -0.966683 -1.936683 0
M  V30 8 N 2.467319 -0.009716 -1.329599 0
M  V30 9 C 1.359941 -0.493177 -0.815816 0
M  V30 10 C 0.229466 -0.006747 -0.047148 0
M  V30 11 C -1.140213 -0.306795 -0.550218 0
M  V30 12 C 0.458497 0.681282 1.058752 0
M  V30 13 C 1.703613 1.075066 1.713213 0
M  V30 14 O 2.842963 0.797121 1.328346 0
M  V30 15 N 1.431709 1.839442 2.885909 0
M  V30 16 C 0.012374 1.942613 2.995678 0
M  V30 17 C -0.665661 2.601669 3.992203 0
M  V30 18 C -2.063400 2.589232 3.922861 0
M  V30 19 C -2.712723 1.931401 2.881078 0
M  V30 20 N -4.134487 1.935143 2.835782 0
M  V30 21 C -5.231916 2.663463 2.348678 0
M  V30 22 N -6.484759 2.079350 2.674630 0
M  V30 23 O -5.184543 3.719189 1.692223 0
M  V30 24 C -1.924738 1.291237 1.918283 0
M  V30 25 C -0.548544 1.268861 1.933183 0
M  V30 26 C 1.362830 -1.863713 -1.112421 0
M  V30 27 H 4.399772 -6.598680 0.436991 0
M  V30 28 H 5.416973 -5.119019 0.475318 0
M  V30 29 H 4.061760 -5.349255 1.665749 0
M  V30 30 H 4.944400 -4.052048 -1.550521 0
M  V30 31 H 2.191449 -4.107800 -2.594889 0
M  V30 32 H 3.599211 -3.243385 -3.327649 0
M  V30 33 H 4.140997 -0.789743 -2.429185 0
M  V30 34 H 2.732498 0.988754 -1.283870 0
M  V30 35 H -1.671724 0.566820 -0.927664 0
M  V30 36 H -1.705760 -1.013843 0.083298 0
M  V30 37 H -0.980273 -0.920058 -1.498656 0
M  V30 38 H 2.174772 2.239543 3.531028 0
M  V30 39 H -0.184053 3.112937 4.800732 0
M  V30 40 H -2.660489 3.088175 4.673724 0
M  V30 41 H -4.218324 1.033477 3.393994 0
M  V30 42 H -6.602275 1.169709 2.146464 0
M  V30 43 H -7.412098 1.713052 2.959057 0
M  V30 44 H -2.526858 0.822507 1.167930 0
M  V30 45 H 0.676917 -2.687499 -0.907517 0
M  V30 END ATOM
M  V30 BEGIN BOND
M  V30 1 1 1 2
M  V30 2 2 2 3
M  V30 3 1 2 4
M  V30 4 1 4 5
M  V30 5 1 5 6
M  V30 6 2 6 7
M  V30 7 1 7 8
M  V30 8 1 8 9
M  V30 9 1 9 10
M  V30 10 1 10 11
M  V30 11 2 10 12
M  V30 12 1 12 13
M  V30 13 2 13 14
M  V30 14 1 13 15
M  V30 15 1 15 16
M  V30 16 2 16 17
M  V30 17 1 17 18
M  V30 18 2 18 19
M  V30 19 1 19 20
M  V30 20 1 20 21
M  V30 21 1 21 22
M  V30 22 2 21 23
M  V30 23 1 19 24
M  V30 24 2 24 25
M  V30 25 2 9 26
M  V30 26 1 26 6
M  V30 27 1 25 12
M  V30 28 1 25 16
M  V30 29 1 1 27
M  V30 30 1 1 28
M  V30 31 1 1 29
M  V30 32 1 4 30
M  V30 33 1 5 31
M  V30 34 1 5 32
M  V30 35 1 7 33
M  V30 36 1 8 34
M  V30 37 1 11 35
M  V30 38 1 11 36
M  V30 39 1 11 37
M  V30 40 1 15 38
M  V30 41 1 17 39
M  V30 42 1 18 40
M  V30 43 1 20 41
M  V30 44 1 22 42
M  V30 45 1 22 43
M  V30 46 1 24 44
M  V30 47 1 26 45
M  V30 END BOND
M  V30 END CTAB
M  END
>  <Dataset>  (621) 
ChEMBL_Kinases

>  <Ligand_Instance>  (621) 
nan

>  <PDB_ID>  (621) 
nan

>  <Standardized_SMILES>  (621) 
CC(=O)NCc1c[nH]c(/C(C)=C2\C(=O)Nc3ccc(NC(N)=O)cc32)c1

>  <Name>  (621) 
nan

>  <Pocket>  (621) 
nan

>  <ATP_Site>  (621) 
nan

>  <Peripheral>  (621) 
nan

>  <Num_H_Atoms_ProtBoundConf>  (621) 
nan

>  <Num_Resolved_Atoms>  (621) 
nan

>  <Num_Not_Resolved_Atoms>  (621) 
nan

$$$$
CHEMBL4541192
     RDKit          3D

  0  0  0  0  0  0  0  0  0  0999 V3000
M  V30 BEGIN CTAB
M  V30 COUNTS 54 57 0 0 0
M  V30 BEGIN ATOM
M  V30 1 C 0.803393 -5.270516 1.800037 0
M  V30 2 C 1.204288 -3.968494 1.224200 0
M  V30 3 N 2.527416 -3.877700 0.899499 0
M  V30 4 C 2.991212 -2.760383 0.378658 0
M  V30 5 C 4.335118 -2.730940 0.067797 0
M  V30 6 C 4.905563 -1.597566 -0.486411 0
M  V30 7 C 4.121368 -0.489719 -0.728936 0
M  V30 8 C 2.765814 -0.451035 -0.441158 0
M  V30 9 C 1.938888 0.720816 -0.698744 0
M  V30 10 C 2.457796 1.870494 -1.264314 0
M  V30 11 C 1.447051 2.806001 -1.389963 0
M  V30 12 C 0.295807 2.227512 -0.896502 0
M  V30 13 N 0.653231 0.996620 -0.504919 0
M  V30 14 C -0.796418 3.213113 -1.014228 0 CFG=1
M  V30 15 C -1.355369 3.588173 0.312929 0
M  V30 16 C -1.926294 2.447511 1.079343 0
M  V30 17 N -3.001169 1.771325 0.411664 0
M  V30 18 N -0.167483 4.360158 -1.640242 0
M  V30 19 C 1.220785 4.157465 -1.875407 0
M  V30 20 O 1.988525 5.008857 -2.388292 0
M  V30 21 C 2.297367 -1.620729 0.104091 0
M  V30 22 N 1.008657 -1.736874 0.430590 0
M  V30 23 C 0.454552 -2.838468 0.964975 0
M  V30 24 N -0.932338 -3.004090 1.316373 0
M  V30 25 C -2.276288 -3.158487 1.654647 0
M  V30 26 C -2.842044 -2.197537 2.695883 0
M  V30 27 C -2.469806 -4.569852 2.265107 0
M  V30 28 C -3.247559 -3.085153 0.459016 0
M  V30 29 H 1.715679 -5.897810 2.038304 0
M  V30 30 H 0.299256 -5.168218 2.781750 0
M  V30 31 H 0.144291 -5.840923 1.136404 0
M  V30 32 H 5.036864 -3.558214 0.223193 0
M  V30 33 H 5.961100 -1.563730 -0.734752 0
M  V30 34 H 4.609282 0.371759 -1.162923 0
M  V30 35 H 3.499007 2.031831 -1.569871 0
M  V30 36 H -0.014938 0.314150 -0.089335 0
M  V30 37 H -1.609270 2.871370 -1.685693 0
M  V30 38 H -0.623843 4.166205 0.923298 0
M  V30 39 H -2.189227 4.324192 0.111243 0
M  V30 40 H -1.099029 1.789992 1.413664 0
M  V30 41 H -2.355233 2.846434 2.047617 0
M  V30 42 H -2.717461 0.757448 0.327824 0
M  V30 43 H -3.884165 1.755087 0.950992 0
M  V30 44 H -0.759019 5.213442 -1.861559 0
M  V30 45 H -1.283856 -2.032039 1.033424 0
M  V30 46 H -2.270380 -2.241515 3.640467 0
M  V30 47 H -2.888044 -1.172170 2.276292 0
M  V30 48 H -3.871985 -2.538569 2.896349 0
M  V30 49 H -3.565446 -4.658759 2.480686 0
M  V30 50 H -2.117108 -5.313794 1.556018 0
M  V30 51 H -1.931338 -4.553945 3.222323 0
M  V30 52 H -4.240366 -3.422418 0.869451 0
M  V30 53 H -3.364596 -2.033141 0.183071 0
M  V30 54 H -2.991279 -3.780618 -0.335230 0
M  V30 END ATOM
M  V30 BEGIN BOND
M  V30 1 1 1 2
M  V30 2 2 2 3
M  V30 3 1 3 4
M  V30 4 2 4 5
M  V30 5 1 5 6
M  V30 6 2 6 7
M  V30 7 1 7 8
M  V30 8 1 8 9
M  V30 9 2 9 10
M  V30 10 1 10 11
M  V30 11 2 11 12
M  V30 12 1 12 13
M  V30 13 1 12 14
M  V30 14 1 14 15
M  V30 15 1 15 16
M  V30 16 1 16 17
M  V30 17 1 14 18
M  V30 18 1 18 19
M  V30 19 2 19 20
M  V30 20 2 8 21
M  V30 21 1 21 22
M  V30 22 2 22 23
M  V30 23 1 23 24
M  V30 24 1 24 25
M  V30 25 1 25 26
M  V30 26 1 25 27
M  V30 27 1 25 28
M  V30 28 1 23 2
M  V30 29 1 21 4
M  V30 30 1 13 9
M  V30 31 1 19 11
M  V30 32 1 1 29
M  V30 33 1 1 30
M  V30 34 1 1 31
M  V30 35 1 5 32
M  V30 36 1 6 33
M  V30 37 1 7 34
M  V30 38 1 10 35
M  V30 39 1 13 36
M  V30 40 1 14 37 CFG=3
M  V30 41 1 15 38
M  V30 42 1 15 39
M  V30 43 1 16 40
M  V30 44 1 16 41
M  V30 45 1 17 42
M  V30 46 1 17 43
M  V30 47 1 18 44
M  V30 48 1 24 45
M  V30 49 1 26 46
M  V30 50 1 26 47
M  V30 51 1 26 48
M  V30 52 1 27 49
M  V30 53 1 27 50
M  V30 54 1 27 51
M  V30 55 1 28 52
M  V30 56 1 28 53
M  V30 57 1 28 54
M  V30 END BOND
M  V30 END CTAB
M  END
>  <Dataset>  (622) 
ChEMBL_Kinases

>  <Ligand_Instance>  (622) 
nan

>  <PDB_ID>  (622) 
nan

>  <Standardized_SMILES>  (622) 
Cc1nc2cccc(-c3cc4c([nH]3)[C@@H](CCN)NC4=O)c2nc1NC(C)(C)C

>  <Name>  (622) 
nan

>  <Pocket>  (622) 
nan

>  <ATP_Site>  (622) 
nan

>  <Peripheral>  (622) 
nan

>  <Num_H_Atoms_ProtBoundConf>  (622) 
nan

>  <Num_Resolved_Atoms>  (622) 
nan

>  <Num_Not_Resolved_Atoms>  (622) 
nan

$$$$
CHEMBL228804
     RDKit          3D

  0  0  0  0  0  0  0  0  0  0999 V3000
M  V30 BEGIN CTAB
M  V30 COUNTS 60 63 0 0 0
M  V30 BEGIN ATOM
M  V30 1 C 6.068670 0.578023 5.633562 0
M  V30 2 N 6.285590 1.668676 4.667825 0
M  V30 3 C 5.989279 2.887805 5.421741 0
M  V30 4 C 5.272786 1.475808 3.640506 0
M  V30 5 C 5.384025 2.498327 2.518029 0
M  V30 6 N 4.328044 2.240908 1.553508 0
M  V30 7 C 4.078471 2.940776 0.346543 0
M  V30 8 O 4.877692 3.880640 0.105879 0
M  V30 9 C 2.991888 2.621955 -0.565267 0
M  V30 10 C 2.950259 3.299371 -1.785605 0
M  V30 11 C 1.894013 2.995040 -2.651497 0
M  V30 12 C 0.887490 2.071687 -2.385933 0
M  V30 13 C 1.004986 1.450283 -1.161194 0
M  V30 14 C -0.031748 0.452237 -0.784735 0
M  V30 15 C -0.395917 0.261257 0.557687 0
M  V30 16 N -1.362363 -0.700249 0.646277 0
M  V30 17 C -1.626750 -1.128638 -0.600195 0
M  V30 18 C -2.601522 -2.134730 -1.007871 0
M  V30 19 C -3.883305 -2.201138 -0.688749 0
M  V30 20 C -4.640597 -1.269286 0.153568 0
M  V30 21 O -4.102024 -0.275584 0.645317 0
M  V30 22 N -5.937262 -1.838743 0.166289 0
M  V30 23 C -5.982821 -3.030764 -0.608103 0
M  V30 24 C -7.061094 -3.859231 -0.832712 0
M  V30 25 C -6.965044 -4.991787 -1.610107 0
M  V30 26 C -5.699437 -5.205918 -2.131304 0
M  V30 27 N -5.505176 -6.352424 -2.951100 0
M  V30 28 C -5.118318 -7.413287 -2.070062 0
M  V30 29 N -4.779345 -8.801247 -2.240288 0
M  V30 30 O -4.983082 -7.320620 -0.810054 0
M  V30 31 C -4.591503 -4.413121 -1.939448 0
M  V30 32 C -4.743002 -3.290280 -1.151430 0
M  V30 33 C -0.820549 -0.434230 -1.493362 0
M  V30 34 C 2.023424 1.708357 -0.266802 0
M  V30 35 H 6.396140 0.861359 6.632169 0
M  V30 36 H 6.612528 -0.314401 5.251111 0
M  V30 37 H 4.981663 0.314214 5.674660 0
M  V30 38 H 6.465618 3.767014 4.948144 0
M  V30 39 H 6.432532 2.766471 6.422466 0
M  V30 40 H 4.893779 3.003353 5.567464 0
M  V30 41 H 5.409695 0.434443 3.244242 0
M  V30 42 H 4.283460 1.611164 4.139268 0
M  V30 43 H 5.149878 3.486067 2.989325 0
M  V30 44 H 6.389518 2.522582 2.088797 0
M  V30 45 H 3.653844 1.443309 1.748839 0
M  V30 46 H 3.680909 4.038096 -2.095343 0
M  V30 47 H 1.827329 3.504926 -3.617932 0
M  V30 48 H 0.101199 1.887173 -3.102726 0
M  V30 49 H 0.041222 0.812256 1.405891 0
M  V30 50 H -1.734920 -0.975047 1.576826 0
M  V30 51 H -2.150095 -2.905706 -1.658419 0
M  V30 52 H -6.681562 -1.325621 0.727826 0
M  V30 53 H -8.033398 -3.630611 -0.389265 0
M  V30 54 H -7.773233 -5.677206 -1.820768 0
M  V30 55 H -5.518436 -6.768917 -3.908024 0
M  V30 56 H -5.519659 -9.529597 -2.060838 0
M  V30 57 H -3.806464 -9.083004 -2.538852 0
M  V30 58 H -3.628335 -4.633656 -2.373343 0
M  V30 59 H -0.726956 -0.480617 -2.567901 0
M  V30 60 H 2.004659 1.157116 0.660339 0
M  V30 END ATOM
M  V30 BEGIN BOND
M  V30 1 1 1 2
M  V30 2 1 2 3
M  V30 3 1 2 4
M  V30 4 1 4 5
M  V30 5 1 5 6
M  V30 6 1 6 7
M  V30 7 2 7 8
M  V30 8 1 7 9
M  V30 9 2 9 10
M  V30 10 1 10 11
M  V30 11 2 11 12
M  V30 12 1 12 13
M  V30 13 1 13 14
M  V30 14 2 14 15
M  V30 15 1 15 16
M  V30 16 1 16 17
M  V30 17 1 17 18
M  V30 18 2 18 19
M  V30 19 1 19 20
M  V30 20 2 20 21
M  V30 21 1 20 22
M  V30 22 1 22 23
M  V30 23 2 23 24
M  V30 24 1 24 25
M  V30 25 2 25 26
M  V30 26 1 26 27
M  V30 27 1 27 28
M  V30 28 1 28 29
M  V30 29 2 28 30
M  V30 30 1 26 31
M  V30 31 2 31 32
M  V30 32 2 17 33
M  V30 33 2 13 34
M  V30 34 1 34 9
M  V30 35 1 33 14
M  V30 36 1 32 19
M  V30 37 1 32 23
M  V30 38 1 1 35
M  V30 39 1 1 36
M  V30 40 1 1 37
M  V30 41 1 3 38
M  V30 42 1 3 39
M  V30 43 1 3 40
M  V30 44 1 4 41
M  V30 45 1 4 42
M  V30 46 1 5 43
M  V30 47 1 5 44
M  V30 48 1 6 45
M  V30 49 1 10 46
M  V30 50 1 11 47
M  V30 51 1 12 48
M  V30 52 1 15 49
M  V30 53 1 16 50
M  V30 54 1 18 51
M  V30 55 1 22 52
M  V30 56 1 24 53
M  V30 57 1 25 54
M  V30 58 1 27 55
M  V30 59 1 29 56
M  V30 60 1 29 57
M  V30 61 1 31 58
M  V30 62 1 33 59
M  V30 63 1 34 60
M  V30 END BOND
M  V30 END CTAB
M  END
>  <Dataset>  (623) 
ChEMBL_Kinases

>  <Ligand_Instance>  (623) 
nan

>  <PDB_ID>  (623) 
nan

>  <Standardized_SMILES>  (623) 
CN(C)CCNC(=O)c1cccc(-c2c[nH]c(/C=C3\C(=O)Nc4ccc(NC(N)=O)cc43)c2)c1

>  <Name>  (623) 
nan

>  <Pocket>  (623) 
nan

>  <ATP_Site>  (623) 
nan

>  <Peripheral>  (623) 
nan

>  <Num_H_Atoms_ProtBoundConf>  (623) 
nan

>  <Num_Resolved_Atoms>  (623) 
nan

>  <Num_Not_Resolved_Atoms>  (623) 
nan

$$$$
CHEMBL4540969
     RDKit          3D

  0  0  0  0  0  0  0  0  0  0999 V3000
M  V30 BEGIN CTAB
M  V30 COUNTS 64 66 0 0 0
M  V30 BEGIN ATOM
M  V30 1 C 2.571587 -4.254058 2.100083 0
M  V30 2 C 2.769542 -2.858974 1.621674 0
M  V30 3 C 4.029873 -2.302804 1.575010 0
M  V30 4 C 4.312835 -1.001578 1.140435 0
M  V30 5 C 3.251026 -0.233921 0.734090 0
M  V30 6 C 3.496120 1.149115 0.261819 0
M  V30 7 O 4.742665 1.430965 0.279985 0
M  V30 8 N 2.529273 2.134754 -0.184132 0
M  V30 9 C 3.045066 3.403388 -0.590783 0 CFG=1
M  V30 10 C 3.108872 3.756963 -2.006081 0
M  V30 11 C 2.008105 3.911513 -2.933497 0
M  V30 12 C 1.047509 2.833892 -3.275886 0
M  V30 13 C 0.079748 3.410666 -4.386146 0
M  V30 14 C 0.103645 2.445168 -2.140201 0
M  V30 15 C 2.433942 4.509939 0.247311 0
M  V30 16 N 2.879667 5.833382 -0.077757 0
M  V30 17 O 1.609735 4.139315 1.127456 0
M  V30 18 C 1.994646 -0.782757 0.778579 0
M  V30 19 C 1.716915 -2.063062 1.206247 0
M  V30 20 N 0.427418 -2.624850 1.249404 0
M  V30 21 C -0.619823 -2.696876 2.207269 0
M  V30 22 O -0.625532 -2.221041 3.356051 0
M  V30 23 C -1.806549 -3.417826 1.757802 0
M  V30 24 C -2.097266 -4.046120 0.561384 0
M  V30 25 N -3.328069 -4.562789 0.647822 0
M  V30 26 N -3.865334 -4.307643 1.841015 0
M  V30 27 C -5.177085 -4.763210 2.161605 0
M  V30 28 C -5.502501 -5.415500 3.337156 0
M  V30 29 C -6.828546 -5.806627 3.518182 0
M  V30 30 C -7.819095 -5.576019 2.590376 0
M  V30 31 C -7.470716 -4.916445 1.410603 0
M  V30 32 C -6.159234 -4.524962 1.222177 0
M  V30 33 C -2.938578 -3.608614 2.521073 0
M  V30 34 N -3.151423 -3.157085 3.835992 0
M  V30 35 H 2.428401 -4.866370 1.192213 0
M  V30 36 H 1.625049 -4.290396 2.710125 0
M  V30 37 H 3.381678 -4.584380 2.747995 0
M  V30 38 H 4.885567 -2.900002 1.894387 0
M  V30 39 H 5.340333 -0.670073 1.146491 0
M  V30 40 H 1.655373 1.596574 -0.051283 0
M  V30 41 H 4.137047 3.424275 -0.220773 0
M  V30 42 H 3.832210 4.662641 -2.125249 0
M  V30 43 H 3.797326 2.933069 -2.474682 0
M  V30 44 H 1.358014 4.828601 -2.688804 0
M  V30 45 H 2.474181 4.292452 -3.924438 0
M  V30 46 H 1.536173 1.983883 -3.747546 0
M  V30 47 H -0.254428 4.407390 -4.099062 0
M  V30 48 H 0.616834 3.347637 -5.334877 0
M  V30 49 H -0.759807 2.701248 -4.384861 0
M  V30 50 H 0.259512 3.134647 -1.298520 0
M  V30 51 H 0.220728 1.399917 -1.857638 0
M  V30 52 H -0.969287 2.579645 -2.437183 0
M  V30 53 H 2.328151 6.676973 -0.401807 0
M  V30 54 H 3.928349 5.889087 0.052845 0
M  V30 55 H 1.109518 -0.242367 0.475605 0
M  V30 56 H 0.358919 -3.051371 0.299066 0
M  V30 57 H -1.392181 -4.079140 -0.277951 0
M  V30 58 H -4.722007 -5.595073 4.063283 0
M  V30 59 H -7.097413 -6.322195 4.442242 0
M  V30 60 H -8.842899 -5.877142 2.728049 0
M  V30 61 H -8.272771 -4.741585 0.682922 0
M  V30 62 H -6.017273 -4.017678 0.255815 0
M  V30 63 H -3.332461 -2.276801 4.359715 0
M  V30 64 H -3.170807 -3.745148 4.711520 0
M  V30 END ATOM
M  V30 BEGIN BOND
M  V30 1 1 1 2
M  V30 2 2 2 3
M  V30 3 1 3 4
M  V30 4 2 4 5
M  V30 5 1 5 6
M  V30 6 2 6 7
M  V30 7 1 6 8
M  V30 8 1 8 9
M  V30 9 1 9 10
M  V30 10 1 10 11
M  V30 11 1 11 12
M  V30 12 1 12 13
M  V30 13 1 12 14
M  V30 14 1 9 15
M  V30 15 1 15 16
M  V30 16 2 15 17
M  V30 17 1 5 18
M  V30 18 2 18 19
M  V30 19 1 19 20
M  V30 20 1 20 21
M  V30 21 2 21 22
M  V30 22 1 21 23
M  V30 23 1 23 24
M  V30 24 2 24 25
M  V30 25 1 25 26
M  V30 26 1 26 27
M  V30 27 2 27 28
M  V30 28 1 28 29
M  V30 29 2 29 30
M  V30 30 1 30 31
M  V30 31 2 31 32
M  V30 32 1 26 33
M  V30 33 1 33 34
M  V30 34 1 19 2
M  V30 35 2 33 23
M  V30 36 1 32 27
M  V30 37 1 1 35
M  V30 38 1 1 36
M  V30 39 1 1 37
M  V30 40 1 3 38
M  V30 41 1 4 39
M  V30 42 1 8 40
M  V30 43 1 9 41 CFG=1
M  V30 44 1 10 42
M  V30 45 1 10 43
M  V30 46 1 11 44
M  V30 47 1 11 45
M  V30 48 1 12 46
M  V30 49 1 13 47
M  V30 50 1 13 48
M  V30 51 1 13 49
M  V30 52 1 14 50
M  V30 53 1 14 51
M  V30 54 1 14 52
M  V30 55 1 16 53
M  V30 56 1 16 54
M  V30 57 1 18 55
M  V30 58 1 20 56
M  V30 59 1 24 57
M  V30 60 1 28 58
M  V30 61 1 29 59
M  V30 62 1 30 60
M  V30 63 1 31 61
M  V30 64 1 32 62
M  V30 65 1 34 63
M  V30 66 1 34 64
M  V30 END BOND
M  V30 END CTAB
M  END
>  <Dataset>  (624) 
ChEMBL_Kinases

>  <Ligand_Instance>  (624) 
nan

>  <PDB_ID>  (624) 
nan

>  <Standardized_SMILES>  (624) 
Cc1ccc(C(=O)N[C@@H](CCC(C)C)C(N)=O)cc1NC(=O)c1cnn(-c2ccccc2)c1N

>  <Name>  (624) 
nan

>  <Pocket>  (624) 
nan

>  <ATP_Site>  (624) 
nan

>  <Peripheral>  (624) 
nan

>  <Num_H_Atoms_ProtBoundConf>  (624) 
nan

>  <Num_Resolved_Atoms>  (624) 
nan

>  <Num_Not_Resolved_Atoms>  (624) 
nan

$$$$
CHEMBL228439
     RDKit          3D

  0  0  0  0  0  0  0  0  0  0999 V3000
M  V30 BEGIN CTAB
M  V30 COUNTS 43 46 0 0 0
M  V30 BEGIN ATOM
M  V30 1 N 2.934002 -7.246431 -0.806217 0
M  V30 2 C 2.190133 -6.084274 -1.172885 0
M  V30 3 O 1.020929 -5.950326 -0.693519 0
M  V30 4 N 2.729350 -5.091802 -2.052636 0
M  V30 5 C 1.749135 -4.069795 -2.223291 0
M  V30 6 C 0.826042 -4.142362 -3.227942 0
M  V30 7 C -0.193624 -3.301365 -3.587011 0
M  V30 8 C -0.254869 -2.176106 -2.729814 0
M  V30 9 C 0.624704 -2.001654 -1.686509 0
M  V30 10 C 1.619167 -2.929499 -1.425771 0
M  V30 11 C 0.290958 -0.752009 -1.009413 0
M  V30 12 C 0.877161 -0.233400 0.056410 0
M  V30 13 C 0.486781 1.046120 0.689669 0
M  V30 14 C 0.307214 0.958060 2.079552 0
M  V30 15 C -0.012113 2.229925 2.565746 0
M  V30 16 C -0.275375 2.698236 3.920617 0
M  V30 17 C 0.438166 2.032746 4.901193 0
M  V30 18 C 0.238910 2.428853 6.213387 0
M  V30 19 C -0.654489 3.460938 6.492555 0
M  V30 20 C -1.352178 4.102445 5.470050 0
M  V30 21 O -2.253172 5.145547 5.775138 0
M  V30 22 C -1.166445 3.719522 4.139410 0
M  V30 23 C 0.002965 2.978949 1.419240 0
M  V30 24 N 0.294424 2.307977 0.295143 0
M  V30 25 C -0.836679 -0.190105 -1.703812 0
M  V30 26 O -1.455344 0.868110 -1.466610 0
M  V30 27 N -1.176079 -1.067503 -2.767850 0
M  V30 28 H 3.481223 -8.092624 -0.571170 0
M  V30 29 H 2.921212 -7.489852 0.212726 0
M  V30 30 H 3.691236 -5.240349 -2.420440 0
M  V30 31 H 0.900898 -5.022041 -3.869828 0
M  V30 32 H -0.861893 -3.475378 -4.412537 0
M  V30 33 H 2.324530 -2.818624 -0.613564 0
M  V30 34 H 1.697628 -0.831376 0.450060 0
M  V30 35 H 0.366221 0.128893 2.803388 0
M  V30 36 H 1.139348 1.229935 4.733726 0
M  V30 37 H 0.775784 1.941759 7.022979 0
M  V30 38 H -0.785091 3.749878 7.534998 0
M  V30 39 H -3.209290 4.878946 6.044076 0
M  V30 40 H -1.693261 4.196130 3.330057 0
M  V30 41 H -0.196097 4.052092 1.336944 0
M  V30 42 H 0.392272 2.595568 -0.695575 0
M  V30 43 H -1.969424 -0.923133 -3.461879 0
M  V30 END ATOM
M  V30 BEGIN BOND
M  V30 1 1 1 2
M  V30 2 2 2 3
M  V30 3 1 2 4
M  V30 4 1 4 5
M  V30 5 2 5 6
M  V30 6 1 6 7
M  V30 7 2 7 8
M  V30 8 1 8 9
M  V30 9 2 9 10
M  V30 10 1 9 11
M  V30 11 2 11 12
M  V30 12 1 12 13
M  V30 13 2 13 14
M  V30 14 1 14 15
M  V30 15 1 15 16
M  V30 16 2 16 17
M  V30 17 1 17 18
M  V30 18 2 18 19
M  V30 19 1 19 20
M  V30 20 1 20 21
M  V30 21 2 20 22
M  V30 22 2 15 23
M  V30 23 1 23 24
M  V30 24 1 11 25
M  V30 25 2 25 26
M  V30 26 1 25 27
M  V30 27 1 10 5
M  V30 28 1 24 13
M  V30 29 1 27 8
M  V30 30 1 22 16
M  V30 31 1 1 28
M  V30 32 1 1 29
M  V30 33 1 4 30
M  V30 34 1 6 31
M  V30 35 1 7 32
M  V30 36 1 10 33
M  V30 37 1 12 34
M  V30 38 1 14 35
M  V30 39 1 17 36
M  V30 40 1 18 37
M  V30 41 1 19 38
M  V30 42 1 21 39
M  V30 43 1 22 40
M  V30 44 1 23 41
M  V30 45 1 24 42
M  V30 46 1 27 43
M  V30 END BOND
M  V30 END CTAB
M  END
>  <Dataset>  (625) 
ChEMBL_Kinases

>  <Ligand_Instance>  (625) 
nan

>  <PDB_ID>  (625) 
nan

>  <Standardized_SMILES>  (625) 
NC(=O)Nc1ccc2c(c1)/C(=C/c1cc(-c3cccc(O)c3)c[nH]1)C(=O)N2

>  <Name>  (625) 
nan

>  <Pocket>  (625) 
nan

>  <ATP_Site>  (625) 
nan

>  <Peripheral>  (625) 
nan

>  <Num_H_Atoms_ProtBoundConf>  (625) 
nan

>  <Num_Resolved_Atoms>  (625) 
nan

>  <Num_Not_Resolved_Atoms>  (625) 
nan

$$$$
CHEMBL3702207
     RDKit          3D

  0  0  0  0  0  0  0  0  0  0999 V3000
M  V30 BEGIN CTAB
M  V30 COUNTS 57 62 0 0 0
M  V30 BEGIN ATOM
M  V30 1 C 4.785319 -5.021359 1.672180 0
M  V30 2 C 3.808252 -5.852304 1.167698 0
M  V30 3 C 2.804307 -5.238837 0.447854 0
M  V30 4 C 2.783105 -3.853063 0.244329 0
M  V30 5 C 3.824469 -3.112220 0.802053 0
M  V30 6 C 4.854144 -3.660264 1.528916 0
M  V30 7 C 3.535863 -1.808604 0.439298 0
M  V30 8 C 4.131644 -0.582546 0.654299 0
M  V30 9 N 3.651463 0.584982 0.193225 0
M  V30 10 C 2.498817 0.591934 -0.540481 0
M  V30 11 N 1.717619 1.614341 -1.148122 0
M  V30 12 C 0.516290 1.889681 -0.428917 0
M  V30 13 C 0.208789 1.195583 0.750243 0
M  V30 14 C -0.979095 1.429835 1.463078 0
M  V30 15 C -1.802122 2.386812 0.910827 0
M  V30 16 N -3.021906 2.658073 1.584172 0
M  V30 17 C -3.381397 2.187129 2.918384 0
M  V30 18 C -4.167573 0.898076 2.617024 0
M  V30 19 N -4.990446 1.186649 1.468034 0
M  V30 20 C -5.367629 2.573800 1.359088 0
M  V30 21 C -4.136458 3.432780 1.028619 0
M  V30 22 N -1.519179 3.058904 -0.216419 0
M  V30 23 N -0.371334 2.806642 -0.871441 0
M  V30 24 N 1.907112 -0.596327 -0.757306 0
M  V30 25 C 2.372011 -1.770513 -0.304594 0
M  V30 26 N 1.919352 -3.057379 -0.412860 0
M  V30 27 C 0.721179 -3.392776 -1.116113 0
M  V30 28 C -0.530221 -2.946619 -0.401131 0
M  V30 29 C -1.478730 -2.483561 -1.488091 0
M  V30 30 C -0.591181 -1.982218 -2.606937 0
M  V30 31 C 0.631387 -2.831368 -2.492474 0
M  V30 32 H 5.569385 -5.525343 2.237359 0
M  V30 33 H 3.820830 -6.911232 1.321453 0
M  V30 34 H 1.992165 -5.785126 0.008183 0
M  V30 35 H 5.629459 -3.036097 1.933854 0
M  V30 36 H 5.029958 -0.522452 1.218078 0
M  V30 37 H 1.893315 2.160803 -2.004893 0
M  V30 38 H 0.870524 0.456898 1.154344 0
M  V30 39 H -1.149973 0.855555 2.360221 0
M  V30 40 H -4.000991 2.884584 3.485726 0
M  V30 41 H -2.446810 1.931674 3.466445 0
M  V30 42 H -4.682497 0.605637 3.520817 0
M  V30 43 H -3.441283 0.112403 2.287620 0
M  V30 44 H -4.601530 0.798207 0.583571 0
M  V30 45 H -6.149398 2.673125 0.600814 0
M  V30 46 H -5.808656 2.857249 2.342433 0
M  V30 47 H -4.231949 4.337726 1.689624 0
M  V30 48 H -4.045982 3.650050 -0.030247 0
M  V30 49 H 0.631958 -4.501942 -1.192690 0
M  V30 50 H -0.381499 -2.129230 0.296744 0
M  V30 51 H -1.049872 -3.773498 0.141304 0
M  V30 52 H -2.105006 -3.312295 -1.871411 0
M  V30 53 H -2.144475 -1.671627 -1.183255 0
M  V30 54 H -1.114486 -2.119644 -3.569166 0
M  V30 55 H -0.428419 -0.895348 -2.483004 0
M  V30 56 H 1.558540 -2.311418 -2.820183 0
M  V30 57 H 0.514857 -3.647678 -3.267083 0
M  V30 END ATOM
M  V30 BEGIN BOND
M  V30 1 2 1 2
M  V30 2 1 2 3
M  V30 3 2 3 4
M  V30 4 1 4 5
M  V30 5 2 5 6
M  V30 6 1 5 7
M  V30 7 2 7 8
M  V30 8 1 8 9
M  V30 9 2 9 10
M  V30 10 1 10 11
M  V30 11 1 11 12
M  V30 12 2 12 13
M  V30 13 1 13 14
M  V30 14 2 14 15
M  V30 15 1 15 16
M  V30 16 1 16 17
M  V30 17 1 17 18
M  V30 18 1 18 19
M  V30 19 1 19 20
M  V30 20 1 20 21
M  V30 21 1 15 22
M  V30 22 2 22 23
M  V30 23 1 10 24
M  V30 24 2 24 25
M  V30 25 1 25 26
M  V30 26 1 26 27
M  V30 27 1 27 28
M  V30 28 1 28 29
M  V30 29 1 29 30
M  V30 30 1 30 31
M  V30 31 1 6 1
M  V30 32 1 25 7
M  V30 33 1 31 27
M  V30 34 1 26 4
M  V30 35 1 23 12
M  V30 36 1 21 16
M  V30 37 1 1 32
M  V30 38 1 2 33
M  V30 39 1 3 34
M  V30 40 1 6 35
M  V30 41 1 8 36
M  V30 42 1 11 37
M  V30 43 1 13 38
M  V30 44 1 14 39
M  V30 45 1 17 40
M  V30 46 1 17 41
M  V30 47 1 18 42
M  V30 48 1 18 43
M  V30 49 1 19 44
M  V30 50 1 20 45
M  V30 51 1 20 46
M  V30 52 1 21 47
M  V30 53 1 21 48
M  V30 54 1 27 49
M  V30 55 1 28 50
M  V30 56 1 28 51
M  V30 57 1 29 52
M  V30 58 1 29 53
M  V30 59 1 30 54
M  V30 60 1 30 55
M  V30 61 1 31 56
M  V30 62 1 31 57
M  V30 END BOND
M  V30 END CTAB
M  END
>  <Dataset>  (626) 
ChEMBL_Kinases

>  <Ligand_Instance>  (626) 
nan

>  <PDB_ID>  (626) 
nan

>  <Standardized_SMILES>  (626) 
c1ccc2c(c1)c1cnc(Nc3ccc(N4CCNCC4)nn3)nc1n2C1CCCC1

>  <Name>  (626) 
nan

>  <Pocket>  (626) 
nan

>  <ATP_Site>  (626) 
nan

>  <Peripheral>  (626) 
nan

>  <Num_H_Atoms_ProtBoundConf>  (626) 
nan

>  <Num_Resolved_Atoms>  (626) 
nan

>  <Num_Not_Resolved_Atoms>  (626) 
nan

$$$$
CHEMBL4547623
     RDKit          3D

  0  0  0  0  0  0  0  0  0  0999 V3000
M  V30 BEGIN CTAB
M  V30 COUNTS 62 65 0 0 0
M  V30 BEGIN ATOM
M  V30 1 C 1.983573 -1.820505 5.251157 0
M  V30 2 O 1.599174 -0.519506 5.638210 0
M  V30 3 C 1.726556 0.603772 4.829300 0
M  V30 4 C 1.339795 1.863883 5.240046 0
M  V30 5 C 1.480872 2.963556 4.407398 0
M  V30 6 C 2.016157 2.775610 3.158035 0
M  V30 7 C 2.409093 1.522455 2.729036 0
M  V30 8 C 2.271354 0.421125 3.553877 0
M  V30 9 C 2.984323 1.373800 1.365437 0
M  V30 10 C 2.344129 2.299373 0.351307 0 CFG=1
M  V30 11 C 1.353388 1.517882 -0.398013 0
M  V30 12 O 1.384676 1.332422 -1.663828 0
M  V30 13 N 0.292362 0.931763 0.336158 0
M  V30 14 C -0.843806 0.117213 -0.021228 0
M  V30 15 C -1.906244 0.979578 -0.331165 0
M  V30 16 C -3.141578 0.441278 -0.711260 0
M  V30 17 C -3.275176 -0.930441 -0.769004 0
M  V30 18 C -4.490545 -1.646901 -1.146071 0
M  V30 19 C -4.886805 -2.884938 -0.679475 0
M  V30 20 C -6.056485 -3.475172 -1.102115 0
M  V30 21 N -6.818103 -2.815405 -1.990443 0
M  V30 22 C -6.458661 -1.608589 -2.462863 0
M  V30 23 C -5.285919 -0.975774 -2.063366 0
M  V30 24 C -2.215210 -1.748757 -0.459007 0
M  V30 25 C -0.979980 -1.278866 -0.080165 0
M  V30 26 O 0.228553 -1.796612 0.279194 0
M  V30 27 C 0.630543 -3.100099 0.376651 0
M  V30 28 C 0.625964 -3.944033 -0.852242 0
M  V30 29 N 1.468463 -3.472534 -1.905341 0
M  V30 30 C 1.395325 -4.355770 -3.042924 0
M  V30 31 C 1.314704 -2.100431 -2.262565 0
M  V30 32 C 1.916695 3.605883 0.861138 0
M  V30 33 O 2.205989 3.794696 2.239689 0
M  V30 34 H 1.688722 -2.075208 4.207511 0
M  V30 35 H 3.056764 -2.033913 5.464441 0
M  V30 36 H 1.407973 -2.528858 5.895667 0
M  V30 37 H 0.917759 1.965289 6.246576 0
M  V30 38 H 1.178482 3.957865 4.726129 0
M  V30 39 H 2.600396 -0.546219 3.158118 0
M  V30 40 H 2.858750 0.312242 1.036338 0
M  V30 41 H 4.088544 1.560092 1.442923 0
M  V30 42 H 3.173033 2.491335 -0.393064 0
M  V30 43 H 0.211345 1.049307 1.384425 0
M  V30 44 H -1.929007 2.043363 -0.324127 0
M  V30 45 H -4.015235 0.994779 -0.967906 0
M  V30 46 H -4.221926 -3.348525 0.030116 0
M  V30 47 H -6.340894 -4.447233 -0.718040 0
M  V30 48 H -7.087874 -1.094895 -3.179272 0
M  V30 49 H -5.050691 -0.012393 -2.474676 0
M  V30 50 H -2.225999 -2.821817 -0.465711 0
M  V30 51 H 1.663357 -3.127773 0.804358 0
M  V30 52 H 0.010382 -3.575984 1.200930 0
M  V30 53 H -0.397998 -3.998985 -1.260403 0
M  V30 54 H 0.870390 -5.004210 -0.574852 0
M  V30 55 H 0.904533 -3.771239 -3.870211 0
M  V30 56 H 0.787465 -5.252771 -2.787167 0
M  V30 57 H 2.360874 -4.718819 -3.403750 0
M  V30 58 H 1.651636 -1.390285 -1.508824 0
M  V30 59 H 1.918283 -1.878307 -3.193498 0
M  V30 60 H 0.253270 -1.953553 -2.602402 0
M  V30 61 H 0.838478 3.836487 0.777821 0
M  V30 62 H 2.414831 4.478029 0.356699 0
M  V30 END ATOM
M  V30 BEGIN BOND
M  V30 1 1 1 2
M  V30 2 1 2 3
M  V30 3 2 3 4
M  V30 4 1 4 5
M  V30 5 2 5 6
M  V30 6 1 6 7
M  V30 7 2 7 8
M  V30 8 1 7 9
M  V30 9 1 9 10
M  V30 10 1 10 11
M  V30 11 2 11 12
M  V30 12 1 11 13
M  V30 13 1 13 14
M  V30 14 2 14 15
M  V30 15 1 15 16
M  V30 16 2 16 17
M  V30 17 1 17 18
M  V30 18 2 18 19
M  V30 19 1 19 20
M  V30 20 2 20 21
M  V30 21 1 21 22
M  V30 22 2 22 23
M  V30 23 1 17 24
M  V30 24 2 24 25
M  V30 25 1 25 26
M  V30 26 1 26 27
M  V30 27 1 27 28
M  V30 28 1 28 29
M  V30 29 1 29 30
M  V30 30 1 29 31
M  V30 31 1 10 32
M  V30 32 1 32 33
M  V30 33 1 8 3
M  V30 34 1 25 14
M  V30 35 1 33 6
M  V30 36 1 23 18
M  V30 37 1 1 34
M  V30 38 1 1 35
M  V30 39 1 1 36
M  V30 40 1 4 37
M  V30 41 1 5 38
M  V30 42 1 8 39
M  V30 43 1 9 40
M  V30 44 1 9 41
M  V30 45 1 10 42 CFG=3
M  V30 46 1 13 43
M  V30 47 1 15 44
M  V30 48 1 16 45
M  V30 49 1 19 46
M  V30 50 1 20 47
M  V30 51 1 22 48
M  V30 52 1 23 49
M  V30 53 1 24 50
M  V30 54 1 27 51
M  V30 55 1 27 52
M  V30 56 1 28 53
M  V30 57 1 28 54
M  V30 58 1 30 55
M  V30 59 1 30 56
M  V30 60 1 30 57
M  V30 61 1 31 58
M  V30 62 1 31 59
M  V30 63 1 31 60
M  V30 64 1 32 61
M  V30 65 1 32 62
M  V30 END BOND
M  V30 END CTAB
M  END
>  <Dataset>  (627) 
ChEMBL_Kinases

>  <Ligand_Instance>  (627) 
nan

>  <PDB_ID>  (627) 
nan

>  <Standardized_SMILES>  (627) 
COc1ccc2c(c1)C[C@@H](C(=O)Nc1ccc(-c3ccncc3)cc1OCCN(C)C)CO2

>  <Name>  (627) 
nan

>  <Pocket>  (627) 
nan

>  <ATP_Site>  (627) 
nan

>  <Peripheral>  (627) 
nan

>  <Num_H_Atoms_ProtBoundConf>  (627) 
nan

>  <Num_Resolved_Atoms>  (627) 
nan

>  <Num_Not_Resolved_Atoms>  (627) 
nan

$$$$
CHEMBL4547610
     RDKit          3D

  0  0  0  0  0  0  0  0  0  0999 V3000
M  V30 BEGIN CTAB
M  V30 COUNTS 68 72 0 0 0
M  V30 BEGIN ATOM
M  V30 1 C 5.236317 -6.327094 5.448881 0
M  V30 2 C 4.038221 -5.908557 6.276898 0
M  V30 3 C 3.538690 -7.056803 7.134458 0
M  V30 4 C 2.896118 -5.470505 5.403811 0
M  V30 5 C 3.349619 -4.315592 4.585668 0
M  V30 6 N 4.465701 -3.581878 4.420766 0
M  V30 7 O 4.242793 -2.665132 3.521834 0
M  V30 8 C 3.002774 -2.746344 3.061730 0
M  V30 9 C 2.356927 -1.909183 2.051455 0
M  V30 10 C 1.024279 -2.171862 1.718051 0
M  V30 11 C 0.466980 -1.351848 0.758433 0
M  V30 12 C 1.192987 -0.336570 0.170768 0
M  V30 13 N 0.931035 0.591333 -0.759411 0
M  V30 14 C 1.980451 1.383660 -1.013826 0
M  V30 15 N 2.118249 2.471095 -1.914574 0
M  V30 16 C 1.120737 2.983549 -2.777236 0
M  V30 17 C -0.165600 2.509598 -2.884020 0
M  V30 18 C -1.148016 2.996025 -3.717769 0
M  V30 19 C -2.512357 2.454252 -3.788702 0
M  V30 20 N -3.380364 3.132382 -2.884475 0
M  V30 21 C -3.032209 3.073167 -1.504084 0
M  V30 22 C -3.284304 1.733042 -0.873214 0
M  V30 23 N -4.446272 1.111327 -1.503325 0
M  V30 24 C -4.696605 -0.264519 -1.232045 0
M  V30 25 O -5.624918 -0.988122 -1.661985 0
M  V30 26 C -3.803022 -1.057137 -0.329801 0
M  V30 27 C -4.376907 -2.471118 -0.280192 0
M  V30 28 F -4.395433 -3.014737 -1.549822 0
M  V30 29 F -5.692801 -2.444651 0.144820 0
M  V30 30 F -3.587432 -3.293917 0.498705 0
M  V30 31 C -5.377382 1.784658 -2.391970 0
M  V30 32 C -4.789392 2.936115 -3.134213 0
M  V30 33 C -0.828744 4.063753 -4.533865 0
M  V30 34 C 0.462085 4.535064 -4.422878 0
M  V30 35 N 1.379470 4.019727 -3.589998 0
M  V30 36 N 2.959711 0.939829 -0.206672 0
M  V30 37 C 2.503417 -0.095513 0.513793 0
M  V30 38 C 3.114932 -0.888891 1.472938 0
M  V30 39 N 2.448386 -3.776580 3.727144 0
M  V30 40 H 6.140440 -5.961309 5.970618 0
M  V30 41 H 5.199942 -5.920526 4.410844 0
M  V30 42 H 5.191084 -7.424246 5.371150 0
M  V30 43 H 4.284992 -5.033186 6.923680 0
M  V30 44 H 2.638797 -6.693932 7.655244 0
M  V30 45 H 4.321903 -7.437702 7.815662 0
M  V30 46 H 3.200323 -7.841070 6.416940 0
M  V30 47 H 2.451324 -6.270604 4.795185 0
M  V30 48 H 2.093217 -5.090318 6.096257 0
M  V30 49 H 0.497702 -2.979560 2.207185 0
M  V30 50 H -0.573320 -1.523922 0.468972 0
M  V30 51 H 3.058073 2.963173 -1.960037 0
M  V30 52 H -0.473805 1.674736 -2.273582 0
M  V30 53 H -2.539125 1.349242 -3.684416 0
M  V30 54 H -2.920844 2.639724 -4.818536 0
M  V30 55 H -1.962356 3.323457 -1.393257 0
M  V30 56 H -3.569438 3.894689 -0.944922 0
M  V30 57 H -3.434203 1.901708 0.202781 0
M  V30 58 H -2.435574 1.070202 -1.036752 0
M  V30 59 H -3.791937 -0.583420 0.650096 0
M  V30 60 H -2.786574 -1.144429 -0.723113 0
M  V30 61 H -6.289263 2.085912 -1.801995 0
M  V30 62 H -5.762836 1.051751 -3.129863 0
M  V30 63 H -4.983091 2.858569 -4.217381 0
M  V30 64 H -5.321481 3.868275 -2.793581 0
M  V30 65 H -1.527425 4.507409 -5.213730 0
M  V30 66 H 0.710994 5.380813 -5.070825 0
M  V30 67 H 3.940352 1.306853 -0.114724 0
M  V30 68 H 4.136782 -0.735175 1.770794 0
M  V30 END ATOM
M  V30 BEGIN BOND
M  V30 1 1 1 2
M  V30 2 1 2 3
M  V30 3 1 2 4
M  V30 4 1 4 5
M  V30 5 2 5 6
M  V30 6 1 6 7
M  V30 7 1 7 8
M  V30 8 1 8 9
M  V30 9 2 9 10
M  V30 10 1 10 11
M  V30 11 2 11 12
M  V30 12 1 12 13
M  V30 13 2 13 14
M  V30 14 1 14 15
M  V30 15 1 15 16
M  V30 16 2 16 17
M  V30 17 1 17 18
M  V30 18 1 18 19
M  V30 19 1 19 20
M  V30 20 1 20 21
M  V30 21 1 21 22
M  V30 22 1 22 23
M  V30 23 1 23 24
M  V30 24 2 24 25
M  V30 25 1 24 26
M  V30 26 1 26 27
M  V30 27 1 27 28
M  V30 28 1 27 29
M  V30 29 1 27 30
M  V30 30 1 23 31
M  V30 31 1 31 32
M  V30 32 2 18 33
M  V30 33 1 33 34
M  V30 34 2 34 35
M  V30 35 1 14 36
M  V30 36 1 36 37
M  V30 37 2 37 38
M  V30 38 2 8 39
M  V30 39 1 39 5
M  V30 40 1 38 9
M  V30 41 1 37 12
M  V30 42 1 35 16
M  V30 43 1 32 20
M  V30 44 1 1 40
M  V30 45 1 1 41
M  V30 46 1 1 42
M  V30 47 1 2 43
M  V30 48 1 3 44
M  V30 49 1 3 45
M  V30 50 1 3 46
M  V30 51 1 4 47
M  V30 52 1 4 48
M  V30 53 1 10 49
M  V30 54 1 11 50
M  V30 55 1 15 51
M  V30 56 1 17 52
M  V30 57 1 19 53
M  V30 58 1 19 54
M  V30 59 1 21 55
M  V30 60 1 21 56
M  V30 61 1 22 57
M  V30 62 1 22 58
M  V30 63 1 26 59
M  V30 64 1 26 60
M  V30 65 1 31 61
M  V30 66 1 31 62
M  V30 67 1 32 63
M  V30 68 1 32 64
M  V30 69 1 33 65
M  V30 70 1 34 66
M  V30 71 1 36 67
M  V30 72 1 38 68
M  V30 END BOND
M  V30 END CTAB
M  END
>  <Dataset>  (628) 
ChEMBL_Kinases

>  <Ligand_Instance>  (628) 
nan

>  <PDB_ID>  (628) 
nan

>  <Standardized_SMILES>  (628) 
CC(C)Cc1noc(-c2ccc3nc(Nc4cc(CN5CCN(C(=O)CC(F)(F)F)CC5)ccn4)[nH]c3c2)n1

>  <Name>  (628) 
nan

>  <Pocket>  (628) 
nan

>  <ATP_Site>  (628) 
nan

>  <Peripheral>  (628) 
nan

>  <Num_H_Atoms_ProtBoundConf>  (628) 
nan

>  <Num_Resolved_Atoms>  (628) 
nan

>  <Num_Not_Resolved_Atoms>  (628) 
nan

$$$$
CHEMBL226232
     RDKit          3D

  0  0  0  0  0  0  0  0  0  0999 V3000
M  V30 BEGIN CTAB
M  V30 COUNTS 27 29 0 0 0
M  V30 BEGIN ATOM
M  V30 1 O 1.075896 -4.230259 1.251205 0
M  V30 2 C 0.624914 -3.243557 1.926340 0
M  V30 3 N 0.260643 -3.396867 3.313106 0
M  V30 4 C -0.844819 -2.526409 3.737559 0
M  V30 5 C -0.402268 -1.091372 3.548715 0
M  V30 6 C -0.042592 -0.871617 2.118529 0
M  V30 7 N -0.090830 0.208147 1.327913 0
M  V30 8 C 0.359124 -0.134019 0.085466 0
M  V30 9 C 0.479123 0.741360 -1.102012 0
M  V30 10 C 0.957973 0.263333 -2.323318 0
M  V30 11 C 1.055774 1.105497 -3.405181 0
M  V30 12 N 0.687654 2.384185 -3.273395 0
M  V30 13 C 0.223843 2.847468 -2.090672 0
M  V30 14 Cl -0.219547 4.544062 -2.070622 0
M  V30 15 C 0.094656 2.061688 -0.950941 0
M  V30 16 C 0.711589 -1.472788 0.060509 0
M  V30 17 C 0.445561 -1.893933 1.347254 0
M  V30 18 H 0.815840 -4.107671 3.875149 0
M  V30 19 H -1.773520 -2.733168 3.141843 0
M  V30 20 H -0.995857 -2.725502 4.821689 0
M  V30 21 H -1.173771 -0.382880 3.849854 0
M  V30 22 H 0.512420 -0.962412 4.184258 0
M  V30 23 H -0.414438 1.172718 1.585130 0
M  V30 24 H 1.244889 -0.792806 -2.373331 0
M  V30 25 H 1.432356 0.691677 -4.332065 0
M  V30 26 H -0.281005 2.470835 -0.023097 0
M  V30 27 H 1.102050 -2.070070 -0.751648 0
M  V30 END ATOM
M  V30 BEGIN BOND
M  V30 1 2 1 2
M  V30 2 1 2 3
M  V30 3 1 3 4
M  V30 4 1 4 5
M  V30 5 1 5 6
M  V30 6 1 6 7
M  V30 7 1 7 8
M  V30 8 1 8 9
M  V30 9 2 9 10
M  V30 10 1 10 11
M  V30 11 2 11 12
M  V30 12 1 12 13
M  V30 13 1 13 14
M  V30 14 2 13 15
M  V30 15 2 8 16
M  V30 16 1 16 17
M  V30 17 1 17 2
M  V30 18 2 17 6
M  V30 19 1 15 9
M  V30 20 1 3 18
M  V30 21 1 4 19
M  V30 22 1 4 20
M  V30 23 1 5 21
M  V30 24 1 5 22
M  V30 25 1 7 23
M  V30 26 1 10 24
M  V30 27 1 11 25
M  V30 28 1 15 26
M  V30 29 1 16 27
M  V30 END BOND
M  V30 END CTAB
M  END
>  <Dataset>  (629) 
ChEMBL_Kinases

>  <Ligand_Instance>  (629) 
nan

>  <PDB_ID>  (629) 
nan

>  <Standardized_SMILES>  (629) 
O=C1NCCc2[nH]c(-c3ccnc(Cl)c3)cc21

>  <Name>  (629) 
nan

>  <Pocket>  (629) 
nan

>  <ATP_Site>  (629) 
nan

>  <Peripheral>  (629) 
nan

>  <Num_H_Atoms_ProtBoundConf>  (629) 
nan

>  <Num_Resolved_Atoms>  (629) 
nan

>  <Num_Not_Resolved_Atoms>  (629) 
nan

$$$$
CHEMBL4547445
     RDKit          3D

  0  0  0  0  0  0  0  0  0  0999 V3000
M  V30 BEGIN CTAB
M  V30 COUNTS 39 42 0 0 0
M  V30 BEGIN ATOM
M  V30 1 C -1.181020 -3.365085 4.923052 0
M  V30 2 C -0.203938 -2.574568 4.373789 0
M  V30 3 C -0.523355 -1.957888 3.207859 0
M  V30 4 C 0.446950 -1.094663 2.542152 0
M  V30 5 N 0.166007 -0.467306 1.385970 0
M  V30 6 C 1.003150 0.325438 0.737853 0
M  V30 7 N 0.611436 0.944094 -0.480425 0
M  V30 8 C -0.741807 0.647903 -0.956784 0
M  V30 9 C -0.886611 -0.813354 -1.217428 0
M  V30 10 C -0.640195 -0.915351 -2.719116 0
M  V30 11 C -1.399018 0.292333 -3.216494 0
M  V30 12 C -1.115793 1.391207 -2.192636 0
M  V30 13 C 2.241892 0.499388 1.315019 0
M  V30 14 C 3.171507 1.307887 0.705704 0
M  V30 15 C 4.408817 1.490237 1.268970 0
M  V30 16 N 4.731123 0.887914 2.414866 0
M  V30 17 C 3.862511 0.083603 3.059329 0
M  V30 18 C 2.609396 -0.110373 2.503167 0
M  V30 19 N 1.666513 -0.901217 3.076268 0
M  V30 20 C -1.767059 -2.140364 2.640470 0
M  V30 21 C -2.756131 -2.945750 3.204418 0
M  V30 22 N -2.391039 -3.537191 4.362685 0
M  V30 23 H -0.992870 -3.890231 5.858756 0
M  V30 24 H 0.763428 -2.440145 4.826647 0
M  V30 25 H 1.142639 1.575842 -1.084154 0
M  V30 26 H -1.473061 0.929474 -0.142043 0
M  V30 27 H -1.934041 -1.158573 -0.988460 0
M  V30 28 H -0.154837 -1.464781 -0.738275 0
M  V30 29 H 0.447057 -0.824170 -2.861929 0
M  V30 30 H -1.033779 -1.853570 -3.108452 0
M  V30 31 H -2.477812 0.022276 -3.202163 0
M  V30 32 H -1.036363 0.622889 -4.210091 0
M  V30 33 H -2.066391 1.947551 -2.063078 0
M  V30 34 H -0.355721 2.099184 -2.572717 0
M  V30 35 H 2.951512 1.804787 -0.208364 0
M  V30 36 H 5.198099 2.103695 0.863847 0
M  V30 37 H 4.004474 -0.458180 3.989172 0
M  V30 38 H -1.985201 -1.626942 1.702360 0
M  V30 39 H -3.723503 -3.076805 2.746371 0
M  V30 END ATOM
M  V30 BEGIN BOND
M  V30 1 2 1 2
M  V30 2 1 2 3
M  V30 3 1 3 4
M  V30 4 2 4 5
M  V30 5 1 5 6
M  V30 6 1 6 7
M  V30 7 1 7 8
M  V30 8 1 8 9
M  V30 9 1 9 10
M  V30 10 1 10 11
M  V30 11 1 11 12
M  V30 12 2 6 13
M  V30 13 1 13 14
M  V30 14 2 14 15
M  V30 15 1 15 16
M  V30 16 2 16 17
M  V30 17 1 17 18
M  V30 18 2 18 19
M  V30 19 2 3 20
M  V30 20 1 20 21
M  V30 21 2 21 22
M  V30 22 1 22 1
M  V30 23 1 19 4
M  V30 24 1 12 8
M  V30 25 1 18 13
M  V30 26 1 1 23
M  V30 27 1 2 24
M  V30 28 1 7 25
M  V30 29 1 8 26
M  V30 30 1 9 27
M  V30 31 1 9 28
M  V30 32 1 10 29
M  V30 33 1 10 30
M  V30 34 1 11 31
M  V30 35 1 11 32
M  V30 36 1 12 33
M  V30 37 1 12 34
M  V30 38 1 14 35
M  V30 39 1 15 36
M  V30 40 1 17 37
M  V30 41 1 20 38
M  V30 42 1 21 39
M  V30 END BOND
M  V30 END CTAB
M  END
>  <Dataset>  (630) 
ChEMBL_Kinases

>  <Ligand_Instance>  (630) 
nan

>  <PDB_ID>  (630) 
nan

>  <Standardized_SMILES>  (630) 
c1cc(-c2nc(NC3CCCC3)c3ccncc3n2)ccn1

>  <Name>  (630) 
nan

>  <Pocket>  (630) 
nan

>  <ATP_Site>  (630) 
nan

>  <Peripheral>  (630) 
nan

>  <Num_H_Atoms_ProtBoundConf>  (630) 
nan

>  <Num_Resolved_Atoms>  (630) 
nan

>  <Num_Not_Resolved_Atoms>  (630) 
nan

$$$$
CHEMBL3702208
     RDKit          3D

  0  0  0  0  0  0  0  0  0  0999 V3000
M  V30 BEGIN CTAB
M  V30 COUNTS 60 65 0 0 0
M  V30 BEGIN ATOM
M  V30 1 N 2.645346 -3.291554 6.930871 0
M  V30 2 C 2.584018 -4.142054 5.745571 0
M  V30 3 C 3.789456 -3.965925 4.886380 0
M  V30 4 C 3.933285 -2.647163 4.217640 0
M  V30 5 N 2.634883 -2.106677 3.836056 0
M  V30 6 C 2.538636 -1.490038 2.530856 0
M  V30 7 C 1.493881 -0.697378 2.121577 0
M  V30 8 C 1.549960 -0.203491 0.836342 0
M  V30 9 C 2.556921 -0.434117 -0.070270 0
M  V30 10 N 2.561298 0.098603 -1.391470 0
M  V30 11 C 1.441852 0.930814 -1.692573 0
M  V30 12 N 1.566021 2.266277 -1.866000 0
M  V30 13 C 0.481196 3.035744 -2.135693 0
M  V30 14 C -0.758438 2.386223 -2.223476 0
M  V30 15 C -2.022572 2.911182 -2.481742 0
M  V30 16 C -2.512499 4.173943 -2.735914 0
M  V30 17 C -3.861861 4.364715 -2.958605 0
M  V30 18 C -4.735048 3.284018 -2.927925 0
M  V30 19 C -4.214896 2.019611 -2.669031 0
M  V30 20 C -2.872151 1.814166 -2.445147 0
M  V30 21 N -2.200551 0.680333 -2.184796 0
M  V30 22 C -2.698853 -0.654982 -2.057763 0
M  V30 23 C -1.603517 -1.653937 -1.748156 0
M  V30 24 C -2.338470 -2.977856 -1.892824 0
M  V30 25 C -3.460691 -2.695103 -2.884793 0
M  V30 26 C -3.242617 -1.245301 -3.339618 0
M  V30 27 C -0.887669 1.002876 -2.042608 0
M  V30 28 N 0.239788 0.293321 -1.776301 0
M  V30 29 N 3.568084 -1.235630 0.412372 0
M  V30 30 N 3.514014 -1.707914 1.641993 0
M  V30 31 C 1.522135 -2.218949 4.756342 0
M  V30 32 C 1.349180 -3.734486 4.966621 0
M  V30 33 H 3.305442 -3.675964 7.632740 0
M  V30 34 H 1.656018 -3.214724 7.289626 0
M  V30 35 H 2.525071 -5.218194 6.009691 0
M  V30 36 H 3.807287 -4.785942 4.137055 0
M  V30 37 H 4.677449 -4.087461 5.574462 0
M  V30 38 H 4.556398 -2.784774 3.308886 0
M  V30 39 H 4.402332 -1.938421 4.945901 0
M  V30 40 H 0.684976 -0.479248 2.770960 0
M  V30 41 H 0.711687 0.417869 0.545880 0
M  V30 42 H 3.337778 -0.138708 -2.022785 0
M  V30 43 H 0.565492 4.102392 -2.278353 0
M  V30 44 H -1.737592 4.942368 -2.735316 0
M  V30 45 H -4.118999 5.400322 -3.145385 0
M  V30 46 H -5.777334 3.493758 -3.108987 0
M  V30 47 H -4.946539 1.235847 -2.661210 0
M  V30 48 H -3.506537 -0.740469 -1.285717 0
M  V30 49 H -0.880808 -1.620158 -2.615944 0
M  V30 50 H -1.108634 -1.516020 -0.790684 0
M  V30 51 H -2.760339 -3.265706 -0.907144 0
M  V30 52 H -1.651079 -3.768691 -2.288286 0
M  V30 53 H -4.422233 -2.718139 -2.347770 0
M  V30 54 H -3.414151 -3.383051 -3.758329 0
M  V30 55 H -4.173133 -0.791442 -3.686750 0
M  V30 56 H -2.419793 -1.273998 -4.076093 0
M  V30 57 H 0.622660 -1.804866 4.263172 0
M  V30 58 H 1.709580 -1.741645 5.740911 0
M  V30 59 H 1.343556 -4.166852 3.934111 0
M  V30 60 H 0.408000 -3.982318 5.462314 0
M  V30 END ATOM
M  V30 BEGIN BOND
M  V30 1 1 1 2
M  V30 2 1 2 3
M  V30 3 1 3 4
M  V30 4 1 4 5
M  V30 5 1 5 6
M  V30 6 2 6 7
M  V30 7 1 7 8
M  V30 8 2 8 9
M  V30 9 1 9 10
M  V30 10 1 10 11
M  V30 11 2 11 12
M  V30 12 1 12 13
M  V30 13 2 13 14
M  V30 14 1 14 15
M  V30 15 2 15 16
M  V30 16 1 16 17
M  V30 17 2 17 18
M  V30 18 1 18 19
M  V30 19 2 19 20
M  V30 20 1 20 21
M  V30 21 1 21 22
M  V30 22 1 22 23
M  V30 23 1 23 24
M  V30 24 1 24 25
M  V30 25 1 25 26
M  V30 26 1 21 27
M  V30 27 2 27 28
M  V30 28 1 9 29
M  V30 29 2 29 30
M  V30 30 1 5 31
M  V30 31 1 31 32
M  V30 32 1 32 2
M  V30 33 1 30 6
M  V30 34 1 28 11
M  V30 35 1 27 14
M  V30 36 1 20 15
M  V30 37 1 26 22
M  V30 38 1 1 33
M  V30 39 1 1 34
M  V30 40 1 2 35
M  V30 41 1 3 36
M  V30 42 1 3 37
M  V30 43 1 4 38
M  V30 44 1 4 39
M  V30 45 1 7 40
M  V30 46 1 8 41
M  V30 47 1 10 42
M  V30 48 1 13 43
M  V30 49 1 16 44
M  V30 50 1 17 45
M  V30 51 1 18 46
M  V30 52 1 19 47
M  V30 53 1 22 48
M  V30 54 1 23 49
M  V30 55 1 23 50
M  V30 56 1 24 51
M  V30 57 1 24 52
M  V30 58 1 25 53
M  V30 59 1 25 54
M  V30 60 1 26 55
M  V30 61 1 26 56
M  V30 62 1 31 57
M  V30 63 1 31 58
M  V30 64 1 32 59
M  V30 65 1 32 60
M  V30 END BOND
M  V30 END CTAB
M  END
>  <Dataset>  (631) 
ChEMBL_Kinases

>  <Ligand_Instance>  (631) 
nan

>  <PDB_ID>  (631) 
nan

>  <Standardized_SMILES>  (631) 
NC1CCN(c2ccc(Nc3ncc4c5ccccc5n(C5CCCC5)c4n3)nn2)CC1

>  <Name>  (631) 
nan

>  <Pocket>  (631) 
nan

>  <ATP_Site>  (631) 
nan

>  <Peripheral>  (631) 
nan

>  <Num_H_Atoms_ProtBoundConf>  (631) 
nan

>  <Num_Resolved_Atoms>  (631) 
nan

>  <Num_Not_Resolved_Atoms>  (631) 
nan

$$$$
CHEMBL4546659
     RDKit          3D

  0  0  0  0  0  0  0  0  0  0999 V3000
M  V30 BEGIN CTAB
M  V30 COUNTS 50 53 0 0 0
M  V30 BEGIN ATOM
M  V30 1 C -3.192919 -3.231990 5.830959 0
M  V30 2 C -2.296559 -4.305949 5.235992 0
M  V30 3 O -1.878175 -3.879098 3.956958 0
M  V30 4 C -1.163552 -2.732181 3.749240 0
M  V30 5 N -0.690489 -1.769564 4.574105 0
M  V30 6 C -0.038818 -0.840382 3.832456 0
M  V30 7 C 0.618346 0.334722 4.211093 0
M  V30 8 C 1.211965 1.114843 3.221784 0
M  V30 9 C 1.136002 0.709941 1.904819 0
M  V30 10 C 1.722475 1.460179 0.830366 0
M  V30 11 C 2.202505 2.096479 -0.092866 0
M  V30 12 C 2.762686 2.864192 -1.225461 0 CFG=2
M  V30 13 C 4.182738 2.452380 -1.430487 0
M  V30 14 O 2.601206 4.206819 -0.927438 0
M  V30 15 C 1.993837 2.578123 -2.482345 0
M  V30 16 N 2.410746 2.045258 -3.649695 0
M  V30 17 C 1.348868 1.986377 -4.482061 0
M  V30 18 C 0.270564 2.503078 -3.778037 0
M  V30 19 C -1.180914 2.727818 -4.095534 0
M  V30 20 O 0.709837 2.848676 -2.570404 0
M  V30 21 C 0.479792 -0.462328 1.532086 0
M  V30 22 C -0.121469 -1.256774 2.513868 0
M  V30 23 N -0.819962 -2.428756 2.475814 0
M  V30 24 C -1.063521 -3.097377 1.232512 0
M  V30 25 C -2.257484 -3.529845 0.703560 0
M  V30 26 C -2.222302 -4.154401 -0.527562 0
M  V30 27 N -1.089271 -4.347092 -1.205388 0
M  V30 28 C 0.065226 -3.926063 -0.688331 0
M  V30 29 N 1.304023 -4.113959 -1.384857 0
M  V30 30 N 0.067756 -3.318044 0.500427 0
M  V30 31 H -2.681591 -2.272881 5.900795 0
M  V30 32 H -3.517572 -3.508218 6.853660 0
M  V30 33 H -4.062489 -3.080782 5.157791 0
M  V30 34 H -2.830027 -5.255378 5.163514 0
M  V30 35 H -1.388583 -4.356530 5.879741 0
M  V30 36 H 0.677757 0.649511 5.232148 0
M  V30 37 H 1.745553 2.050309 3.440897 0
M  V30 38 H 4.415443 2.620542 -2.516711 0
M  V30 39 H 4.851766 3.188305 -0.901502 0
M  V30 40 H 4.398816 1.416138 -1.171153 0
M  V30 41 H 1.634504 4.409897 -1.099234 0
M  V30 42 H 1.203930 1.648422 -5.482294 0
M  V30 43 H -1.820633 2.132904 -3.398762 0
M  V30 44 H -1.410172 3.806394 -3.990268 0
M  V30 45 H -1.367260 2.395819 -5.119267 0
M  V30 46 H 0.422617 -0.777739 0.490406 0
M  V30 47 H -3.102994 -3.324977 1.328849 0
M  V30 48 H -3.178967 -4.479608 -0.909693 0
M  V30 49 H 1.904148 -4.959982 -1.528169 0
M  V30 50 H 1.934140 -3.478663 -1.927056 0
M  V30 END ATOM
M  V30 BEGIN BOND
M  V30 1 1 1 2
M  V30 2 1 2 3
M  V30 3 1 3 4
M  V30 4 2 4 5
M  V30 5 1 5 6
M  V30 6 2 6 7
M  V30 7 1 7 8
M  V30 8 2 8 9
M  V30 9 1 9 10
M  V30 10 3 10 11
M  V30 11 1 12 11 CFG=1
M  V30 12 1 12 13
M  V30 13 1 12 14
M  V30 14 1 12 15
M  V30 15 2 15 16
M  V30 16 1 16 17
M  V30 17 2 17 18
M  V30 18 1 18 19
M  V30 19 1 18 20
M  V30 20 1 9 21
M  V30 21 2 21 22
M  V30 22 1 22 23
M  V30 23 1 23 24
M  V30 24 2 24 25
M  V30 25 1 25 26
M  V30 26 2 26 27
M  V30 27 1 27 28
M  V30 28 1 28 29
M  V30 29 2 28 30
M  V30 30 1 23 4
M  V30 31 1 30 24
M  V30 32 1 22 6
M  V30 33 1 20 15
M  V30 34 1 1 31
M  V30 35 1 1 32
M  V30 36 1 1 33
M  V30 37 1 2 34
M  V30 38 1 2 35
M  V30 39 1 7 36
M  V30 40 1 8 37
M  V30 41 1 13 38
M  V30 42 1 13 39
M  V30 43 1 13 40
M  V30 44 1 14 41
M  V30 45 1 17 42
M  V30 46 1 19 43
M  V30 47 1 19 44
M  V30 48 1 19 45
M  V30 49 1 21 46
M  V30 50 1 25 47
M  V30 51 1 26 48
M  V30 52 1 29 49
M  V30 53 1 29 50
M  V30 END BOND
M  V30 END CTAB
M  END
>  <Dataset>  (632) 
ChEMBL_Kinases

>  <Ligand_Instance>  (632) 
nan

>  <PDB_ID>  (632) 
nan

>  <Standardized_SMILES>  (632) 
CCOc1nc2ccc(C#C[C@](C)(O)c3ncc(C)o3)cc2n1-c1ccnc(N)n1

>  <Name>  (632) 
nan

>  <Pocket>  (632) 
nan

>  <ATP_Site>  (632) 
nan

>  <Peripheral>  (632) 
nan

>  <Num_H_Atoms_ProtBoundConf>  (632) 
nan

>  <Num_Resolved_Atoms>  (632) 
nan

>  <Num_Not_Resolved_Atoms>  (632) 
nan

$$$$
CHEMBL3702209
     RDKit          3D

  0  0  0  0  0  0  0  0  0  0999 V3000
M  V30 BEGIN CTAB
M  V30 COUNTS 67 72 0 0 0
M  V30 BEGIN ATOM
M  V30 1 C 4.246898 -1.846317 3.386910 0
M  V30 2 N 4.056697 -0.443589 3.389666 0
M  V30 3 C 2.715600 -0.074504 3.561286 0
M  V30 4 C 4.927133 0.329470 2.583113 0
M  V30 5 C 4.717642 1.802156 2.576271 0
M  V30 6 C 4.140950 2.381013 1.340681 0
M  V30 7 N 3.605758 1.424697 0.398917 0
M  V30 8 C 2.437716 1.578750 -0.408932 0
M  V30 9 C 1.214211 1.293714 0.200337 0
M  V30 10 C 0.054984 1.419258 -0.549495 0
M  V30 11 C 0.046201 1.818231 -1.891322 0
M  V30 12 N -1.189181 1.892820 -2.598624 0
M  V30 13 C -2.359098 1.529689 -1.878303 0
M  V30 14 N -3.446859 2.221163 -1.432704 0
M  V30 15 C -4.417358 1.599710 -0.746369 0
M  V30 16 C -4.368481 0.268068 -0.463006 0
M  V30 17 C -5.172930 -0.648781 0.208080 0
M  V30 18 C -6.369866 -0.431620 0.826280 0
M  V30 19 C -6.964506 -1.518635 1.422938 0
M  V30 20 C -6.340986 -2.745976 1.370321 0
M  V30 21 C -5.112898 -2.935039 0.726133 0
M  V30 22 C -4.492008 -1.839436 0.113055 0
M  V30 23 N -3.333461 -1.774306 -0.552996 0
M  V30 24 C -2.351879 -2.748716 -0.856256 0
M  V30 25 C -2.775300 -3.929250 -1.656045 0
M  V30 26 C -1.545609 -4.837612 -1.491879 0
M  V30 27 C -1.103773 -4.625741 -0.060743 0
M  V30 28 C -1.606357 -3.268621 0.349294 0
M  V30 29 C -3.276863 -0.444892 -0.904755 0
M  V30 30 N -2.324349 0.216651 -1.591204 0
M  V30 31 N 1.252899 2.080178 -2.423236 0
M  V30 32 C 2.403552 1.972066 -1.733972 0
M  V30 33 C 4.231276 0.115933 0.158104 0
M  V30 34 C 5.214657 -0.234542 1.208527 0
M  V30 35 H 5.320207 -2.099516 3.403589 0
M  V30 36 H 3.729208 -2.380533 2.568132 0
M  V30 37 H 3.784597 -2.270461 4.321932 0
M  V30 38 H 2.425254 0.924467 3.261337 0
M  V30 39 H 2.522850 -0.101731 4.677534 0
M  V30 40 H 1.966780 -0.816263 3.176664 0
M  V30 41 H 5.934978 0.168148 3.098616 0
M  V30 42 H 5.681492 2.365247 2.779559 0
M  V30 43 H 4.075777 2.082022 3.435312 0
M  V30 44 H 4.920330 2.937978 0.753410 0
M  V30 45 H 3.339872 3.130374 1.503624 0
M  V30 46 H 1.194136 0.986605 1.219653 0
M  V30 47 H -0.849387 1.183067 -0.005752 0
M  V30 48 H -1.152193 2.209503 -3.598081 0
M  V30 49 H -5.245003 2.208298 -0.425435 0
M  V30 50 H -6.860942 0.509624 0.873508 0
M  V30 51 H -7.904828 -1.519392 1.952884 0
M  V30 52 H -6.781907 -3.631743 1.832057 0
M  V30 53 H -4.656054 -3.905647 0.706755 0
M  V30 54 H -1.537497 -2.253429 -1.475653 0
M  V30 55 H -3.685150 -4.436692 -1.371327 0
M  V30 56 H -2.880751 -3.652495 -2.727219 0
M  V30 57 H -0.813219 -4.450690 -2.216353 0
M  V30 58 H -1.874376 -5.856171 -1.703737 0
M  V30 59 H 0.010091 -4.702104 -0.052261 0
M  V30 60 H -1.555819 -5.425271 0.557544 0
M  V30 61 H -2.219269 -3.290575 1.264896 0
M  V30 62 H -0.739569 -2.612842 0.582257 0
M  V30 63 H 3.360655 2.189645 -2.187831 0
M  V30 64 H 4.764069 0.222012 -0.811736 0
M  V30 65 H 3.464609 -0.659325 -0.028300 0
M  V30 66 H 6.221064 0.163402 0.883308 0
M  V30 67 H 5.336344 -1.311716 1.275819 0
M  V30 END ATOM
M  V30 BEGIN BOND
M  V30 1 1 1 2
M  V30 2 1 2 3
M  V30 3 1 2 4
M  V30 4 1 4 5
M  V30 5 1 5 6
M  V30 6 1 6 7
M  V30 7 1 7 8
M  V30 8 2 8 9
M  V30 9 1 9 10
M  V30 10 2 10 11
M  V30 11 1 11 12
M  V30 12 1 12 13
M  V30 13 2 13 14
M  V30 14 1 14 15
M  V30 15 2 15 16
M  V30 16 1 16 17
M  V30 17 2 17 18
M  V30 18 1 18 19
M  V30 19 2 19 20
M  V30 20 1 20 21
M  V30 21 2 21 22
M  V30 22 1 22 23
M  V30 23 1 23 24
M  V30 24 1 24 25
M  V30 25 1 25 26
M  V30 26 1 26 27
M  V30 27 1 27 28
M  V30 28 1 23 29
M  V30 29 2 29 30
M  V30 30 1 11 31
M  V30 31 2 31 32
M  V30 32 1 7 33
M  V30 33 1 33 34
M  V30 34 1 34 4
M  V30 35 1 32 8
M  V30 36 1 30 13
M  V30 37 1 29 16
M  V30 38 1 22 17
M  V30 39 1 28 24
M  V30 40 1 1 35
M  V30 41 1 1 36
M  V30 42 1 1 37
M  V30 43 1 3 38
M  V30 44 1 3 39
M  V30 45 1 3 40
M  V30 46 1 4 41
M  V30 47 1 5 42
M  V30 48 1 5 43
M  V30 49 1 6 44
M  V30 50 1 6 45
M  V30 51 1 9 46
M  V30 52 1 10 47
M  V30 53 1 12 48
M  V30 54 1 15 49
M  V30 55 1 18 50
M  V30 56 1 19 51
M  V30 57 1 20 52
M  V30 58 1 21 53
M  V30 59 1 24 54
M  V30 60 1 25 55
M  V30 61 1 25 56
M  V30 62 1 26 57
M  V30 63 1 26 58
M  V30 64 1 27 59
M  V30 65 1 27 60
M  V30 66 1 28 61
M  V30 67 1 28 62
M  V30 68 1 32 63
M  V30 69 1 33 64
M  V30 70 1 33 65
M  V30 71 1 34 66
M  V30 72 1 34 67
M  V30 END BOND
M  V30 END CTAB
M  END
>  <Dataset>  (633) 
ChEMBL_Kinases

>  <Ligand_Instance>  (633) 
nan

>  <PDB_ID>  (633) 
nan

>  <Standardized_SMILES>  (633) 
CN(C)C1CCN(c2ccc(Nc3ncc4c5ccccc5n(C5CCCC5)c4n3)nc2)CC1

>  <Name>  (633) 
nan

>  <Pocket>  (633) 
nan

>  <ATP_Site>  (633) 
nan

>  <Peripheral>  (633) 
nan

>  <Num_H_Atoms_ProtBoundConf>  (633) 
nan

>  <Num_Resolved_Atoms>  (633) 
nan

>  <Num_Not_Resolved_Atoms>  (633) 
nan

$$$$
CHEMBL3702214
     RDKit          3D

  0  0  0  0  0  0  0  0  0  0999 V3000
M  V30 BEGIN CTAB
M  V30 COUNTS 63 67 0 0 0
M  V30 BEGIN ATOM
M  V30 1 C 5.748283 0.490582 3.899426 0
M  V30 2 O 4.547699 1.017722 4.309591 0
M  V30 3 C 4.041178 2.026020 3.510147 0
M  V30 4 C 3.811665 1.520135 2.115092 0
M  V30 5 N 3.268496 2.598979 1.271939 0
M  V30 6 C 3.937075 3.500875 0.522683 0
M  V30 7 C 5.277643 3.695285 0.311063 0
M  V30 8 N 5.665589 4.700028 -0.509268 0
M  V30 9 C 4.753847 5.498857 -1.110518 0
M  V30 10 C 3.379833 5.348280 -0.932457 0
M  V30 11 C 3.016308 4.318453 -0.092940 0
M  V30 12 C 1.756248 3.908907 0.287315 0
M  V30 13 C 0.469496 4.326089 0.008155 0
M  V30 14 N -0.567095 3.680183 0.568516 0
M  V30 15 C -0.394993 2.629324 1.401483 0
M  V30 16 N -1.414855 1.877400 2.048802 0
M  V30 17 C -2.039211 0.748958 1.448587 0
M  V30 18 C -3.028671 0.030173 2.111235 0
M  V30 19 C -3.638901 -1.056668 1.539754 0
M  V30 20 C -3.308321 -1.499877 0.277301 0
M  V30 21 N -3.868978 -2.612889 -0.409918 0
M  V30 22 C -3.602264 -2.976348 -1.776044 0
M  V30 23 C -2.813338 -4.267825 -1.712578 0
M  V30 24 C -3.806398 -5.316158 -1.337348 0
M  V30 25 N -3.340172 -6.665683 -1.377072 0
M  V30 26 C -2.938463 -6.991439 -2.742692 0
M  V30 27 C -2.187760 -6.909088 -0.540778 0
M  V30 28 C -4.467891 -4.982510 -0.052762 0
M  V30 29 C -4.793240 -3.549845 0.174987 0
M  V30 30 C -2.324623 -0.761207 -0.344636 0
M  V30 31 N -1.725722 0.305337 0.215978 0
M  V30 32 N 0.852590 2.226223 1.671176 0
M  V30 33 C 1.945330 2.828808 1.143223 0
M  V30 34 H 6.501498 1.310665 3.878958 0
M  V30 35 H 6.085774 -0.231015 4.691336 0
M  V30 36 H 5.710048 -0.059501 2.956651 0
M  V30 37 H 4.751568 2.883328 3.523937 0
M  V30 38 H 3.093506 2.359144 3.997666 0
M  V30 39 H 4.771371 1.192814 1.676302 0
M  V30 40 H 3.093507 0.691559 2.160419 0
M  V30 41 H 5.975573 3.041913 0.805369 0
M  V30 42 H 5.106184 6.280770 -1.751366 0
M  V30 43 H 2.692582 6.020918 -1.442212 0
M  V30 44 H 0.292659 5.161357 -0.652577 0
M  V30 45 H -1.720192 2.156455 2.994370 0
M  V30 46 H -3.334071 0.320445 3.095879 0
M  V30 47 H -4.391227 -1.579382 2.075708 0
M  V30 48 H -3.092826 -2.202485 -2.377047 0
M  V30 49 H -4.585966 -3.148107 -2.309892 0
M  V30 50 H -2.094712 -4.199548 -0.843874 0
M  V30 51 H -2.235498 -4.453401 -2.627965 0
M  V30 52 H -4.613979 -5.260103 -2.128147 0
M  V30 53 H -3.807185 -6.823579 -3.405164 0
M  V30 54 H -2.653954 -8.077632 -2.725264 0
M  V30 55 H -2.031736 -6.431545 -3.016906 0
M  V30 56 H -1.275177 -6.402291 -0.938450 0
M  V30 57 H -2.294711 -6.633206 0.506298 0
M  V30 58 H -1.999906 -8.006819 -0.560354 0
M  V30 59 H -5.421629 -5.572237 0.004049 0
M  V30 60 H -3.862296 -5.364826 0.794621 0
M  V30 61 H -4.802014 -3.373338 1.269671 0
M  V30 62 H -5.803481 -3.282599 -0.198883 0
M  V30 63 H -1.919558 -0.937403 -1.330283 0
M  V30 END ATOM
M  V30 BEGIN BOND
M  V30 1 1 1 2
M  V30 2 1 2 3
M  V30 3 1 3 4
M  V30 4 1 4 5
M  V30 5 1 5 6
M  V30 6 2 6 7
M  V30 7 1 7 8
M  V30 8 2 8 9
M  V30 9 1 9 10
M  V30 10 2 10 11
M  V30 11 1 11 12
M  V30 12 2 12 13
M  V30 13 1 13 14
M  V30 14 2 14 15
M  V30 15 1 15 16
M  V30 16 1 16 17
M  V30 17 2 17 18
M  V30 18 1 18 19
M  V30 19 2 19 20
M  V30 20 1 20 21
M  V30 21 1 21 22
M  V30 22 1 22 23
M  V30 23 1 23 24
M  V30 24 1 24 25
M  V30 25 1 25 26
M  V30 26 1 25 27
M  V30 27 1 24 28
M  V30 28 1 28 29
M  V30 29 1 20 30
M  V30 30 2 30 31
M  V30 31 1 15 32
M  V30 32 2 32 33
M  V30 33 1 33 5
M  V30 34 1 11 6
M  V30 35 1 33 12
M  V30 36 1 31 17
M  V30 37 1 29 21
M  V30 38 1 1 34
M  V30 39 1 1 35
M  V30 40 1 1 36
M  V30 41 1 3 37
M  V30 42 1 3 38
M  V30 43 1 4 39
M  V30 44 1 4 40
M  V30 45 1 7 41
M  V30 46 1 9 42
M  V30 47 1 10 43
M  V30 48 1 13 44
M  V30 49 1 16 45
M  V30 50 1 18 46
M  V30 51 1 19 47
M  V30 52 1 22 48
M  V30 53 1 22 49
M  V30 54 1 23 50
M  V30 55 1 23 51
M  V30 56 1 24 52
M  V30 57 1 26 53
M  V30 58 1 26 54
M  V30 59 1 26 55
M  V30 60 1 27 56
M  V30 61 1 27 57
M  V30 62 1 27 58
M  V30 63 1 28 59
M  V30 64 1 28 60
M  V30 65 1 29 61
M  V30 66 1 29 62
M  V30 67 1 30 63
M  V30 END BOND
M  V30 END CTAB
M  END
>  <Dataset>  (634) 
ChEMBL_Kinases

>  <Ligand_Instance>  (634) 
nan

>  <PDB_ID>  (634) 
nan

>  <Standardized_SMILES>  (634) 
COCCn1c2cnccc2c2cnc(Nc3ccc(N4CCC(N(C)C)CC4)cn3)nc21

>  <Name>  (634) 
nan

>  <Pocket>  (634) 
nan

>  <ATP_Site>  (634) 
nan

>  <Peripheral>  (634) 
nan

>  <Num_H_Atoms_ProtBoundConf>  (634) 
nan

>  <Num_Resolved_Atoms>  (634) 
nan

>  <Num_Not_Resolved_Atoms>  (634) 
nan

$$$$
CHEMBL4561980
     RDKit          3D

  0  0  0  0  0  0  0  0  0  0999 V3000
M  V30 BEGIN CTAB
M  V30 COUNTS 43 46 0 0 0
M  V30 BEGIN ATOM
M  V30 1 C 2.733360 -5.582350 0.636412 0
M  V30 2 C 2.263336 -4.192678 0.380040 0
M  V30 3 N 1.718424 -3.746333 -0.766889 0
M  V30 4 C 1.412065 -2.423095 -0.629732 0
M  V30 5 C 0.803340 -1.613402 -1.682704 0
M  V30 6 C -0.452901 -1.150455 -1.281666 0
M  V30 7 C -1.227724 -0.351192 -2.127837 0
M  V30 8 C -0.719393 -0.038073 -3.355596 0
M  V30 9 C 0.520407 -0.491453 -3.758911 0
M  V30 10 C 1.288186 -1.279982 -2.927693 0
M  V30 11 O 2.545719 -1.810423 -3.186533 0
M  V30 12 C 1.795185 -2.064868 0.666752 0
M  V30 13 C 1.582536 -0.685747 1.096439 0
M  V30 14 C 2.315078 0.248233 0.351788 0
M  V30 15 C 2.183518 1.586872 0.679170 0
M  V30 16 N 1.376286 1.997264 1.684842 0
M  V30 17 C 0.666494 1.091439 2.406343 0
M  V30 18 N -0.201304 1.505279 3.482926 0
M  V30 19 C -1.514683 1.746531 2.935433 0
M  V30 20 O -1.792696 1.602409 1.716649 0
M  V30 21 C -2.624135 2.194148 3.850820 0
M  V30 22 C -2.298355 2.939626 5.087121 0
M  V30 23 C -2.642617 1.472577 5.162952 0
M  V30 24 C 0.769351 -0.231736 2.114761 0
M  V30 25 N 2.303354 -3.177130 1.228768 0
M  V30 26 H 1.893142 -6.305088 0.648737 0
M  V30 27 H 3.455184 -5.915004 -0.136830 0
M  V30 28 H 3.211955 -5.631800 1.631670 0
M  V30 29 H -0.944139 -1.345258 -0.324946 0
M  V30 30 H -2.203964 0.024287 -1.848992 0
M  V30 31 H -1.272857 0.575267 -4.051367 0
M  V30 32 H 0.988530 -0.282382 -4.720680 0
M  V30 33 H 2.774482 -2.133554 -4.115332 0
M  V30 34 H 2.987682 -0.023717 -0.477006 0
M  V30 35 H 2.741254 2.333298 0.116714 0
M  V30 36 H -0.042814 1.647442 4.517615 0
M  V30 37 H -3.585837 2.348160 3.324424 0
M  V30 38 H -1.263547 3.286017 5.231829 0
M  V30 39 H -3.077635 3.636114 5.440421 0
M  V30 40 H -1.766906 0.830351 5.450847 0
M  V30 41 H -3.623065 1.184812 5.596791 0
M  V30 42 H 0.246379 -1.022083 2.630647 0
M  V30 43 H 2.654291 -3.131705 2.210595 0
M  V30 END ATOM
M  V30 BEGIN BOND
M  V30 1 1 1 2
M  V30 2 2 2 3
M  V30 3 1 3 4
M  V30 4 1 4 5
M  V30 5 2 5 6
M  V30 6 1 6 7
M  V30 7 2 7 8
M  V30 8 1 8 9
M  V30 9 2 9 10
M  V30 10 1 10 11
M  V30 11 2 4 12
M  V30 12 1 12 13
M  V30 13 2 13 14
M  V30 14 1 14 15
M  V30 15 2 15 16
M  V30 16 1 16 17
M  V30 17 1 17 18
M  V30 18 1 18 19
M  V30 19 2 19 20
M  V30 20 1 19 21
M  V30 21 1 21 22
M  V30 22 1 22 23
M  V30 23 2 17 24
M  V30 24 1 12 25
M  V30 25 1 25 2
M  V30 26 1 10 5
M  V30 27 1 24 13
M  V30 28 1 23 21
M  V30 29 1 1 26
M  V30 30 1 1 27
M  V30 31 1 1 28
M  V30 32 1 6 29
M  V30 33 1 7 30
M  V30 34 1 8 31
M  V30 35 1 9 32
M  V30 36 1 11 33
M  V30 37 1 14 34
M  V30 38 1 15 35
M  V30 39 1 18 36
M  V30 40 1 21 37
M  V30 41 1 22 38
M  V30 42 1 22 39
M  V30 43 1 23 40
M  V30 44 1 23 41
M  V30 45 1 24 42
M  V30 46 1 25 43
M  V30 END BOND
M  V30 END CTAB
M  END
>  <Dataset>  (635) 
ChEMBL_Kinases

>  <Ligand_Instance>  (635) 
nan

>  <PDB_ID>  (635) 
nan

>  <Standardized_SMILES>  (635) 
Cc1nc(-c2ccccc2O)c(-c2ccnc(NC(=O)C3CC3)c2)[nH]1

>  <Name>  (635) 
nan

>  <Pocket>  (635) 
nan

>  <ATP_Site>  (635) 
nan

>  <Peripheral>  (635) 
nan

>  <Num_H_Atoms_ProtBoundConf>  (635) 
nan

>  <Num_Resolved_Atoms>  (635) 
nan

>  <Num_Not_Resolved_Atoms>  (635) 
nan

$$$$
CHEMBL3702210
     RDKit          3D

  0  0  0  0  0  0  0  0  0  0999 V3000
M  V30 BEGIN CTAB
M  V30 COUNTS 63 68 0 0 0
M  V30 BEGIN ATOM
M  V30 1 C 5.665890 -1.792081 3.366659 0
M  V30 2 N 4.711704 -0.815220 3.805122 0
M  V30 3 C 5.170211 0.560035 3.610698 0
M  V30 4 C 5.456272 0.888033 2.180729 0
M  V30 5 C 4.619351 2.072325 1.679840 0
M  V30 6 N 3.231161 1.722534 1.865936 0
M  V30 7 C 2.242272 1.683298 0.847543 0
M  V30 8 C 2.490886 1.997743 -0.470354 0
M  V30 9 C 1.515672 1.951504 -1.446299 0
M  V30 10 C 0.241009 1.572706 -1.074161 0
M  V30 11 N -0.849217 1.484781 -1.993387 0
M  V30 12 C -2.163342 1.095040 -1.619133 0
M  V30 13 N -3.191702 1.868846 -1.229786 0
M  V30 14 C -4.389495 1.342456 -0.902176 0
M  V30 15 C -4.524385 -0.033061 -0.981272 0
M  V30 16 C -5.644483 -0.778994 -0.701283 0
M  V30 17 C -6.931776 -0.451148 -0.275954 0
M  V30 18 C -7.872833 -1.436214 -0.077096 0
M  V30 19 N -7.470623 -2.701159 -0.316621 0
M  V30 20 C -6.238265 -3.007664 -0.723132 0
M  V30 21 F -6.004262 -4.316913 -0.923658 0
M  V30 22 C -5.247320 -2.076874 -0.941879 0
M  V30 23 N -3.973248 -2.136998 -1.341753 0
M  V30 24 C -3.159237 -3.204024 -1.689851 0
M  V30 25 C -3.405623 -4.596859 -1.553241 0
M  V30 26 C -1.971392 -5.134178 -1.902427 0
M  V30 27 C -1.107005 -4.334823 -0.958187 0
M  V30 28 C -1.849535 -3.032121 -0.882377 0
M  V30 29 C -3.519416 -0.856826 -1.367444 0
M  V30 30 N -2.384445 -0.209074 -1.664934 0
M  V30 31 N -0.009014 1.262634 0.220111 0
M  V30 32 C 0.952999 1.312526 1.160694 0
M  V30 33 C 2.875027 1.392424 3.230839 0
M  V30 34 C 4.066881 1.444956 4.136761 0
M  V30 35 H 6.695808 -1.496809 3.606279 0
M  V30 36 H 5.511656 -2.061028 2.298798 0
M  V30 37 H 5.466908 -2.733161 3.939579 0
M  V30 38 H 3.815410 -0.981085 3.297845 0
M  V30 39 H 6.061428 0.740373 4.238000 0
M  V30 40 H 6.535355 1.172949 2.044854 0
M  V30 41 H 5.264819 0.067481 1.469335 0
M  V30 42 H 4.927340 2.228768 0.647354 0
M  V30 43 H 4.839837 2.925839 2.350554 0
M  V30 44 H 3.474143 2.293206 -0.775336 0
M  V30 45 H 1.716207 2.200071 -2.483370 0
M  V30 46 H -0.717031 1.709083 -2.997642 0
M  V30 47 H -5.196613 1.954379 -0.596113 0
M  V30 48 H -7.224454 0.570513 -0.092828 0
M  V30 49 H -8.873021 -1.216359 0.250323 0
M  V30 50 H -2.790485 -3.012170 -2.750982 0
M  V30 51 H -3.517216 -5.033370 -0.537596 0
M  V30 52 H -3.947102 -5.157487 -2.353098 0
M  V30 53 H -1.755108 -4.764878 -2.926339 0
M  V30 54 H -1.920883 -6.213318 -1.774618 0
M  V30 55 H -0.090267 -4.174989 -1.344673 0
M  V30 56 H -1.041931 -4.857683 0.000304 0
M  V30 57 H -2.146336 -2.869938 0.174116 0
M  V30 58 H -1.262201 -2.177007 -1.215844 0
M  V30 59 H 0.637994 1.041478 2.172279 0
M  V30 60 H 2.171041 2.191885 3.596322 0
M  V30 61 H 2.302272 0.452435 3.300343 0
M  V30 62 H 3.716488 1.036222 5.128598 0
M  V30 63 H 4.357759 2.494421 4.285323 0
M  V30 END ATOM
M  V30 BEGIN BOND
M  V30 1 1 1 2
M  V30 2 1 2 3
M  V30 3 1 3 4
M  V30 4 1 4 5
M  V30 5 1 5 6
M  V30 6 1 6 7
M  V30 7 2 7 8
M  V30 8 1 8 9
M  V30 9 2 9 10
M  V30 10 1 10 11
M  V30 11 1 11 12
M  V30 12 2 12 13
M  V30 13 1 13 14
M  V30 14 2 14 15
M  V30 15 1 15 16
M  V30 16 2 16 17
M  V30 17 1 17 18
M  V30 18 2 18 19
M  V30 19 1 19 20
M  V30 20 1 20 21
M  V30 21 2 20 22
M  V30 22 1 22 23
M  V30 23 1 23 24
M  V30 24 1 24 25
M  V30 25 1 25 26
M  V30 26 1 26 27
M  V30 27 1 27 28
M  V30 28 1 23 29
M  V30 29 2 29 30
M  V30 30 1 10 31
M  V30 31 2 31 32
M  V30 32 1 6 33
M  V30 33 1 33 34
M  V30 34 1 34 3
M  V30 35 1 32 7
M  V30 36 1 30 12
M  V30 37 1 29 15
M  V30 38 1 22 16
M  V30 39 1 28 24
M  V30 40 1 1 35
M  V30 41 1 1 36
M  V30 42 1 1 37
M  V30 43 1 2 38
M  V30 44 1 3 39
M  V30 45 1 4 40
M  V30 46 1 4 41
M  V30 47 1 5 42
M  V30 48 1 5 43
M  V30 49 1 8 44
M  V30 50 1 9 45
M  V30 51 1 11 46
M  V30 52 1 14 47
M  V30 53 1 17 48
M  V30 54 1 18 49
M  V30 55 1 24 50
M  V30 56 1 25 51
M  V30 57 1 25 52
M  V30 58 1 26 53
M  V30 59 1 26 54
M  V30 60 1 27 55
M  V30 61 1 27 56
M  V30 62 1 28 57
M  V30 63 1 28 58
M  V30 64 1 32 59
M  V30 65 1 33 60
M  V30 66 1 33 61
M  V30 67 1 34 62
M  V30 68 1 34 63
M  V30 END BOND
M  V30 END CTAB
M  END
>  <Dataset>  (636) 
ChEMBL_Kinases

>  <Ligand_Instance>  (636) 
nan

>  <PDB_ID>  (636) 
nan

>  <Standardized_SMILES>  (636) 
CNC1CCN(c2ccc(Nc3ncc4c5ccnc(F)c5n(C5CCCC5)c4n3)nc2)CC1

>  <Name>  (636) 
nan

>  <Pocket>  (636) 
nan

>  <ATP_Site>  (636) 
nan

>  <Peripheral>  (636) 
nan

>  <Num_H_Atoms_ProtBoundConf>  (636) 
nan

>  <Num_Resolved_Atoms>  (636) 
nan

>  <Num_Not_Resolved_Atoms>  (636) 
nan

$$$$
CHEMBL4546373
     RDKit          3D

  0  0  0  0  0  0  0  0  0  0999 V3000
M  V30 BEGIN CTAB
M  V30 COUNTS 51 54 0 0 0
M  V30 BEGIN ATOM
M  V30 1 C -0.435567 -1.959939 4.729585 0
M  V30 2 C 0.742210 -1.007981 4.753514 0 CFG=1
M  V30 3 N 1.762020 -1.371676 5.689570 0
M  V30 4 C 2.947581 -1.599485 4.938889 0
M  V30 5 O 4.038524 -1.934709 5.449801 0
M  V30 6 C 2.692047 -1.387046 3.537904 0
M  V30 7 C 3.149802 -1.370171 2.243808 0
M  V30 8 C 2.185098 -1.023768 1.312557 0
M  V30 9 C 2.394088 -0.928561 -0.126904 0
M  V30 10 C 3.675575 -1.208313 -0.569663 0
M  V30 11 C 4.013950 -1.157829 -1.903104 0
M  V30 12 C 3.028076 -0.815287 -2.806656 0
M  V30 13 C 1.793264 -0.553859 -2.299744 0
M  V30 14 C 1.378408 -0.582785 -0.990105 0
M  V30 15 N 0.063908 -0.302124 -0.569609 0
M  V30 16 C -0.896472 0.009961 -1.346044 0
M  V30 17 N -2.221385 0.285533 -0.841969 0
M  V30 18 C -2.602848 0.020488 0.520752 0
M  V30 19 C -2.389324 -1.386747 0.966118 0
M  V30 20 C -4.146486 0.178103 0.569179 0
M  V30 21 C -2.064953 1.033708 1.476535 0
M  V30 22 N -0.821252 0.120382 -2.760829 0
M  V30 23 C -1.927330 0.431883 -3.601911 0
M  V30 24 S 0.667516 -0.127053 -3.591181 0
M  V30 25 O 0.533181 -1.298781 -4.530444 0
M  V30 26 O 1.106169 1.123170 -4.288566 0
M  V30 27 N 1.135430 -0.837352 2.124027 0
M  V30 28 C 1.366554 -1.033148 3.428024 0
M  V30 29 H -1.378188 -1.416714 4.444387 0
M  V30 30 H -0.263501 -2.825317 4.082846 0
M  V30 31 H -0.610194 -2.288714 5.778388 0
M  V30 32 H 0.350295 -0.007365 5.034630 0
M  V30 33 H 1.618872 -1.442397 6.706091 0
M  V30 34 H 4.205339 -1.625246 2.074886 0
M  V30 35 H 4.500050 -1.485688 0.098744 0
M  V30 36 H 5.021569 -1.381620 -2.216692 0
M  V30 37 H 3.339527 -0.789400 -3.832720 0
M  V30 38 H -2.963960 0.705518 -1.474042 0
M  V30 39 H -3.178575 -2.015280 0.480900 0
M  V30 40 H -1.440474 -1.779052 0.528186 0
M  V30 41 H -2.444183 -1.490519 2.046474 0
M  V30 42 H -4.385710 0.087369 1.664947 0
M  V30 43 H -4.559679 -0.718467 0.063608 0
M  V30 44 H -4.465807 1.139073 0.143312 0
M  V30 45 H -1.875741 0.523044 2.450968 0
M  V30 46 H -2.757250 1.880886 1.588896 0
M  V30 47 H -1.089562 1.436067 1.103117 0
M  V30 48 H -1.707874 0.330830 -4.663257 0
M  V30 49 H -2.252603 1.485139 -3.361987 0
M  V30 50 H -2.797128 -0.204908 -3.283310 0
M  V30 51 H 0.214698 -0.560562 1.752754 0
M  V30 END ATOM
M  V30 BEGIN BOND
M  V30 1 1 1 2
M  V30 2 1 2 3
M  V30 3 1 3 4
M  V30 4 2 4 5
M  V30 5 1 4 6
M  V30 6 1 6 7
M  V30 7 2 7 8
M  V30 8 1 8 9
M  V30 9 2 9 10
M  V30 10 1 10 11
M  V30 11 2 11 12
M  V30 12 1 12 13
M  V30 13 2 13 14
M  V30 14 1 14 15
M  V30 15 2 15 16
M  V30 16 1 16 17
M  V30 17 1 17 18
M  V30 18 1 18 19
M  V30 19 1 18 20
M  V30 20 1 18 21
M  V30 21 1 16 22
M  V30 22 1 22 23
M  V30 23 1 22 24
M  V30 24 2 24 25
M  V30 25 2 24 26
M  V30 26 1 8 27
M  V30 27 1 27 28
M  V30 28 1 28 2
M  V30 29 2 28 6
M  V30 30 1 14 9
M  V30 31 1 24 13
M  V30 32 1 1 29
M  V30 33 1 1 30
M  V30 34 1 1 31
M  V30 35 1 2 32 CFG=1
M  V30 36 1 3 33
M  V30 37 1 7 34
M  V30 38 1 10 35
M  V30 39 1 11 36
M  V30 40 1 12 37
M  V30 41 1 17 38
M  V30 42 1 19 39
M  V30 43 1 19 40
M  V30 44 1 19 41
M  V30 45 1 20 42
M  V30 46 1 20 43
M  V30 47 1 20 44
M  V30 48 1 21 45
M  V30 49 1 21 46
M  V30 50 1 21 47
M  V30 51 1 23 48
M  V30 52 1 23 49
M  V30 53 1 23 50
M  V30 54 1 27 51
M  V30 END BOND
M  V30 END CTAB
M  END
>  <Dataset>  (637) 
ChEMBL_Kinases

>  <Ligand_Instance>  (637) 
nan

>  <PDB_ID>  (637) 
nan

>  <Standardized_SMILES>  (637) 
C[C@H]1NC(=O)c2cc(-c3cccc4c3N=C(NC(C)(C)C)N(C)S4(=O)=O)[nH]c21

>  <Name>  (637) 
nan

>  <Pocket>  (637) 
nan

>  <ATP_Site>  (637) 
nan

>  <Peripheral>  (637) 
nan

>  <Num_H_Atoms_ProtBoundConf>  (637) 
nan

>  <Num_Resolved_Atoms>  (637) 
nan

>  <Num_Not_Resolved_Atoms>  (637) 
nan

$$$$
CHEMBL3702211
     RDKit          3D

  0  0  0  0  0  0  0  0  0  0999 V3000
M  V30 BEGIN CTAB
M  V30 COUNTS 55 60 0 0 0
M  V30 BEGIN ATOM
M  V30 1 O 3.118534 -6.484545 2.248114 0
M  V30 2 C 2.882431 -5.175083 1.909699 0 CFG=1
M  V30 3 C 3.014503 -4.211064 3.086577 0
M  V30 4 C 3.822986 -3.095977 2.484005 0
M  V30 5 N 3.592948 -3.191788 1.038721 0
M  V30 6 C 3.135472 -2.148288 0.193304 0
M  V30 7 C 2.369053 -1.197463 0.872243 0
M  V30 8 C 1.872986 -0.128792 0.111272 0
M  V30 9 C 2.137718 -0.031813 -1.250493 0
M  V30 10 N 1.573549 1.067575 -1.992350 0
M  V30 11 C 0.751300 1.944851 -1.236434 0
M  V30 12 N 0.822677 3.192033 -0.744385 0
M  V30 13 C -0.186409 3.728254 -0.030974 0
M  V30 14 C -1.338224 3.021181 0.226920 0
M  V30 15 C -2.507184 3.301112 0.903417 0
M  V30 16 C -2.921376 4.417828 1.567512 0
M  V30 17 C -4.187869 4.380144 2.155458 0
M  V30 18 N -4.926316 3.265025 2.041198 0
M  V30 19 C -4.521166 2.161878 1.386229 0
M  V30 20 F -5.309813 1.035998 1.292335 0
M  V30 21 C -3.280256 2.164419 0.795935 0
M  V30 22 N -2.637602 1.211121 0.088745 0
M  V30 23 C -3.023027 -0.135501 -0.272452 0
M  V30 24 C -2.221026 -1.154157 0.552716 0
M  V30 25 C -2.387197 -2.403080 -0.266512 0
M  V30 26 C -2.100522 -1.891141 -1.660892 0
M  V30 27 C -2.731635 -0.501682 -1.692750 0
M  V30 28 C -1.425173 1.735496 -0.272758 0
M  V30 29 N -0.368291 1.240870 -0.991674 0
M  V30 30 N 2.883917 -0.983866 -1.835371 0
M  V30 31 N 3.344081 -1.981978 -1.114628 0
M  V30 32 C 3.963430 -4.593350 0.979768 0
M  V30 33 H 2.225818 -6.951438 2.215632 0
M  V30 34 H 1.866908 -4.986898 1.496000 0
M  V30 35 H 3.583102 -4.756523 3.864108 0
M  V30 36 H 2.031921 -3.884152 3.453344 0
M  V30 37 H 4.903689 -3.375423 2.650278 0
M  V30 38 H 3.599823 -2.114636 2.901836 0
M  V30 39 H 2.114775 -1.193273 1.924425 0
M  V30 40 H 1.272430 0.615113 0.632242 0
M  V30 41 H 1.782909 1.174169 -3.006297 0
M  V30 42 H -0.037754 4.732145 0.324416 0
M  V30 43 H -2.345101 5.300184 1.665707 0
M  V30 44 H -4.646791 5.184428 2.707776 0
M  V30 45 H -4.066256 -0.346961 -0.050354 0
M  V30 46 H -2.700909 -1.356208 1.534373 0
M  V30 47 H -1.173343 -0.850829 0.639673 0
M  V30 48 H -3.418406 -2.800051 -0.168836 0
M  V30 49 H -1.708389 -3.221702 0.023909 0
M  V30 50 H -1.001139 -1.845959 -1.779005 0
M  V30 51 H -2.561543 -2.587061 -2.368389 0
M  V30 52 H -2.099742 0.210091 -2.246346 0
M  V30 53 H -3.683452 -0.623966 -2.288881 0
M  V30 54 H 3.862573 -5.033315 -0.036815 0
M  V30 55 H 4.931462 -4.786888 1.445955 0
M  V30 END ATOM
M  V30 BEGIN BOND
M  V30 1 1 1 2
M  V30 2 1 2 3
M  V30 3 1 3 4
M  V30 4 1 4 5
M  V30 5 1 5 6
M  V30 6 2 6 7
M  V30 7 1 7 8
M  V30 8 2 8 9
M  V30 9 1 9 10
M  V30 10 1 10 11
M  V30 11 2 11 12
M  V30 12 1 12 13
M  V30 13 2 13 14
M  V30 14 1 14 15
M  V30 15 2 15 16
M  V30 16 1 16 17
M  V30 17 2 17 18
M  V30 18 1 18 19
M  V30 19 1 19 20
M  V30 20 2 19 21
M  V30 21 1 21 22
M  V30 22 1 22 23
M  V30 23 1 23 24
M  V30 24 1 24 25
M  V30 25 1 25 26
M  V30 26 1 26 27
M  V30 27 1 22 28
M  V30 28 2 28 29
M  V30 29 1 9 30
M  V30 30 2 30 31
M  V30 31 1 5 32
M  V30 32 1 32 2
M  V30 33 1 31 6
M  V30 34 1 29 11
M  V30 35 1 28 14
M  V30 36 1 21 15
M  V30 37 1 27 23
M  V30 38 1 1 33
M  V30 39 1 2 34 CFG=3
M  V30 40 1 3 35
M  V30 41 1 3 36
M  V30 42 1 4 37
M  V30 43 1 4 38
M  V30 44 1 7 39
M  V30 45 1 8 40
M  V30 46 1 10 41
M  V30 47 1 13 42
M  V30 48 1 16 43
M  V30 49 1 17 44
M  V30 50 1 23 45
M  V30 51 1 24 46
M  V30 52 1 24 47
M  V30 53 1 25 48
M  V30 54 1 25 49
M  V30 55 1 26 50
M  V30 56 1 26 51
M  V30 57 1 27 52
M  V30 58 1 27 53
M  V30 59 1 32 54
M  V30 60 1 32 55
M  V30 END BOND
M  V30 END CTAB
M  END
>  <Dataset>  (638) 
ChEMBL_Kinases

>  <Ligand_Instance>  (638) 
nan

>  <PDB_ID>  (638) 
nan

>  <Standardized_SMILES>  (638) 
O[C@H]1CCN(c2ccc(Nc3ncc4c5ccnc(F)c5n(C5CCCC5)c4n3)nn2)C1

>  <Name>  (638) 
nan

>  <Pocket>  (638) 
nan

>  <ATP_Site>  (638) 
nan

>  <Peripheral>  (638) 
nan

>  <Num_H_Atoms_ProtBoundConf>  (638) 
nan

>  <Num_Resolved_Atoms>  (638) 
nan

>  <Num_Not_Resolved_Atoms>  (638) 
nan

$$$$
CHEMBL3702212
     RDKit          3D

  0  0  0  0  0  0  0  0  0  0999 V3000
M  V30 BEGIN CTAB
M  V30 COUNTS 54 58 0 0 0
M  V30 BEGIN ATOM
M  V30 1 C 3.252896 -2.026642 3.596930 0
M  V30 2 O 3.579746 -1.571576 2.320441 0
M  V30 3 C 2.444875 -1.714860 1.527124 0
M  V30 4 C 2.664435 -1.256755 0.116120 0
M  V30 5 N 3.033622 0.116800 -0.000162 0
M  V30 6 C 4.284447 0.610770 0.009299 0
M  V30 7 C 5.544116 0.024420 0.124136 0
M  V30 8 N 6.684574 0.767540 0.104366 0
M  V30 9 C 6.623595 2.124266 -0.030193 0
M  V30 10 C 5.403317 2.779353 -0.149878 0
M  V30 11 C 4.261489 1.984305 -0.125137 0
M  V30 12 C 2.934277 2.351042 -0.221667 0
M  V30 13 C 2.238947 3.523542 -0.367725 0
M  V30 14 N 0.874447 3.509107 -0.429234 0
M  V30 15 C 0.190095 2.349322 -0.348023 0
M  V30 16 N -1.240090 2.332798 -0.412552 0
M  V30 17 C -1.979709 1.120124 -0.326382 0
M  V30 18 C -3.373853 1.157416 -0.394104 0
M  V30 19 C -4.028829 -0.072900 -0.301391 0
M  V30 20 C -3.290068 -1.227357 -0.152236 0
M  V30 21 N -4.014651 -2.444634 -0.062474 0
M  V30 22 C -5.457688 -2.450838 -0.114686 0
M  V30 23 C -5.993680 -3.736686 0.486861 0
M  V30 24 N -5.250684 -3.985753 1.707069 0
M  V30 25 C -3.876043 -4.362824 1.425432 0
M  V30 26 C -3.497580 -3.769978 0.083196 0
M  V30 27 C -1.912908 -1.210251 -0.090735 0
M  V30 28 N -1.295558 -0.026001 -0.180642 0
M  V30 29 N 0.830068 1.153600 -0.202249 0
M  V30 30 C 2.189358 1.169343 -0.141120 0
M  V30 31 H 4.164531 -1.910216 4.229354 0
M  V30 32 H 2.868375 -3.064451 3.589304 0
M  V30 33 H 2.485031 -1.382293 4.084984 0
M  V30 34 H 1.555430 -1.255926 1.998365 0
M  V30 35 H 2.245800 -2.809179 1.498779 0
M  V30 36 H 1.777554 -1.517848 -0.478535 0
M  V30 37 H 3.511241 -1.867378 -0.294455 0
M  V30 38 H 5.643689 -1.061413 0.234083 0
M  V30 39 H 7.481693 2.759507 -0.052911 0
M  V30 40 H 5.318689 3.855249 -0.258201 0
M  V30 41 H 2.781886 4.456133 -0.433142 0
M  V30 42 H -1.739883 3.250216 -0.526681 0
M  V30 43 H -3.892097 2.112097 -0.513177 0
M  V30 44 H -5.098903 0.019037 -0.359910 0
M  V30 45 H -5.818936 -2.297340 -1.161536 0
M  V30 46 H -5.862737 -1.634169 0.552406 0
M  V30 47 H -7.051071 -3.556970 0.771648 0
M  V30 48 H -5.957258 -4.563470 -0.237765 0
M  V30 49 H -5.725555 -4.585701 2.390249 0
M  V30 50 H -3.242483 -3.875435 2.202382 0
M  V30 51 H -3.694760 -5.447143 1.450365 0
M  V30 52 H -2.408759 -3.832188 -0.042234 0
M  V30 53 H -3.945141 -4.425014 -0.710654 0
M  V30 54 H -1.328340 -2.106252 0.025597 0
M  V30 END ATOM
M  V30 BEGIN BOND
M  V30 1 1 1 2
M  V30 2 1 2 3
M  V30 3 1 3 4
M  V30 4 1 4 5
M  V30 5 1 5 6
M  V30 6 2 6 7
M  V30 7 1 7 8
M  V30 8 2 8 9
M  V30 9 1 9 10
M  V30 10 2 10 11
M  V30 11 1 11 12
M  V30 12 2 12 13
M  V30 13 1 13 14
M  V30 14 2 14 15
M  V30 15 1 15 16
M  V30 16 1 16 17
M  V30 17 2 17 18
M  V30 18 1 18 19
M  V30 19 2 19 20
M  V30 20 1 20 21
M  V30 21 1 21 22
M  V30 22 1 22 23
M  V30 23 1 23 24
M  V30 24 1 24 25
M  V30 25 1 25 26
M  V30 26 1 20 27
M  V30 27 2 27 28
M  V30 28 1 15 29
M  V30 29 2 29 30
M  V30 30 1 30 5
M  V30 31 1 11 6
M  V30 32 1 30 12
M  V30 33 1 28 17
M  V30 34 1 26 21
M  V30 35 1 1 31
M  V30 36 1 1 32
M  V30 37 1 1 33
M  V30 38 1 3 34
M  V30 39 1 3 35
M  V30 40 1 4 36
M  V30 41 1 4 37
M  V30 42 1 7 38
M  V30 43 1 9 39
M  V30 44 1 10 40
M  V30 45 1 13 41
M  V30 46 1 16 42
M  V30 47 1 18 43
M  V30 48 1 19 44
M  V30 49 1 22 45
M  V30 50 1 22 46
M  V30 51 1 23 47
M  V30 52 1 23 48
M  V30 53 1 24 49
M  V30 54 1 25 50
M  V30 55 1 25 51
M  V30 56 1 26 52
M  V30 57 1 26 53
M  V30 58 1 27 54
M  V30 END BOND
M  V30 END CTAB
M  END
>  <Dataset>  (639) 
ChEMBL_Kinases

>  <Ligand_Instance>  (639) 
nan

>  <PDB_ID>  (639) 
nan

>  <Standardized_SMILES>  (639) 
COCCn1c2cnccc2c2cnc(Nc3ccc(N4CCNCC4)cn3)nc21

>  <Name>  (639) 
nan

>  <Pocket>  (639) 
nan

>  <ATP_Site>  (639) 
nan

>  <Peripheral>  (639) 
nan

>  <Num_H_Atoms_ProtBoundConf>  (639) 
nan

>  <Num_Resolved_Atoms>  (639) 
nan

>  <Num_Not_Resolved_Atoms>  (639) 
nan

$$$$
CHEMBL454557
     RDKit          3D

  0  0  0  0  0  0  0  0  0  0999 V3000
M  V30 BEGIN CTAB
M  V30 COUNTS 25 26 0 0 0
M  V30 BEGIN ATOM
M  V30 1 O -2.425180 -4.514462 2.390583 0
M  V30 2 C -1.214010 -4.292678 2.278189 0
M  V30 3 N 0.054091 -4.931489 2.014195 0
M  V30 4 C 1.063320 -4.047215 1.540253 0
M  V30 5 O 2.209476 -4.564194 1.292065 0
M  V30 6 C 0.679653 -2.648370 1.391103 0
M  V30 7 C 1.316964 -1.848451 0.597355 0
M  V30 8 C 0.781479 -0.492585 0.591223 0
M  V30 9 C 0.711626 0.051949 -0.698378 0
M  V30 10 C 0.230655 1.347354 -0.802553 0
M  V30 11 C -0.179284 2.129245 0.260286 0
M  V30 12 O -0.648310 3.419567 0.057201 0
M  V30 13 C 0.349395 4.452211 0.088647 0
M  V30 14 F -0.172985 5.695154 -0.107353 0
M  V30 15 F 1.038334 4.335639 1.273045 0
M  V30 16 F 1.303863 4.154204 -0.901294 0
M  V30 17 C -0.090476 1.546920 1.507762 0
M  V30 18 C 0.381548 0.253641 1.687062 0
M  V30 19 S -0.747968 -2.542090 2.508087 0
M  V30 20 H 0.044755 -5.952992 2.208088 0
M  V30 21 H 2.158663 -2.156900 0.005471 0
M  V30 22 H 1.005085 -0.469590 -1.592563 0
M  V30 23 H 0.160816 1.805068 -1.791209 0
M  V30 24 H -0.397101 2.111032 2.393373 0
M  V30 25 H 0.471040 -0.245606 2.639324 0
M  V30 END ATOM
M  V30 BEGIN BOND
M  V30 1 2 1 2
M  V30 2 1 2 3
M  V30 3 1 3 4
M  V30 4 2 4 5
M  V30 5 1 4 6
M  V30 6 2 6 7
M  V30 7 1 7 8
M  V30 8 2 8 9
M  V30 9 1 9 10
M  V30 10 2 10 11
M  V30 11 1 11 12
M  V30 12 1 12 13
M  V30 13 1 13 14
M  V30 14 1 13 15
M  V30 15 1 13 16
M  V30 16 1 11 17
M  V30 17 2 17 18
M  V30 18 1 6 19
M  V30 19 1 19 2
M  V30 20 1 18 8
M  V30 21 1 3 20
M  V30 22 1 7 21
M  V30 23 1 9 22
M  V30 24 1 10 23
M  V30 25 1 17 24
M  V30 26 1 18 25
M  V30 END BOND
M  V30 END CTAB
M  END
>  <Dataset>  (640) 
ChEMBL_Kinases

>  <Ligand_Instance>  (640) 
nan

>  <PDB_ID>  (640) 
nan

>  <Standardized_SMILES>  (640) 
O=C1NC(=O)/C(=C/c2ccc(OC(F)(F)F)cc2)S1

>  <Name>  (640) 
nan

>  <Pocket>  (640) 
nan

>  <ATP_Site>  (640) 
nan

>  <Peripheral>  (640) 
nan

>  <Num_H_Atoms_ProtBoundConf>  (640) 
nan

>  <Num_Resolved_Atoms>  (640) 
nan

>  <Num_Not_Resolved_Atoms>  (640) 
nan

$$$$
CHEMBL4562184
     RDKit          3D

  0  0  0  0  0  0  0  0  0  0999 V3000
M  V30 BEGIN CTAB
M  V30 COUNTS 48 51 0 0 0
M  V30 BEGIN ATOM
M  V30 1 C 7.244785 -6.082469 0.197784 0
M  V30 2 C 6.741947 -4.778319 -0.310188 0
M  V30 3 C 5.926774 -3.925655 0.442120 0
M  V30 4 C 5.687897 -2.841783 -0.379184 0
M  V30 5 C 4.870034 -1.697858 0.015333 0
M  V30 6 O 4.364083 -1.716917 1.167136 0
M  V30 7 N 4.646501 -0.599843 -0.857845 0
M  V30 8 C 3.807090 0.382838 -0.213888 0
M  V30 9 C 4.397342 1.397522 0.531271 0
M  V30 10 C 3.589034 2.331619 1.142823 0
M  V30 11 C 2.214426 2.282840 1.032874 0
M  V30 12 C 1.658157 1.251186 0.277667 0
M  V30 13 N 0.217862 1.283352 0.220958 0
M  V30 14 C -0.436609 0.544054 1.269042 0
M  V30 15 O 0.214124 -0.084110 2.168705 0
M  V30 16 C -1.886718 0.343686 1.543467 0
M  V30 17 O -2.696188 1.008438 0.590488 0
M  V30 18 C -4.092210 0.947253 0.667058 0
M  V30 19 C -4.915760 1.581137 -0.242069 0
M  V30 20 C -6.302581 1.495168 -0.130130 0
M  V30 21 C -6.850760 0.762474 0.909344 0
M  V30 22 C -8.211265 0.627893 1.090722 0
M  V30 23 O -8.981454 1.199763 0.270330 0
M  V30 24 C -8.733483 -0.110432 2.138410 0
M  V30 25 C -7.849842 -0.721332 3.015258 0
M  V30 26 O -6.548719 -0.584045 2.829576 0
M  V30 27 C -6.057216 0.121077 1.828946 0
M  V30 28 C -4.679736 0.217124 1.702580 0
M  V30 29 C 2.421277 0.310110 -0.341275 0
M  V30 30 N 6.334048 -3.067187 -1.538181 0
M  V30 31 O 6.953545 -4.208114 -1.494172 0
M  V30 32 H 7.456523 -6.749291 -0.653117 0
M  V30 33 H 8.141269 -5.986247 0.841525 0
M  V30 34 H 6.388709 -6.534152 0.762138 0
M  V30 35 H 5.576131 -4.110241 1.454417 0
M  V30 36 H 5.080036 -0.604421 -1.818677 0
M  V30 37 H 5.476009 1.470070 0.641618 0
M  V30 38 H 4.094103 3.111571 1.718430 0
M  V30 39 H 1.613498 3.031732 1.525763 0
M  V30 40 H -0.500633 1.719356 -0.405506 0
M  V30 41 H -2.104219 0.725829 2.556769 0
M  V30 42 H -2.103108 -0.762147 1.557987 0
M  V30 43 H -4.476609 2.158714 -1.061424 0
M  V30 44 H -6.953681 1.990190 -0.840162 0
M  V30 45 H -9.779923 -0.230621 2.301671 0
M  V30 46 H -8.163888 -1.327961 3.876939 0
M  V30 47 H -3.990916 -0.272130 2.404680 0
M  V30 48 H 1.944341 -0.466932 -0.913286 0
M  V30 END ATOM
M  V30 BEGIN BOND
M  V30 1 1 1 2
M  V30 2 2 2 3
M  V30 3 1 3 4
M  V30 4 1 4 5
M  V30 5 2 5 6
M  V30 6 1 5 7
M  V30 7 1 7 8
M  V30 8 2 8 9
M  V30 9 1 9 10
M  V30 10 2 10 11
M  V30 11 1 11 12
M  V30 12 1 12 13
M  V30 13 1 13 14
M  V30 14 2 14 15
M  V30 15 1 14 16
M  V30 16 1 16 17
M  V30 17 1 17 18
M  V30 18 2 18 19
M  V30 19 1 19 20
M  V30 20 2 20 21
M  V30 21 1 21 22
M  V30 22 2 22 23
M  V30 23 1 22 24
M  V30 24 2 24 25
M  V30 25 1 25 26
M  V30 26 1 26 27
M  V30 27 2 27 28
M  V30 28 2 12 29
M  V30 29 2 4 30
M  V30 30 1 30 31
M  V30 31 1 31 2
M  V30 32 1 29 8
M  V30 33 1 28 18
M  V30 34 1 27 21
M  V30 35 1 1 32
M  V30 36 1 1 33
M  V30 37 1 1 34
M  V30 38 1 3 35
M  V30 39 1 7 36
M  V30 40 1 9 37
M  V30 41 1 10 38
M  V30 42 1 11 39
M  V30 43 1 13 40
M  V30 44 1 16 41
M  V30 45 1 16 42
M  V30 46 1 19 43
M  V30 47 1 20 44
M  V30 48 1 24 45
M  V30 49 1 25 46
M  V30 50 1 28 47
M  V30 51 1 29 48
M  V30 END BOND
M  V30 END CTAB
M  END
>  <Dataset>  (641) 
ChEMBL_Kinases

>  <Ligand_Instance>  (641) 
nan

>  <PDB_ID>  (641) 
nan

>  <Standardized_SMILES>  (641) 
Cc1cc(C(=O)Nc2cccc(NC(=O)COc3ccc4c(=O)ccoc4c3)c2)no1

>  <Name>  (641) 
nan

>  <Pocket>  (641) 
nan

>  <ATP_Site>  (641) 
nan

>  <Peripheral>  (641) 
nan

>  <Num_H_Atoms_ProtBoundConf>  (641) 
nan

>  <Num_Resolved_Atoms>  (641) 
nan

>  <Num_Not_Resolved_Atoms>  (641) 
nan

$$$$
CHEMBL3702213
     RDKit          3D

  0  0  0  0  0  0  0  0  0  0999 V3000
M  V30 BEGIN CTAB
M  V30 COUNTS 53 57 0 0 0
M  V30 BEGIN ATOM
M  V30 1 C -4.609783 1.576198 -3.796410 0
M  V30 2 O -3.477627 1.227709 -3.121777 0
M  V30 3 C -3.338816 -0.047615 -2.702737 0
M  V30 4 C -4.258654 -0.596298 -1.673710 0
M  V30 5 N -4.210540 0.051069 -0.386663 0
M  V30 6 C -4.832402 0.998785 0.293083 0
M  V30 7 C -5.929550 1.708398 -0.131231 0
M  V30 8 N -6.473534 2.639434 0.658084 0
M  V30 9 C -6.003611 2.935947 1.877475 0
M  V30 10 C -4.903789 2.224668 2.306364 0
M  V30 11 C -4.313971 1.262615 1.533784 0
M  V30 12 C -3.256261 0.389956 1.648517 0
M  V30 13 C -2.382394 0.225855 2.698562 0
M  V30 14 N -1.413570 -0.712753 2.565922 0
M  V30 15 C -1.331958 -1.453361 1.420857 0
M  V30 16 N -0.367973 -2.465349 1.155301 0
M  V30 17 C 0.915249 -2.227895 0.555649 0
M  V30 18 C 1.855220 -3.204936 0.289870 0
M  V30 19 C 3.062522 -2.812996 -0.295216 0
M  V30 20 C 3.248545 -1.476671 -0.574199 0
M  V30 21 N 4.459128 -1.031578 -1.168619 0
M  V30 22 C 5.595140 -1.823786 -1.565473 0
M  V30 23 C 5.979627 -1.598684 -3.010991 0
M  V30 24 N 5.990447 -0.221056 -3.390446 0
M  V30 25 C 4.843845 0.520742 -2.945457 0
M  V30 26 C 4.704154 0.367565 -1.460863 0
M  V30 27 N 2.310500 -0.554050 -0.301221 0
M  V30 28 N 1.161168 -0.921604 0.254900 0
M  V30 29 N -2.216119 -1.236043 0.446367 0
M  V30 30 C -3.213630 -0.332554 0.475019 0
M  V30 31 H -4.756696 1.006513 -4.743858 0
M  V30 32 H -4.461670 2.648418 -4.125661 0
M  V30 33 H -5.499958 1.588299 -3.175934 0
M  V30 34 H -2.283513 -0.129408 -2.281727 0
M  V30 35 H -3.285370 -0.719545 -3.615779 0
M  V30 36 H -5.332485 -0.550859 -1.985422 0
M  V30 37 H -3.997737 -1.687925 -1.561893 0
M  V30 38 H -6.394644 1.541924 -1.081229 0
M  V30 39 H -6.509117 3.712906 2.456428 0
M  V30 40 H -4.503281 2.439399 3.280760 0
M  V30 41 H -2.448108 0.812068 3.603503 0
M  V30 42 H -0.616955 -3.463227 1.418917 0
M  V30 43 H 1.589412 -4.206727 0.553732 0
M  V30 44 H 3.776767 -3.574317 -0.494296 0
M  V30 45 H 6.474535 -1.480605 -0.945744 0
M  V30 46 H 5.444356 -2.916084 -1.447760 0
M  V30 47 H 6.998092 -2.022630 -3.154771 0
M  V30 48 H 5.270435 -2.132776 -3.680817 0
M  V30 49 H 6.852194 0.296053 -3.189964 0
M  V30 50 H 3.921333 0.097824 -3.426964 0
M  V30 51 H 4.959135 1.578328 -3.260712 0
M  V30 52 H 3.896582 1.025093 -1.076725 0
M  V30 53 H 5.658103 0.721020 -0.988416 0
M  V30 END ATOM
M  V30 BEGIN BOND
M  V30 1 1 1 2
M  V30 2 1 2 3
M  V30 3 1 3 4
M  V30 4 1 4 5
M  V30 5 1 5 6
M  V30 6 2 6 7
M  V30 7 1 7 8
M  V30 8 2 8 9
M  V30 9 1 9 10
M  V30 10 2 10 11
M  V30 11 1 11 12
M  V30 12 2 12 13
M  V30 13 1 13 14
M  V30 14 2 14 15
M  V30 15 1 15 16
M  V30 16 1 16 17
M  V30 17 2 17 18
M  V30 18 1 18 19
M  V30 19 2 19 20
M  V30 20 1 20 21
M  V30 21 1 21 22
M  V30 22 1 22 23
M  V30 23 1 23 24
M  V30 24 1 24 25
M  V30 25 1 25 26
M  V30 26 1 20 27
M  V30 27 2 27 28
M  V30 28 1 15 29
M  V30 29 2 29 30
M  V30 30 1 30 5
M  V30 31 1 11 6
M  V30 32 1 30 12
M  V30 33 1 28 17
M  V30 34 1 26 21
M  V30 35 1 1 31
M  V30 36 1 1 32
M  V30 37 1 1 33
M  V30 38 1 3 34
M  V30 39 1 3 35
M  V30 40 1 4 36
M  V30 41 1 4 37
M  V30 42 1 7 38
M  V30 43 1 9 39
M  V30 44 1 10 40
M  V30 45 1 13 41
M  V30 46 1 16 42
M  V30 47 1 18 43
M  V30 48 1 19 44
M  V30 49 1 22 45
M  V30 50 1 22 46
M  V30 51 1 23 47
M  V30 52 1 23 48
M  V30 53 1 24 49
M  V30 54 1 25 50
M  V30 55 1 25 51
M  V30 56 1 26 52
M  V30 57 1 26 53
M  V30 END BOND
M  V30 END CTAB
M  END
>  <Dataset>  (642) 
ChEMBL_Kinases

>  <Ligand_Instance>  (642) 
nan

>  <PDB_ID>  (642) 
nan

>  <Standardized_SMILES>  (642) 
COCCn1c2cnccc2c2cnc(Nc3ccc(N4CCNCC4)nn3)nc21

>  <Name>  (642) 
nan

>  <Pocket>  (642) 
nan

>  <ATP_Site>  (642) 
nan

>  <Peripheral>  (642) 
nan

>  <Num_H_Atoms_ProtBoundConf>  (642) 
nan

>  <Num_Resolved_Atoms>  (642) 
nan

>  <Num_Not_Resolved_Atoms>  (642) 
nan

$$$$
CHEMBL4545291
     RDKit          3D

  0  0  0  0  0  0  0  0  0  0999 V3000
M  V30 BEGIN CTAB
M  V30 COUNTS 66 70 0 0 0
M  V30 BEGIN ATOM
M  V30 1 C 3.902931 -1.698523 7.361220 0
M  V30 2 C 3.984142 -2.126148 5.923681 0
M  V30 3 N 4.365532 -3.225539 5.262675 0
M  V30 4 O 4.211063 -3.042995 3.989560 0
M  V30 5 C 3.734585 -1.853792 3.725697 0
M  V30 6 C 3.402634 -1.222237 2.439242 0
M  V30 7 C 3.556250 -1.881572 1.245625 0
M  V30 8 C 3.186227 -1.216652 0.068803 0
M  V30 9 C 2.679917 0.054706 0.046289 0
M  V30 10 N 2.227526 0.968172 -0.800715 0
M  V30 11 C 1.835531 2.085915 -0.150238 0
M  V30 12 N 1.322808 3.038728 -1.091990 0
M  V30 13 C -0.079481 3.145310 -0.981227 0
M  V30 14 C -0.837158 2.490473 -0.027086 0
M  V30 15 C -2.226038 2.514680 0.150251 0
M  V30 16 C -2.782126 1.722164 1.297430 0
M  V30 17 N -2.926916 0.368619 0.896807 0
M  V30 18 C -3.831067 0.210314 -0.170122 0
M  V30 19 C -4.005758 -1.244615 -0.589957 0
M  V30 20 N -2.851456 -1.936556 0.021649 0
M  V30 21 C -1.685261 -2.554629 -0.557107 0
M  V30 22 O -0.681164 -3.098799 -0.013022 0
M  V30 23 O -1.689136 -2.539352 -1.949689 0
M  V30 24 C -0.649724 -3.073392 -2.748018 0
M  V30 25 C -0.409147 -4.545849 -2.444260 0
M  V30 26 C -1.243245 -3.099463 -4.174067 0
M  V30 27 C 0.578813 -2.251934 -2.826597 0
M  V30 28 C -2.943714 -2.002861 1.490156 0
M  V30 29 C -2.942027 -0.559624 1.961031 0
M  V30 30 C -2.918882 3.306391 -0.763298 0
M  V30 31 C -2.180121 3.965914 -1.721253 0
M  V30 32 N -0.853970 3.883459 -1.813387 0
M  V30 33 N 2.032497 1.915231 1.162538 0
M  V30 34 C 2.547755 0.669225 1.269787 0
M  V30 35 C 2.892023 0.075552 2.467999 0
M  V30 36 N 3.599856 -1.296337 4.941243 0
M  V30 37 H 3.678996 -2.616724 7.962679 0
M  V30 38 H 3.044401 -1.006401 7.482244 0
M  V30 39 H 4.833738 -1.263374 7.724447 0
M  V30 40 H 3.952473 -2.887318 1.200396 0
M  V30 41 H 3.295328 -1.716726 -0.885710 0
M  V30 42 H 1.828953 3.610710 -1.789302 0
M  V30 43 H -0.297782 1.860786 0.699892 0
M  V30 44 H -2.016233 1.859821 2.115551 0
M  V30 45 H -3.746516 2.184459 1.631773 0
M  V30 46 H -4.815932 0.693733 -0.031496 0
M  V30 47 H -3.366978 0.719721 -1.066626 0
M  V30 48 H -3.962876 -1.392506 -1.666840 0
M  V30 49 H -4.911575 -1.677744 -0.154226 0
M  V30 50 H -1.381802 -5.012665 -2.258581 0
M  V30 51 H 0.199727 -4.661754 -1.531378 0
M  V30 52 H 0.042971 -5.007463 -3.332250 0
M  V30 53 H -2.264574 -3.494325 -4.145227 0
M  V30 54 H -0.549411 -3.754435 -4.749436 0
M  V30 55 H -1.150272 -2.074523 -4.566585 0
M  V30 56 H 0.619192 -1.594707 -3.731142 0
M  V30 57 H 1.439386 -2.951922 -2.950224 0
M  V30 58 H 0.782863 -1.593591 -1.976635 0
M  V30 59 H -3.968298 -2.410171 1.688693 0
M  V30 60 H -2.168161 -2.625031 1.925296 0
M  V30 61 H -1.971361 -0.460880 2.529189 0
M  V30 62 H -3.726321 -0.401083 2.729381 0
M  V30 63 H -3.983226 3.307098 -0.607147 0
M  V30 64 H -2.759356 4.570884 -2.411888 0
M  V30 65 H 1.769186 2.714338 1.749730 0
M  V30 66 H 2.786544 0.563509 3.433011 0
M  V30 END ATOM
M  V30 BEGIN BOND
M  V30 1 1 1 2
M  V30 2 2 2 3
M  V30 3 1 3 4
M  V30 4 1 4 5
M  V30 5 1 5 6
M  V30 6 2 6 7
M  V30 7 1 7 8
M  V30 8 2 8 9
M  V30 9 1 9 10
M  V30 10 2 10 11
M  V30 11 1 11 12
M  V30 12 1 12 13
M  V30 13 2 13 14
M  V30 14 1 14 15
M  V30 15 1 15 16
M  V30 16 1 16 17
M  V30 17 1 17 18
M  V30 18 1 18 19
M  V30 19 1 19 20
M  V30 20 1 20 21
M  V30 21 2 21 22
M  V30 22 1 21 23
M  V30 23 1 23 24
M  V30 24 1 24 25
M  V30 25 1 24 26
M  V30 26 1 24 27
M  V30 27 1 20 28
M  V30 28 1 28 29
M  V30 29 2 15 30
M  V30 30 1 30 31
M  V30 31 2 31 32
M  V30 32 1 11 33
M  V30 33 1 33 34
M  V30 34 2 34 35
M  V30 35 2 5 36
M  V30 36 1 36 2
M  V30 37 1 35 6
M  V30 38 1 34 9
M  V30 39 1 32 13
M  V30 40 1 29 17
M  V30 41 1 1 37
M  V30 42 1 1 38
M  V30 43 1 1 39
M  V30 44 1 7 40
M  V30 45 1 8 41
M  V30 46 1 12 42
M  V30 47 1 14 43
M  V30 48 1 16 44
M  V30 49 1 16 45
M  V30 50 1 18 46
M  V30 51 1 18 47
M  V30 52 1 19 48
M  V30 53 1 19 49
M  V30 54 1 25 50
M  V30 55 1 25 51
M  V30 56 1 25 52
M  V30 57 1 26 53
M  V30 58 1 26 54
M  V30 59 1 26 55
M  V30 60 1 27 56
M  V30 61 1 27 57
M  V30 62 1 27 58
M  V30 63 1 28 59
M  V30 64 1 28 60
M  V30 65 1 29 61
M  V30 66 1 29 62
M  V30 67 1 30 63
M  V30 68 1 31 64
M  V30 69 1 33 65
M  V30 70 1 35 66
M  V30 END BOND
M  V30 END CTAB
M  END
>  <Dataset>  (643) 
ChEMBL_Kinases

>  <Ligand_Instance>  (643) 
nan

>  <PDB_ID>  (643) 
nan

>  <Standardized_SMILES>  (643) 
Cc1noc(-c2ccc3nc(Nc4cc(CN5CCN(C(=O)OC(C)(C)C)CC5)ccn4)[nH]c3c2)n1

>  <Name>  (643) 
nan

>  <Pocket>  (643) 
nan

>  <ATP_Site>  (643) 
nan

>  <Peripheral>  (643) 
nan

>  <Num_H_Atoms_ProtBoundConf>  (643) 
nan

>  <Num_Resolved_Atoms>  (643) 
nan

>  <Num_Not_Resolved_Atoms>  (643) 
nan

$$$$
CHEMBL220749
     RDKit          3D

  0  0  0  0  0  0  0  0  0  0999 V3000
M  V30 BEGIN CTAB
M  V30 COUNTS 52 54 0 0 0
M  V30 BEGIN ATOM
M  V30 1 C 1.835856 -2.502694 8.376851 0
M  V30 2 S 2.283242 -2.821790 6.672247 0
M  V30 3 O 3.775493 -2.893583 6.523512 0
M  V30 4 O 1.686606 -4.150579 6.310484 0
M  V30 5 C 1.702823 -1.547779 5.635827 0
M  V30 6 C 2.389509 -0.390789 5.335666 0
M  V30 7 C 1.865283 0.574670 4.505087 0
M  V30 8 C 0.621620 0.420963 3.935232 0
M  V30 9 C -0.107323 1.344198 3.028696 0
M  V30 10 N 0.147036 1.105572 1.625741 0
M  V30 11 C 1.303635 1.489598 0.866496 0
M  V30 12 O 2.103506 2.088238 1.616097 0
M  V30 13 C 1.305127 1.124430 -0.542488 0
M  V30 14 C 2.384410 1.478159 -1.328144 0
M  V30 15 C 2.417952 1.151852 -2.684156 0
M  V30 16 N 3.507606 1.495722 -3.530687 0
M  V30 17 C 1.341546 0.467170 -3.211187 0
M  V30 18 C 1.289417 0.090033 -4.597528 0
M  V30 19 N 1.227941 -0.211626 -5.715131 0
M  V30 20 C 0.276204 0.123563 -2.413358 0
M  V30 21 N -0.879810 -0.571311 -2.851106 0
M  V30 22 C -2.004599 -0.940928 -2.021642 0
M  V30 23 C -3.033629 -1.595691 -2.841841 0
M  V30 24 C -3.070418 -2.963135 -3.048196 0
M  V30 25 C -4.030132 -3.604195 -3.817016 0
M  V30 26 C -5.032912 -2.863075 -4.434463 0
M  V30 27 C -5.017176 -1.484255 -4.241609 0
M  V30 28 C -4.043782 -0.892612 -3.469684 0
M  V30 29 N 0.296713 0.458113 -1.133696 0
M  V30 30 C -0.072964 -0.755761 4.241944 0
M  V30 31 C 0.440822 -1.745757 5.081524 0
M  V30 32 H 0.767197 -2.224476 8.414785 0
M  V30 33 H 2.433624 -1.669393 8.783090 0
M  V30 34 H 1.926612 -3.425021 8.979739 0
M  V30 35 H 3.354254 -0.264691 5.774343 0
M  V30 36 H 2.366497 1.475991 4.258067 0
M  V30 37 H 0.245661 2.392616 3.239452 0
M  V30 38 H -1.186252 1.300803 3.244998 0
M  V30 39 H -0.634263 0.579229 1.122348 0
M  V30 40 H 3.195180 2.004766 -0.888762 0
M  V30 41 H 3.934441 0.641102 -3.974103 0
M  V30 42 H 3.970816 2.413333 -3.803564 0
M  V30 43 H -0.876374 -0.815296 -3.859343 0
M  V30 44 H -1.589165 -1.737721 -1.330882 0
M  V30 45 H -2.363909 -0.129237 -1.392031 0
M  V30 46 H -2.278699 -3.537727 -2.558932 0
M  V30 47 H -3.969195 -4.673949 -3.913858 0
M  V30 48 H -5.755740 -3.384480 -5.018620 0
M  V30 49 H -5.802177 -0.898510 -4.724102 0
M  V30 50 H -4.084984 0.167881 -3.359263 0
M  V30 51 H -1.066699 -0.959749 3.832549 0
M  V30 52 H -0.132085 -2.628737 5.284308 0
M  V30 END ATOM
M  V30 BEGIN BOND
M  V30 1 1 1 2
M  V30 2 2 2 3
M  V30 3 2 2 4
M  V30 4 1 2 5
M  V30 5 2 5 6
M  V30 6 1 6 7
M  V30 7 2 7 8
M  V30 8 1 8 9
M  V30 9 1 9 10
M  V30 10 1 10 11
M  V30 11 2 11 12
M  V30 12 1 11 13
M  V30 13 2 13 14
M  V30 14 1 14 15
M  V30 15 1 15 16
M  V30 16 2 15 17
M  V30 17 1 17 18
M  V30 18 3 18 19
M  V30 19 1 17 20
M  V30 20 1 20 21
M  V30 21 1 21 22
M  V30 22 1 22 23
M  V30 23 2 23 24
M  V30 24 1 24 25
M  V30 25 2 25 26
M  V30 26 1 26 27
M  V30 27 2 27 28
M  V30 28 2 20 29
M  V30 29 1 8 30
M  V30 30 2 30 31
M  V30 31 1 31 5
M  V30 32 1 29 13
M  V30 33 1 28 23
M  V30 34 1 1 32
M  V30 35 1 1 33
M  V30 36 1 1 34
M  V30 37 1 6 35
M  V30 38 1 7 36
M  V30 39 1 9 37
M  V30 40 1 9 38
M  V30 41 1 10 39
M  V30 42 1 14 40
M  V30 43 1 16 41
M  V30 44 1 16 42
M  V30 45 1 21 43
M  V30 46 1 22 44
M  V30 47 1 22 45
M  V30 48 1 24 46
M  V30 49 1 25 47
M  V30 50 1 26 48
M  V30 51 1 27 49
M  V30 52 1 28 50
M  V30 53 1 30 51
M  V30 54 1 31 52
M  V30 END BOND
M  V30 END CTAB
M  END
>  <Dataset>  (644) 
ChEMBL_Kinases

>  <Ligand_Instance>  (644) 
nan

>  <PDB_ID>  (644) 
nan

>  <Standardized_SMILES>  (644) 
CS(=O)(=O)c1ccc(CNC(=O)c2cc(N)c(C#N)c(NCc3ccccc3)n2)cc1

>  <Name>  (644) 
nan

>  <Pocket>  (644) 
nan

>  <ATP_Site>  (644) 
nan

>  <Peripheral>  (644) 
nan

>  <Num_H_Atoms_ProtBoundConf>  (644) 
nan

>  <Num_Resolved_Atoms>  (644) 
nan

>  <Num_Not_Resolved_Atoms>  (644) 
nan

$$$$
CHEMBL2208438
     RDKit          3D

  0  0  0  0  0  0  0  0  0  0999 V3000
M  V30 BEGIN CTAB
M  V30 COUNTS 57 60 0 0 0
M  V30 BEGIN ATOM
M  V30 1 C 3.805825 -1.878859 -0.582474 0
M  V30 2 O 2.927350 -1.517832 0.427927 0
M  V30 3 C 1.605351 -1.824462 0.510428 0
M  V30 4 O 1.901011 -2.384164 -0.571057 0
M  V30 5 C 0.293332 -1.834839 1.091377 0
M  V30 6 C 0.115436 -1.168949 2.274464 0
M  V30 7 C 1.076348 -0.362716 3.051376 0
M  V30 8 C 1.294509 1.006324 2.533299 0
M  V30 9 C 2.298089 1.564808 1.795634 0
M  V30 10 C 2.377397 2.853927 1.363974 0
M  V30 11 C 1.358253 3.716690 1.684903 0
M  V30 12 S 1.482111 5.359592 1.122502 0
M  V30 13 C 0.729681 5.478472 -0.473720 0
M  V30 14 O 2.901760 5.824321 1.117391 0
M  V30 15 O 0.750791 6.242656 2.107205 0
M  V30 16 C 0.294395 3.225910 2.437218 0
M  V30 17 C 0.260219 1.893217 2.856087 0
M  V30 18 C -1.188392 -1.271346 2.780108 0
M  V30 19 O -1.609203 -0.761498 3.836646 0
M  V30 20 C -2.140985 -1.989644 2.092242 0
M  V30 21 C -3.439376 -2.127164 2.536704 0
M  V30 22 C -4.421448 -2.833203 1.884186 0
M  V30 23 C -4.035312 -3.431388 0.702296 0
M  V30 24 C -5.061647 -4.216562 -0.057329 0
M  V30 25 N -2.799155 -3.341523 0.211624 0
M  V30 26 C -1.868246 -2.627796 0.903301 0
M  V30 27 N -0.624473 -2.536490 0.412180 0
M  V30 28 C -0.319706 -3.187689 -0.814738 0
M  V30 29 C 0.148513 -4.478866 -0.962597 0
M  V30 30 C 0.401376 -4.974089 -2.242909 0
M  V30 31 C 0.194953 -4.203428 -3.374506 0
M  V30 32 C -0.274272 -2.913812 -3.200952 0
M  V30 33 N -0.472467 -2.153913 -4.405830 0
M  V30 34 C -0.532615 -2.400619 -1.935826 0
M  V30 35 H 4.810634 -1.479333 -0.282427 0
M  V30 36 H 3.528772 -1.475649 -1.589417 0
M  V30 37 H 3.938694 -2.980157 -0.575236 0
M  V30 38 H 2.080455 -0.848723 3.093335 0
M  V30 39 H 0.714729 -0.279348 4.107090 0
M  V30 40 H 3.098083 0.883500 1.560167 0
M  V30 41 H 3.222466 3.154241 0.793477 0
M  V30 42 H 1.496170 5.351327 -1.292193 0
M  V30 43 H -0.054112 4.710673 -0.627213 0
M  V30 44 H 0.259701 6.481054 -0.560585 0
M  V30 45 H -0.445511 3.990450 2.629014 0
M  V30 46 H -0.649107 1.749731 3.418449 0
M  V30 47 H -3.715228 -1.647766 3.466519 0
M  V30 48 H -5.434334 -2.895295 2.305361 0
M  V30 49 H -4.932414 -4.154405 -1.143501 0
M  V30 50 H -4.906234 -5.279308 0.289496 0
M  V30 51 H -6.074915 -3.941836 0.234983 0
M  V30 52 H 0.289994 -5.030083 -0.048057 0
M  V30 53 H 0.767013 -5.992489 -2.297663 0
M  V30 54 H 0.402693 -4.620149 -4.367414 0
M  V30 55 H 0.251173 -1.402923 -4.374935 0
M  V30 56 H -1.115560 -2.186134 -5.220257 0
M  V30 57 H -0.900553 -1.366193 -1.939040 0
M  V30 END ATOM
M  V30 BEGIN BOND
M  V30 1 1 1 2
M  V30 2 1 2 3
M  V30 3 2 3 4
M  V30 4 1 3 5
M  V30 5 2 5 6
M  V30 6 1 6 7
M  V30 7 1 7 8
M  V30 8 2 8 9
M  V30 9 1 9 10
M  V30 10 2 10 11
M  V30 11 1 11 12
M  V30 12 1 12 13
M  V30 13 2 12 14
M  V30 14 2 12 15
M  V30 15 1 11 16
M  V30 16 2 16 17
M  V30 17 1 6 18
M  V30 18 2 18 19
M  V30 19 1 18 20
M  V30 20 2 20 21
M  V30 21 1 21 22
M  V30 22 2 22 23
M  V30 23 1 23 24
M  V30 24 1 23 25
M  V30 25 2 25 26
M  V30 26 1 26 27
M  V30 27 1 27 28
M  V30 28 2 28 29
M  V30 29 1 29 30
M  V30 30 2 30 31
M  V30 31 1 31 32
M  V30 32 1 32 33
M  V30 33 2 32 34
M  V30 34 1 27 5
M  V30 35 1 34 28
M  V30 36 1 17 8
M  V30 37 1 26 20
M  V30 38 1 1 35
M  V30 39 1 1 36
M  V30 40 1 1 37
M  V30 41 1 7 38
M  V30 42 1 7 39
M  V30 43 1 9 40
M  V30 44 1 10 41
M  V30 45 1 13 42
M  V30 46 1 13 43
M  V30 47 1 13 44
M  V30 48 1 16 45
M  V30 49 1 17 46
M  V30 50 1 21 47
M  V30 51 1 22 48
M  V30 52 1 24 49
M  V30 53 1 24 50
M  V30 54 1 24 51
M  V30 55 1 29 52
M  V30 56 1 30 53
M  V30 57 1 31 54
M  V30 58 1 33 55
M  V30 59 1 33 56
M  V30 60 1 34 57
M  V30 END BOND
M  V30 END CTAB
M  END
>  <Dataset>  (645) 
ChEMBL_Kinases

>  <Ligand_Instance>  (645) 
nan

>  <PDB_ID>  (645) 
nan

>  <Standardized_SMILES>  (645) 
COC(=O)c1c(Cc2ccc(S(C)(=O)=O)cc2)c(=O)c2ccc(C)nc2n1-c1cccc(N)c1

>  <Name>  (645) 
nan

>  <Pocket>  (645) 
nan

>  <ATP_Site>  (645) 
nan

>  <Peripheral>  (645) 
nan

>  <Num_H_Atoms_ProtBoundConf>  (645) 
nan

>  <Num_Resolved_Atoms>  (645) 
nan

>  <Num_Not_Resolved_Atoms>  (645) 
nan

$$$$
CHEMBL4556662
     RDKit          3D

  0  0  0  0  0  0  0  0  0  0999 V3000
M  V30 BEGIN CTAB
M  V30 COUNTS 41 43 0 0 0
M  V30 BEGIN ATOM
M  V30 1 C 1.568459 -4.166982 3.631038 0
M  V30 2 O 0.259301 -4.098736 3.112573 0
M  V30 3 C -0.192473 -3.021398 2.363254 0
M  V30 4 C 0.661484 -1.976871 2.111936 0
M  V30 5 C 0.287118 -0.852093 1.365221 0
M  V30 6 N 1.095177 0.276286 1.077215 0
M  V30 7 C 1.258495 1.077358 -0.073052 0
M  V30 8 C 0.645515 0.884932 -1.287460 0
M  V30 9 C 0.780768 1.665502 -2.414686 0
M  V30 10 N 1.617118 2.739120 -2.292768 0
M  V30 11 C 2.245197 2.963951 -1.102483 0
M  V30 12 C 3.059497 4.074584 -1.107121 0
M  V30 13 C 3.771153 4.451964 0.010802 0
M  V30 14 C 3.630173 3.666096 1.134235 0
M  V30 15 Cl 4.506644 4.090220 2.587985 0
M  V30 16 C 2.810040 2.563550 1.108557 0
M  V30 17 C 2.090617 2.163974 0.012531 0
M  V30 18 C -1.014140 -0.892666 0.909399 0
M  V30 19 C -1.892777 -1.929381 1.147158 0
M  V30 20 O -3.205785 -1.999546 0.702305 0
M  V30 21 C -3.678425 -0.905690 -0.063254 0
M  V30 22 C -1.474608 -3.015037 1.888242 0
M  V30 23 O -2.282220 -4.101172 2.178737 0
M  V30 24 C -2.369487 -5.241789 1.352741 0
M  V30 25 H 1.921979 -3.234652 4.076412 0
M  V30 26 H 1.545196 -4.931202 4.461231 0
M  V30 27 H 2.229495 -4.610387 2.859840 0
M  V30 28 H 1.694591 -1.959147 2.482464 0
M  V30 29 H 1.601533 0.434980 1.950715 0
M  V30 30 H -0.011304 0.042042 -1.428496 0
M  V30 31 H 0.264507 1.452418 -3.339594 0
M  V30 32 H 3.189628 4.710015 -1.973939 0
M  V30 33 H 4.407270 5.313234 0.019137 0
M  V30 34 H 2.744210 2.001562 2.003120 0
M  V30 35 H -1.507504 -0.124918 0.330303 0
M  V30 36 H -3.530181 0.018119 0.561964 0
M  V30 37 H -4.795541 -1.012440 -0.115177 0
M  V30 38 H -3.221973 -0.816186 -1.054785 0
M  V30 39 H -3.060474 -5.140553 0.502795 0
M  V30 40 H -1.382404 -5.531410 0.932852 0
M  V30 41 H -2.713035 -6.123701 1.933132 0
M  V30 END ATOM
M  V30 BEGIN BOND
M  V30 1 1 1 2
M  V30 2 1 2 3
M  V30 3 2 3 4
M  V30 4 1 4 5
M  V30 5 1 5 6
M  V30 6 1 6 7
M  V30 7 2 7 8
M  V30 8 1 8 9
M  V30 9 2 9 10
M  V30 10 1 10 11
M  V30 11 2 11 12
M  V30 12 1 12 13
M  V30 13 2 13 14
M  V30 14 1 14 15
M  V30 15 1 14 16
M  V30 16 2 16 17
M  V30 17 2 5 18
M  V30 18 1 18 19
M  V30 19 1 19 20
M  V30 20 1 20 21
M  V30 21 2 19 22
M  V30 22 1 22 23
M  V30 23 1 23 24
M  V30 24 1 22 3
M  V30 25 1 17 7
M  V30 26 1 17 11
M  V30 27 1 1 25
M  V30 28 1 1 26
M  V30 29 1 1 27
M  V30 30 1 4 28
M  V30 31 1 6 29
M  V30 32 1 8 30
M  V30 33 1 9 31
M  V30 34 1 12 32
M  V30 35 1 13 33
M  V30 36 1 16 34
M  V30 37 1 18 35
M  V30 38 1 21 36
M  V30 39 1 21 37
M  V30 40 1 21 38
M  V30 41 1 24 39
M  V30 42 1 24 40
M  V30 43 1 24 41
M  V30 END BOND
M  V30 END CTAB
M  END
>  <Dataset>  (646) 
ChEMBL_Kinases

>  <Ligand_Instance>  (646) 
nan

>  <PDB_ID>  (646) 
nan

>  <Standardized_SMILES>  (646) 
COc1cc(Nc2ccnc3ccc(Cl)cc23)cc(OC)c1OC

>  <Name>  (646) 
nan

>  <Pocket>  (646) 
nan

>  <ATP_Site>  (646) 
nan

>  <Peripheral>  (646) 
nan

>  <Num_H_Atoms_ProtBoundConf>  (646) 
nan

>  <Num_Resolved_Atoms>  (646) 
nan

>  <Num_Not_Resolved_Atoms>  (646) 
nan

$$$$
CHEMBL220864
     RDKit          3D

  0  0  0  0  0  0  0  0  0  0999 V3000
M  V30 BEGIN CTAB
M  V30 COUNTS 59 60 0 0 0
M  V30 BEGIN ATOM
M  V30 1 C 2.062836 -1.785957 2.364101 0
M  V30 2 C 2.362168 -2.977559 1.469094 0
M  V30 3 O 1.197433 -3.425166 0.811559 0
M  V30 4 C 0.534170 -2.547587 -0.021721 0
M  V30 5 N 0.987742 -1.294897 -0.202832 0
M  V30 6 C 0.366137 -0.417254 -1.004870 0
M  V30 7 C 0.854472 0.940912 -1.217174 0
M  V30 8 O 0.233787 1.735449 -1.972093 0
M  V30 9 N 2.036960 1.409634 -0.586029 0
M  V30 10 C 2.637320 2.715339 -0.701794 0
M  V30 11 C 1.935975 3.765866 0.081136 0
M  V30 12 C 2.326418 3.999130 1.383646 0
M  V30 13 C 1.776773 4.937519 2.232512 0
M  V30 14 C 0.747618 5.711222 1.739922 0
M  V30 15 S -0.055814 6.946615 2.674838 0
M  V30 16 C -1.441541 6.257755 3.581827 0
M  V30 17 O 0.883685 7.672291 3.599023 0
M  V30 18 O -0.635227 8.015162 1.756231 0
M  V30 19 C 0.320350 5.516387 0.443263 0
M  V30 20 C 0.888947 4.567591 -0.388696 0
M  V30 21 C -0.772048 -0.845106 -1.649117 0
M  V30 22 C -1.238481 -2.124596 -1.466584 0
M  V30 23 N -2.439926 -2.448363 -2.197205 0
M  V30 24 C -0.596107 -3.024941 -0.640977 0
M  V30 25 C -1.191873 -4.344635 -0.543338 0
M  V30 26 C -0.859047 -5.433037 0.118752 0
M  V30 27 C -1.573813 -6.713271 0.116462 0
M  V30 28 C -2.945501 -6.629989 0.742183 0
M  V30 29 C -1.774960 -7.242333 -1.311507 0
M  V30 30 C -0.720472 -7.755458 0.810002 0
M  V30 31 H 2.487384 -0.838715 1.953158 0
M  V30 32 H 0.986267 -1.672649 2.589729 0
M  V30 33 H 2.605268 -1.952851 3.316073 0
M  V30 34 H 2.854068 -3.784844 2.042629 0
M  V30 35 H 3.125626 -2.623636 0.722181 0
M  V30 36 H 2.532963 0.713432 0.042594 0
M  V30 37 H 3.687243 2.713246 -0.394521 0
M  V30 38 H 2.630799 3.073034 -1.774198 0
M  V30 39 H 3.143823 3.389559 1.784108 0
M  V30 40 H 2.114235 5.085075 3.245005 0
M  V30 41 H -1.131208 5.273872 3.958130 0
M  V30 42 H -2.282141 6.096656 2.851973 0
M  V30 43 H -1.780058 6.925562 4.371491 0
M  V30 44 H -0.499209 6.123822 0.031759 0
M  V30 45 H 0.576063 4.397319 -1.399316 0
M  V30 46 H -1.277494 -0.145645 -2.294841 0
M  V30 47 H -3.346178 -1.965269 -2.135424 0
M  V30 48 H -2.742859 -3.154540 -2.907751 0
M  V30 49 H -2.113379 -4.553240 -1.107971 0
M  V30 50 H 0.037688 -5.318693 0.707602 0
M  V30 51 H -2.919528 -6.763994 1.822875 0
M  V30 52 H -3.537332 -7.482638 0.336677 0
M  V30 53 H -3.454563 -5.714713 0.383406 0
M  V30 54 H -0.797338 -7.469172 -1.785851 0
M  V30 55 H -2.251679 -6.420507 -1.880574 0
M  V30 56 H -2.465099 -8.100734 -1.315167 0
M  V30 57 H 0.343545 -7.586002 0.498482 0
M  V30 58 H -1.001772 -8.742742 0.409436 0
M  V30 59 H -0.764248 -7.696651 1.917240 0
M  V30 END ATOM
M  V30 BEGIN BOND
M  V30 1 1 1 2
M  V30 2 1 2 3
M  V30 3 1 3 4
M  V30 4 2 4 5
M  V30 5 1 5 6
M  V30 6 1 6 7
M  V30 7 2 7 8
M  V30 8 1 7 9
M  V30 9 1 9 10
M  V30 10 1 10 11
M  V30 11 2 11 12
M  V30 12 1 12 13
M  V30 13 2 13 14
M  V30 14 1 14 15
M  V30 15 1 15 16
M  V30 16 2 15 17
M  V30 17 2 15 18
M  V30 18 1 14 19
M  V30 19 2 19 20
M  V30 20 2 6 21
M  V30 21 1 21 22
M  V30 22 1 22 23
M  V30 23 2 22 24
M  V30 24 1 24 25
M  V30 25 2 25 26
M  V30 26 1 26 27
M  V30 27 1 27 28
M  V30 28 1 27 29
M  V30 29 1 27 30
M  V30 30 1 24 4
M  V30 31 1 20 11
M  V30 32 1 1 31
M  V30 33 1 1 32
M  V30 34 1 1 33
M  V30 35 1 2 34
M  V30 36 1 2 35
M  V30 37 1 9 36
M  V30 38 1 10 37
M  V30 39 1 10 38
M  V30 40 1 12 39
M  V30 41 1 13 40
M  V30 42 1 16 41
M  V30 43 1 16 42
M  V30 44 1 16 43
M  V30 45 1 19 44
M  V30 46 1 20 45
M  V30 47 1 21 46
M  V30 48 1 23 47
M  V30 49 1 23 48
M  V30 50 1 25 49
M  V30 51 1 26 50
M  V30 52 1 28 51
M  V30 53 1 28 52
M  V30 54 1 28 53
M  V30 55 1 29 54
M  V30 56 1 29 55
M  V30 57 1 29 56
M  V30 58 1 30 57
M  V30 59 1 30 58
M  V30 60 1 30 59
M  V30 END BOND
M  V30 END CTAB
M  END
>  <Dataset>  (647) 
ChEMBL_Kinases

>  <Ligand_Instance>  (647) 
nan

>  <PDB_ID>  (647) 
nan

>  <Standardized_SMILES>  (647) 
CCOc1nc(C(=O)NCc2ccc(S(C)(=O)=O)cc2)cc(N)c1/C=C/C(C)(C)C

>  <Name>  (647) 
nan

>  <Pocket>  (647) 
nan

>  <ATP_Site>  (647) 
nan

>  <Peripheral>  (647) 
nan

>  <Num_H_Atoms_ProtBoundConf>  (647) 
nan

>  <Num_Resolved_Atoms>  (647) 
nan

>  <Num_Not_Resolved_Atoms>  (647) 
nan

$$$$
CHEMBL220865
     RDKit          3D

  0  0  0  0  0  0  0  0  0  0999 V3000
M  V30 BEGIN CTAB
M  V30 COUNTS 48 49 0 0 0
M  V30 BEGIN ATOM
M  V30 1 C -1.013556 -2.895852 -3.247381 0
M  V30 2 C -0.208813 -4.054570 -2.751280 0
M  V30 3 O -0.681904 -4.499321 -1.501239 0
M  V30 4 C -0.701949 -3.665123 -0.400667 0
M  V30 5 N -0.257965 -2.406151 -0.539995 0
M  V30 6 C -0.241047 -1.525982 0.476774 0
M  V30 7 C 0.237340 -0.168015 0.328739 0
M  V30 8 O 0.226823 0.618987 1.334702 0
M  V30 9 N 0.717183 0.289792 -0.929777 0
M  V30 10 C 1.219403 1.602960 -1.223263 0
M  V30 11 C 1.209968 2.523950 -0.056064 0
M  V30 12 C 2.376861 2.504666 0.707712 0
M  V30 13 C 2.455168 3.338559 1.823205 0
M  V30 14 C 1.396365 4.176718 2.175909 0
M  V30 15 S 1.566885 5.191402 3.584057 0
M  V30 16 C 0.989974 4.360884 5.055357 0
M  V30 17 O 3.016695 5.544089 3.769822 0
M  V30 18 O 0.757826 6.436136 3.342267 0
M  V30 19 C 0.259727 4.162505 1.389891 0
M  V30 20 C 0.152001 3.345656 0.276240 0
M  V30 21 C -0.709821 -1.998808 1.675730 0
M  V30 22 C -1.166184 -3.287178 1.825947 0
M  V30 23 N -1.631349 -3.668856 3.123170 0
M  V30 24 C -1.180162 -4.186655 0.774306 0
M  V30 25 C -1.675267 -5.503666 1.036403 0
M  V30 26 C -1.810639 -6.552370 0.262285 0
M  V30 27 C -2.324292 -7.835309 0.636645 0
M  V30 28 N -2.734729 -8.851105 0.953743 0
M  V30 29 H -0.589868 -1.954685 -2.899941 0
M  V30 30 H -2.084793 -2.945414 -2.956698 0
M  V30 31 H -1.007226 -2.918505 -4.370161 0
M  V30 32 H 0.831251 -3.667923 -2.542117 0
M  V30 33 H -0.153152 -4.887113 -3.468901 0
M  V30 34 H 0.750915 -0.304564 -1.787205 0
M  V30 35 H 2.246860 1.514256 -1.644016 0
M  V30 36 H 0.575706 2.070190 -1.995304 0
M  V30 37 H 3.239359 1.878431 0.492428 0
M  V30 38 H 3.336663 3.338911 2.419182 0
M  V30 39 H -0.129884 4.467329 5.082514 0
M  V30 40 H 1.409952 4.844577 5.952073 0
M  V30 41 H 1.301683 3.305355 5.064944 0
M  V30 42 H -0.552188 4.805210 1.660345 0
M  V30 43 H -0.729907 3.322028 -0.349678 0
M  V30 44 H -0.715703 -1.333851 2.514730 0
M  V30 45 H -2.475064 -3.120708 3.375581 0
M  V30 46 H -1.228977 -4.380817 3.765725 0
M  V30 47 H -2.022218 -5.761537 2.036902 0
M  V30 48 H -1.503927 -6.435724 -0.758916 0
M  V30 END ATOM
M  V30 BEGIN BOND
M  V30 1 1 1 2
M  V30 2 1 2 3
M  V30 3 1 3 4
M  V30 4 2 4 5
M  V30 5 1 5 6
M  V30 6 1 6 7
M  V30 7 2 7 8
M  V30 8 1 7 9
M  V30 9 1 9 10
M  V30 10 1 10 11
M  V30 11 2 11 12
M  V30 12 1 12 13
M  V30 13 2 13 14
M  V30 14 1 14 15
M  V30 15 1 15 16
M  V30 16 2 15 17
M  V30 17 2 15 18
M  V30 18 1 14 19
M  V30 19 2 19 20
M  V30 20 2 6 21
M  V30 21 1 21 22
M  V30 22 1 22 23
M  V30 23 2 22 24
M  V30 24 1 24 25
M  V30 25 2 25 26
M  V30 26 1 26 27
M  V30 27 3 27 28
M  V30 28 1 24 4
M  V30 29 1 20 11
M  V30 30 1 1 29
M  V30 31 1 1 30
M  V30 32 1 1 31
M  V30 33 1 2 32
M  V30 34 1 2 33
M  V30 35 1 9 34
M  V30 36 1 10 35
M  V30 37 1 10 36
M  V30 38 1 12 37
M  V30 39 1 13 38
M  V30 40 1 16 39
M  V30 41 1 16 40
M  V30 42 1 16 41
M  V30 43 1 19 42
M  V30 44 1 20 43
M  V30 45 1 21 44
M  V30 46 1 23 45
M  V30 47 1 23 46
M  V30 48 1 25 47
M  V30 49 1 26 48
M  V30 END BOND
M  V30 END CTAB
M  END
>  <Dataset>  (648) 
ChEMBL_Kinases

>  <Ligand_Instance>  (648) 
nan

>  <PDB_ID>  (648) 
nan

>  <Standardized_SMILES>  (648) 
CCOc1nc(C(=O)NCc2ccc(S(C)(=O)=O)cc2)cc(N)c1/C=C/C#N

>  <Name>  (648) 
nan

>  <Pocket>  (648) 
nan

>  <ATP_Site>  (648) 
nan

>  <Peripheral>  (648) 
nan

>  <Num_H_Atoms_ProtBoundConf>  (648) 
nan

>  <Num_Resolved_Atoms>  (648) 
nan

>  <Num_Not_Resolved_Atoms>  (648) 
nan

$$$$
CHEMBL220888
     RDKit          3D

  0  0  0  0  0  0  0  0  0  0999 V3000
M  V30 BEGIN CTAB
M  V30 COUNTS 48 51 0 0 0
M  V30 BEGIN ATOM
M  V30 1 N -4.988100 -2.855081 0.808446 0
M  V30 2 C -3.675885 -2.327855 0.764498 0
M  V30 3 O -3.303953 -1.220214 1.242654 0
M  V30 4 C -2.498302 -2.991923 0.142746 0 CFG=1
M  V30 5 N -1.356267 -2.146826 0.304056 0
M  V30 6 C -0.631556 -1.586851 -0.811235 0
M  V30 7 O -1.070280 -1.890975 -1.944757 0
M  V30 8 C 0.516190 -0.739929 -0.502225 0
M  V30 9 C 1.130701 -0.308604 0.669534 0
M  V30 10 C 2.212853 0.505678 0.319120 0
M  V30 11 C 2.978360 1.048306 1.438815 0
M  V30 12 N 3.705280 0.464494 2.404895 0
M  V30 13 N 4.202616 1.404484 3.185055 0
M  V30 14 C 3.810925 2.627254 2.744911 0
M  V30 15 C 3.027399 2.420614 1.629201 0
M  V30 16 C 2.475026 3.592954 0.962125 0
M  V30 17 C 2.736564 4.015584 -0.322460 0
M  V30 18 C 2.131005 5.153349 -0.814330 0
M  V30 19 C 1.245500 5.920153 -0.063941 0
M  V30 20 C 0.997382 5.472431 1.231823 0
M  V30 21 Cl -0.127465 6.479207 2.135653 0
M  V30 22 C 1.591276 4.337933 1.744395 0
M  V30 23 C 2.231493 0.550682 -1.058989 0
M  V30 24 N 1.212218 -0.198450 -1.517261 0
M  V30 25 C -2.343559 -4.354403 0.684959 0
M  V30 26 C -2.748575 -5.487878 -0.027059 0
M  V30 27 C -2.616460 -6.782733 0.454355 0
M  V30 28 C -2.056942 -6.969420 1.700105 0
M  V30 29 C -1.649307 -5.860455 2.421484 0
M  V30 30 C -1.781621 -4.560971 1.939170 0
M  V30 31 H -5.751034 -2.147631 0.950631 0
M  V30 32 H -4.991345 -3.913058 0.687538 0
M  V30 33 H -2.676880 -3.101574 -0.961729 0
M  V30 34 H -1.061882 -1.948216 1.304032 0
M  V30 35 H 0.700158 -0.650825 1.608453 0
M  V30 36 H 3.741521 -0.577147 2.363255 0
M  V30 37 H 4.134103 3.511942 3.275727 0
M  V30 38 H 3.426844 3.407483 -0.885850 0
M  V30 39 H 2.350442 5.477180 -1.842212 0
M  V30 40 H 0.805121 6.800729 -0.509850 0
M  V30 41 H 1.331494 4.069862 2.772666 0
M  V30 42 H 3.008937 1.139699 -1.513974 0
M  V30 43 H 1.088586 -0.267724 -2.552752 0
M  V30 44 H -3.187186 -5.359845 -1.001222 0
M  V30 45 H -2.946313 -7.623281 -0.138720 0
M  V30 46 H -1.946730 -7.980366 2.091673 0
M  V30 47 H -1.200020 -5.986965 3.418709 0
M  V30 48 H -1.438310 -3.728027 2.562603 0
M  V30 END ATOM
M  V30 BEGIN BOND
M  V30 1 1 1 2
M  V30 2 2 2 3
M  V30 3 1 2 4
M  V30 4 1 4 5
M  V30 5 1 5 6
M  V30 6 2 6 7
M  V30 7 1 6 8
M  V30 8 2 8 9
M  V30 9 1 9 10
M  V30 10 1 10 11
M  V30 11 1 11 12
M  V30 12 1 12 13
M  V30 13 2 13 14
M  V30 14 1 14 15
M  V30 15 1 15 16
M  V30 16 2 16 17
M  V30 17 1 17 18
M  V30 18 2 18 19
M  V30 19 1 19 20
M  V30 20 1 20 21
M  V30 21 2 20 22
M  V30 22 2 10 23
M  V30 23 1 23 24
M  V30 24 1 4 25
M  V30 25 2 25 26
M  V30 26 1 26 27
M  V30 27 2 27 28
M  V30 28 1 28 29
M  V30 29 2 29 30
M  V30 30 1 24 8
M  V30 31 1 30 25
M  V30 32 2 15 11
M  V30 33 1 22 16
M  V30 34 1 1 31
M  V30 35 1 1 32
M  V30 36 1 4 33 CFG=3
M  V30 37 1 5 34
M  V30 38 1 9 35
M  V30 39 1 12 36
M  V30 40 1 14 37
M  V30 41 1 17 38
M  V30 42 1 18 39
M  V30 43 1 19 40
M  V30 44 1 22 41
M  V30 45 1 23 42
M  V30 46 1 24 43
M  V30 47 1 26 44
M  V30 48 1 27 45
M  V30 49 1 28 46
M  V30 50 1 29 47
M  V30 51 1 30 48
M  V30 END BOND
M  V30 END CTAB
M  END
>  <Dataset>  (649) 
ChEMBL_Kinases

>  <Ligand_Instance>  (649) 
nan

>  <PDB_ID>  (649) 
nan

>  <Standardized_SMILES>  (649) 
NC(=O)[C@@H](NC(=O)c1cc(-c2[nH]ncc2-c2cccc(Cl)c2)c[nH]1)c1ccccc1

>  <Name>  (649) 
nan

>  <Pocket>  (649) 
nan

>  <ATP_Site>  (649) 
nan

>  <Peripheral>  (649) 
nan

>  <Num_H_Atoms_ProtBoundConf>  (649) 
nan

>  <Num_Resolved_Atoms>  (649) 
nan

>  <Num_Not_Resolved_Atoms>  (649) 
nan

$$$$
CHEMBL220897
     RDKit          3D

  0  0  0  0  0  0  0  0  0  0999 V3000
M  V30 BEGIN CTAB
M  V30 COUNTS 48 51 0 0 0
M  V30 BEGIN ATOM
M  V30 1 O -0.479526 1.308524 3.550597 0
M  V30 2 C -0.113871 0.813903 2.447996 0
M  V30 3 N 1.251330 1.051533 2.126409 0
M  V30 4 C 2.364316 1.719216 2.727229 0
M  V30 5 C 3.486505 0.731497 2.975310 0
M  V30 6 O 3.024709 -0.268613 3.830039 0
M  V30 7 C 2.872604 2.854224 1.902829 0
M  V30 8 C 3.052543 2.725921 0.537086 0
M  V30 9 C 3.522125 3.763867 -0.244459 0
M  V30 10 Cl 3.764549 3.646790 -1.969754 0
M  V30 11 C 3.831855 4.986309 0.330512 0
M  V30 12 C 3.665192 5.144347 1.674835 0
M  V30 13 Cl 4.035546 6.665210 2.481551 0
M  V30 14 C 3.196883 4.103902 2.443233 0
M  V30 15 C -0.917734 0.046125 1.494129 0
M  V30 16 C -0.657241 -0.556331 0.260525 0
M  V30 17 C -1.857075 -1.144505 -0.154306 0
M  V30 18 C -1.871785 -1.858094 -1.439195 0
M  V30 19 N -1.601600 -1.275101 -2.630192 0
M  V30 20 N -1.691271 -2.161140 -3.602777 0
M  V30 21 C -2.021840 -3.363621 -3.112231 0
M  V30 22 C -2.138869 -3.178112 -1.730890 0
M  V30 23 C -2.482489 -4.179536 -0.728756 0
M  V30 24 C -3.754574 -4.694703 -0.974351 0
M  V30 25 C -4.311354 -5.673860 -0.147119 0
M  V30 26 C -3.575764 -6.128213 0.927946 0
M  V30 27 C -2.323019 -5.609908 1.156200 0
M  V30 28 Cl -1.362653 -6.152720 2.496431 0
M  V30 29 C -1.770104 -4.652846 0.353590 0
M  V30 30 C -2.799020 -0.887921 0.822435 0
M  V30 31 N -2.214779 -0.174492 1.798583 0
M  V30 32 H 1.629513 0.664992 1.213466 0
M  V30 33 H 2.109201 2.182817 3.715481 0
M  V30 34 H 4.345781 1.192628 3.484024 0
M  V30 35 H 3.778987 0.222177 2.036739 0
M  V30 36 H 2.954491 -1.152590 3.399172 0
M  V30 37 H 2.832905 1.805307 0.022385 0
M  V30 38 H 4.207583 5.852951 -0.222130 0
M  V30 39 H 3.065064 4.233651 3.515325 0
M  V30 40 H 0.357905 -0.460186 -0.116300 0
M  V30 41 H -1.349091 -0.257448 -2.808946 0
M  V30 42 H -2.187682 -4.329056 -3.582220 0
M  V30 43 H -4.434772 -4.419238 -1.789225 0
M  V30 44 H -5.287811 -6.099416 -0.298481 0
M  V30 45 H -3.997897 -6.881422 1.568177 0
M  V30 46 H -0.803644 -4.173361 0.430848 0
M  V30 47 H -3.808146 -1.261907 0.692796 0
M  V30 48 H -2.791951 0.111236 2.630178 0
M  V30 END ATOM
M  V30 BEGIN BOND
M  V30 1 2 1 2
M  V30 2 1 2 3
M  V30 3 1 3 4
M  V30 4 1 4 5
M  V30 5 1 5 6
M  V30 6 1 4 7
M  V30 7 2 7 8
M  V30 8 1 8 9
M  V30 9 1 9 10
M  V30 10 2 9 11
M  V30 11 1 11 12
M  V30 12 1 12 13
M  V30 13 2 12 14
M  V30 14 1 2 15
M  V30 15 2 15 16
M  V30 16 1 16 17
M  V30 17 1 17 18
M  V30 18 1 18 19
M  V30 19 1 19 20
M  V30 20 2 20 21
M  V30 21 1 21 22
M  V30 22 1 22 23
M  V30 23 2 23 24
M  V30 24 1 24 25
M  V30 25 2 25 26
M  V30 26 1 26 27
M  V30 27 1 27 28
M  V30 28 2 27 29
M  V30 29 2 17 30
M  V30 30 1 30 31
M  V30 31 1 14 7
M  V30 32 1 31 15
M  V30 33 2 22 18
M  V30 34 1 29 23
M  V30 35 1 3 32
M  V30 36 1 4 33
M  V30 37 1 5 34
M  V30 38 1 5 35
M  V30 39 1 6 36
M  V30 40 1 8 37
M  V30 41 1 11 38
M  V30 42 1 14 39
M  V30 43 1 16 40
M  V30 44 1 19 41
M  V30 45 1 21 42
M  V30 46 1 24 43
M  V30 47 1 25 44
M  V30 48 1 26 45
M  V30 49 1 29 46
M  V30 50 1 30 47
M  V30 51 1 31 48
M  V30 END BOND
M  V30 END CTAB
M  END
>  <Dataset>  (650) 
ChEMBL_Kinases

>  <Ligand_Instance>  (650) 
nan

>  <PDB_ID>  (650) 
nan

>  <Standardized_SMILES>  (650) 
O=C(NC(CO)c1cc(Cl)cc(Cl)c1)c1cc(-c2[nH]ncc2-c2cccc(Cl)c2)c[nH]1

>  <Name>  (650) 
nan

>  <Pocket>  (650) 
nan

>  <ATP_Site>  (650) 
nan

>  <Peripheral>  (650) 
nan

>  <Num_H_Atoms_ProtBoundConf>  (650) 
nan

>  <Num_Resolved_Atoms>  (650) 
nan

>  <Num_Not_Resolved_Atoms>  (650) 
nan

$$$$
CHEMBL4556370
     RDKit          3D

  0  0  0  0  0  0  0  0  0  0999 V3000
M  V30 BEGIN CTAB
M  V30 COUNTS 57 60 0 0 0
M  V30 BEGIN ATOM
M  V30 1 C -4.710203 -2.510183 0.341722 0
M  V30 2 O -5.836282 -1.647839 0.121659 0
M  V30 3 C -5.897268 -0.925598 -1.060996 0
M  V30 4 C -7.012696 -0.119444 -1.195230 0
M  V30 5 C -7.145780 0.629289 -2.342085 0
M  V30 6 C -6.212447 0.596465 -3.341848 0
M  V30 7 C -5.098639 -0.201213 -3.220479 0
M  V30 8 C -3.960302 -0.404550 -4.156737 0 CFG=1
M  V30 9 C -3.921699 0.764630 -5.130786 0
M  V30 10 N -2.686097 -0.370178 -3.439067 0
M  V30 11 C -1.717032 -1.390241 -3.353558 0
M  V30 12 O -2.039234 -2.435941 -3.991570 0
M  V30 13 C -0.496297 -1.169089 -2.582826 0
M  V30 14 C -0.147025 -0.027165 -1.888480 0
M  V30 15 C 1.054386 0.003331 -1.211428 0
M  V30 16 C 1.945424 -1.049384 -1.181481 0
M  V30 17 C 3.173863 -0.857509 -0.418008 0
M  V30 18 C 4.380821 -1.453093 -0.740291 0
M  V30 19 C 5.541108 -1.279650 -0.029960 0
M  V30 20 N 5.516281 -0.481551 1.051304 0
M  V30 21 C 4.362788 0.132112 1.420096 0
M  V30 22 N 4.427753 0.962404 2.582615 0
M  V30 23 C 4.273946 0.953003 4.032629 0
M  V30 24 C 4.533962 2.349069 4.570354 0
M  V30 25 C 3.619753 3.444677 4.053656 0
M  V30 26 C 3.526854 2.999317 5.466367 0
M  V30 27 C 3.201193 -0.048755 0.699074 0
M  V30 28 C 1.605603 -2.194707 -1.872097 0
M  V30 29 C 0.402877 -2.239130 -2.555963 0
M  V30 30 C -4.941874 -0.960967 -2.081358 0
M  V30 31 H -3.771297 -1.911657 0.231038 0
M  V30 32 H -4.708022 -2.885245 1.384660 0
M  V30 33 H -4.770856 -3.323180 -0.397359 0
M  V30 34 H -7.815353 -0.009116 -0.477946 0
M  V30 35 H -7.984382 1.301614 -2.557762 0
M  V30 36 H -6.223615 1.147721 -4.284578 0
M  V30 37 H -4.151822 -1.342753 -4.677534 0
M  V30 38 H -4.830847 0.840284 -5.753298 0
M  V30 39 H -3.822221 1.724311 -4.583346 0
M  V30 40 H -2.993996 0.612610 -5.738855 0
M  V30 41 H -2.598765 0.570762 -2.977061 0
M  V30 42 H -0.860771 0.775831 -1.930035 0
M  V30 43 H 1.262485 0.916815 -0.695210 0
M  V30 44 H 4.421550 -2.106575 -1.617167 0
M  V30 45 H 6.453343 -1.789565 -0.355314 0
M  V30 46 H 4.683003 1.868537 2.088300 0
M  V30 47 H 5.025958 0.273485 4.440776 0
M  V30 48 H 3.224889 0.629606 4.255836 0
M  V30 49 H 5.597167 2.603598 4.664289 0
M  V30 50 H 4.047786 4.439812 3.799201 0
M  V30 51 H 2.851048 3.125759 3.336880 0
M  V30 52 H 2.664414 2.429227 5.851243 0
M  V30 53 H 3.895563 3.744595 6.209281 0
M  V30 54 H 2.293402 0.461321 1.026591 0
M  V30 55 H 2.300636 -3.012315 -1.847483 0
M  V30 56 H 0.235793 -3.191679 -3.066387 0
M  V30 57 H -4.129104 -1.630948 -1.840431 0
M  V30 END ATOM
M  V30 BEGIN BOND
M  V30 1 1 1 2
M  V30 2 1 2 3
M  V30 3 2 3 4
M  V30 4 1 4 5
M  V30 5 2 5 6
M  V30 6 1 6 7
M  V30 7 1 7 8
M  V30 8 1 8 9
M  V30 9 1 8 10
M  V30 10 1 10 11
M  V30 11 2 11 12
M  V30 12 1 11 13
M  V30 13 2 13 14
M  V30 14 1 14 15
M  V30 15 2 15 16
M  V30 16 1 16 17
M  V30 17 2 17 18
M  V30 18 1 18 19
M  V30 19 2 19 20
M  V30 20 1 20 21
M  V30 21 1 21 22
M  V30 22 1 22 23
M  V30 23 1 23 24
M  V30 24 1 24 25
M  V30 25 1 25 26
M  V30 26 2 21 27
M  V30 27 1 16 28
M  V30 28 2 28 29
M  V30 29 2 7 30
M  V30 30 1 30 3
M  V30 31 1 29 13
M  V30 32 1 27 17
M  V30 33 1 26 24
M  V30 34 1 1 31
M  V30 35 1 1 32
M  V30 36 1 1 33
M  V30 37 1 4 34
M  V30 38 1 5 35
M  V30 39 1 6 36
M  V30 40 1 8 37 CFG=3
M  V30 41 1 9 38
M  V30 42 1 9 39
M  V30 43 1 9 40
M  V30 44 1 10 41
M  V30 45 1 14 42
M  V30 46 1 15 43
M  V30 47 1 18 44
M  V30 48 1 19 45
M  V30 49 1 22 46
M  V30 50 1 23 47
M  V30 51 1 23 48
M  V30 52 1 24 49
M  V30 53 1 25 50
M  V30 54 1 25 51
M  V30 55 1 26 52
M  V30 56 1 26 53
M  V30 57 1 27 54
M  V30 58 1 28 55
M  V30 59 1 29 56
M  V30 60 1 30 57
M  V30 END BOND
M  V30 END CTAB
M  END
>  <Dataset>  (651) 
ChEMBL_Kinases

>  <Ligand_Instance>  (651) 
nan

>  <PDB_ID>  (651) 
nan

>  <Standardized_SMILES>  (651) 
COc1cccc([C@@H](C)NC(=O)c2ccc(-c3ccnc(NCC4CC4)c3)cc2)c1

>  <Name>  (651) 
nan

>  <Pocket>  (651) 
nan

>  <ATP_Site>  (651) 
nan

>  <Peripheral>  (651) 
nan

>  <Num_H_Atoms_ProtBoundConf>  (651) 
nan

>  <Num_Resolved_Atoms>  (651) 
nan

>  <Num_Not_Resolved_Atoms>  (651) 
nan

$$$$
CHEMBL220946
     RDKit          3D

  0  0  0  0  0  0  0  0  0  0999 V3000
M  V30 BEGIN CTAB
M  V30 COUNTS 53 58 0 0 0
M  V30 BEGIN ATOM
M  V30 1 C 0.975062 -9.247341 4.064951 0
M  V30 2 C 0.577332 -8.031858 3.507287 0
M  V30 3 N 1.422646 -7.731734 2.490612 0
M  V30 4 C 1.196348 -6.521086 1.776922 0
M  V30 5 C 1.395060 -5.252561 2.284593 0
M  V30 6 C 1.148954 -4.133352 1.518784 0
M  V30 7 C 0.702693 -4.216627 0.237779 0
M  V30 8 C 0.395150 -3.259426 -0.696611 0
M  V30 9 C 0.432871 -1.813903 -0.661193 0
M  V30 10 C 0.768502 -0.857837 0.257070 0
M  V30 11 C 0.617120 0.419181 -0.243320 0
M  V30 12 C 0.829602 1.668153 0.305631 0
M  V30 13 C 0.597670 2.818570 -0.420233 0
M  V30 14 C 0.808050 4.164050 0.117840 0
M  V30 15 N -0.306868 4.763018 0.767523 0
M  V30 16 C -0.842164 4.102125 1.893154 0
M  V30 17 C -2.024103 3.208063 1.625622 0
M  V30 18 C -2.818724 3.654862 0.419670 0
M  V30 19 C -2.686066 5.161979 0.340759 0
M  V30 20 C -1.246602 5.437809 -0.068310 0
M  V30 21 C 0.145736 2.643398 -1.712846 0
M  V30 22 C -0.065080 1.390013 -2.256766 0
M  V30 23 C 0.165700 0.233343 -1.533887 0
M  V30 24 N 0.071981 -1.085738 -1.737200 0
M  V30 25 N 0.013100 -3.987341 -1.759823 0
M  V30 26 N 0.073513 -5.282415 -1.519921 0
M  V30 27 C 0.504653 -5.495889 -0.267428 0
M  V30 28 C 0.743400 -6.631797 0.478054 0
M  V30 29 N 2.307702 -8.710433 2.413470 0
M  V30 30 N 2.066382 -9.625812 3.337297 0
M  V30 31 H 0.620485 -9.872820 4.872916 0
M  V30 32 H -0.278839 -7.518028 3.912519 0
M  V30 33 H 1.752559 -5.191997 3.311066 0
M  V30 34 H 1.317968 -3.189945 1.957462 0
M  V30 35 H 1.105678 -1.047713 1.237625 0
M  V30 36 H 1.185980 1.728680 1.328817 0
M  V30 37 H 1.683657 4.229127 0.806774 0
M  V30 38 H 1.077263 4.813921 -0.743447 0
M  V30 39 H -1.096802 4.895248 2.652427 0
M  V30 40 H -0.033372 3.513884 2.371173 0
M  V30 41 H -1.730765 2.150977 1.609492 0
M  V30 42 H -2.704059 3.320267 2.504255 0
M  V30 43 H -3.870522 3.334601 0.554265 0
M  V30 44 H -2.460739 3.249985 -0.526590 0
M  V30 45 H -2.956480 5.615518 1.311782 0
M  V30 46 H -3.361026 5.530179 -0.457083 0
M  V30 47 H -1.111960 6.542945 0.108867 0
M  V30 48 H -1.145705 5.281819 -1.140184 0
M  V30 49 H -0.062881 3.497581 -2.356655 0
M  V30 50 H -0.416815 1.282280 -3.264242 0
M  V30 51 H -0.260867 -1.380161 -2.680843 0
M  V30 52 H -0.189888 -5.986960 -2.242597 0
M  V30 53 H 0.553576 -7.592785 -0.019677 0
M  V30 END ATOM
M  V30 BEGIN BOND
M  V30 1 2 1 2
M  V30 2 1 2 3
M  V30 3 1 3 4
M  V30 4 2 4 5
M  V30 5 1 5 6
M  V30 6 2 6 7
M  V30 7 1 7 8
M  V30 8 1 8 9
M  V30 9 2 9 10
M  V30 10 1 10 11
M  V30 11 2 11 12
M  V30 12 1 12 13
M  V30 13 1 13 14
M  V30 14 1 14 15
M  V30 15 1 15 16
M  V30 16 1 16 17
M  V30 17 1 17 18
M  V30 18 1 18 19
M  V30 19 1 19 20
M  V30 20 2 13 21
M  V30 21 1 21 22
M  V30 22 2 22 23
M  V30 23 1 23 24
M  V30 24 2 8 25
M  V30 25 1 25 26
M  V30 26 1 26 27
M  V30 27 2 27 28
M  V30 28 1 3 29
M  V30 29 2 29 30
M  V30 30 1 30 1
M  V30 31 1 28 4
M  V30 32 1 27 7
M  V30 33 1 24 9
M  V30 34 1 23 11
M  V30 35 1 20 15
M  V30 36 1 1 31
M  V30 37 1 2 32
M  V30 38 1 5 33
M  V30 39 1 6 34
M  V30 40 1 10 35
M  V30 41 1 12 36
M  V30 42 1 14 37
M  V30 43 1 14 38
M  V30 44 1 16 39
M  V30 45 1 16 40
M  V30 46 1 17 41
M  V30 47 1 17 42
M  V30 48 1 18 43
M  V30 49 1 18 44
M  V30 50 1 19 45
M  V30 51 1 19 46
M  V30 52 1 20 47
M  V30 53 1 20 48
M  V30 54 1 21 49
M  V30 55 1 22 50
M  V30 56 1 24 51
M  V30 57 1 26 52
M  V30 58 1 28 53
M  V30 END BOND
M  V30 END CTAB
M  END
>  <Dataset>  (652) 
ChEMBL_Kinases

>  <Ligand_Instance>  (652) 
nan

>  <PDB_ID>  (652) 
nan

>  <Standardized_SMILES>  (652) 
c1cn(-c2ccc3c(-c4cc5cc(CN6CCCCC6)ccc5[nH]4)n[nH]c3c2)nn1

>  <Name>  (652) 
nan

>  <Pocket>  (652) 
nan

>  <ATP_Site>  (652) 
nan

>  <Peripheral>  (652) 
nan

>  <Num_H_Atoms_ProtBoundConf>  (652) 
nan

>  <Num_Resolved_Atoms>  (652) 
nan

>  <Num_Not_Resolved_Atoms>  (652) 
nan

$$$$
CHEMBL3702195
     RDKit          3D

  0  0  0  0  0  0  0  0  0  0999 V3000
M  V30 BEGIN CTAB
M  V30 COUNTS 54 58 0 0 0
M  V30 BEGIN ATOM
M  V30 1 C 1.804370 -1.158584 7.186770 0
M  V30 2 C 1.528012 -0.971771 5.704159 0 CFG=2
M  V30 3 C 0.379894 -1.875786 5.278288 0
M  V30 4 O -0.770226 -1.607013 5.981531 0
M  V30 5 N 2.686558 -1.308448 4.904928 0
M  V30 6 C 2.812822 -1.069726 3.511249 0
M  V30 7 C 1.832335 -0.313666 2.872119 0
M  V30 8 C 1.942441 -0.104212 1.514304 0
M  V30 9 C 3.001408 -0.634241 0.813444 0
M  V30 10 N 3.131016 -0.437100 -0.587023 0
M  V30 11 C 2.159671 0.349463 -1.265345 0
M  V30 12 N 2.271794 1.573886 -1.826150 0
M  V30 13 C 1.183310 2.122794 -2.404083 0
M  V30 14 C -0.006914 1.402151 -2.395857 0
M  V30 15 C -1.204715 1.825696 -2.941139 0
M  V30 16 C -1.750270 2.896803 -3.615911 0
M  V30 17 C -3.092897 2.902948 -4.000404 0
M  V30 18 N -3.889327 1.833248 -3.707057 0
M  V30 19 C -3.362713 0.765874 -3.039102 0
M  V30 20 C -2.042546 0.767295 -2.665212 0
M  V30 21 N -1.441248 -0.237191 -2.007388 0
M  V30 22 C -1.752456 -1.510578 -1.467515 0
M  V30 23 C -0.847965 -2.597349 -2.074193 0
M  V30 24 C -1.424188 -3.819206 -1.342988 0
M  V30 25 C -2.894943 -3.501427 -1.149825 0
M  V30 26 C -3.080727 -2.091838 -1.762384 0
M  V30 27 C -0.146866 0.152814 -1.830551 0
M  V30 28 N 1.003835 -0.293729 -1.285046 0
M  V30 29 N 3.942926 -1.369893 1.478488 0
M  V30 30 N 3.824025 -1.562416 2.780803 0
M  V30 31 H 2.377091 -0.259341 7.524278 0
M  V30 32 H 0.822224 -1.123956 7.698393 0
M  V30 33 H 2.287569 -2.111456 7.399130 0
M  V30 34 H 1.263039 0.077637 5.537436 0
M  V30 35 H 0.655538 -2.937213 5.545146 0
M  V30 36 H 0.213622 -1.878363 4.208749 0
M  V30 37 H -1.374611 -0.987444 5.493439 0
M  V30 38 H 3.481683 -1.761990 5.403804 0
M  V30 39 H 0.975294 0.147753 3.335130 0
M  V30 40 H 1.203703 0.478248 0.972049 0
M  V30 41 H 3.912761 -0.848696 -1.135896 0
M  V30 42 H 1.260782 3.098206 -2.854144 0
M  V30 43 H -1.051053 3.713597 -3.813547 0
M  V30 44 H -3.391689 3.789646 -4.516956 0
M  V30 45 H -4.062464 -0.031505 -2.850810 0
M  V30 46 H -1.592505 -1.558653 -0.366125 0
M  V30 47 H -1.065853 -2.767862 -3.130679 0
M  V30 48 H 0.203383 -2.475490 -1.802369 0
M  V30 49 H -0.881044 -3.838768 -0.358874 0
M  V30 50 H -1.266685 -4.755224 -1.893427 0
M  V30 51 H -3.070453 -3.426210 -0.039209 0
M  V30 52 H -3.553398 -4.236628 -1.616454 0
M  V30 53 H -3.928152 -1.680575 -1.181524 0
M  V30 54 H -3.324242 -2.277964 -2.807749 0
M  V30 END ATOM
M  V30 BEGIN BOND
M  V30 1 1 1 2
M  V30 2 1 2 3
M  V30 3 1 3 4
M  V30 4 1 2 5
M  V30 5 1 5 6
M  V30 6 2 6 7
M  V30 7 1 7 8
M  V30 8 2 8 9
M  V30 9 1 9 10
M  V30 10 1 10 11
M  V30 11 2 11 12
M  V30 12 1 12 13
M  V30 13 2 13 14
M  V30 14 1 14 15
M  V30 15 2 15 16
M  V30 16 1 16 17
M  V30 17 2 17 18
M  V30 18 1 18 19
M  V30 19 2 19 20
M  V30 20 1 20 21
M  V30 21 1 21 22
M  V30 22 1 22 23
M  V30 23 1 23 24
M  V30 24 1 24 25
M  V30 25 1 25 26
M  V30 26 1 21 27
M  V30 27 2 27 28
M  V30 28 1 9 29
M  V30 29 2 29 30
M  V30 30 1 30 6
M  V30 31 1 28 11
M  V30 32 1 27 14
M  V30 33 1 20 15
M  V30 34 1 26 22
M  V30 35 1 1 31
M  V30 36 1 1 32
M  V30 37 1 1 33
M  V30 38 1 2 34 CFG=1
M  V30 39 1 3 35
M  V30 40 1 3 36
M  V30 41 1 4 37
M  V30 42 1 5 38
M  V30 43 1 7 39
M  V30 44 1 8 40
M  V30 45 1 10 41
M  V30 46 1 13 42
M  V30 47 1 16 43
M  V30 48 1 17 44
M  V30 49 1 19 45
M  V30 50 1 22 46
M  V30 51 1 23 47
M  V30 52 1 23 48
M  V30 53 1 24 49
M  V30 54 1 24 50
M  V30 55 1 25 51
M  V30 56 1 25 52
M  V30 57 1 26 53
M  V30 58 1 26 54
M  V30 END BOND
M  V30 END CTAB
M  END
>  <Dataset>  (653) 
ChEMBL_Kinases

>  <Ligand_Instance>  (653) 
nan

>  <PDB_ID>  (653) 
nan

>  <Standardized_SMILES>  (653) 
C[C@H](CO)Nc1ccc(Nc2ncc3c4ccncc4n(C4CCCC4)c3n2)nn1

>  <Name>  (653) 
nan

>  <Pocket>  (653) 
nan

>  <ATP_Site>  (653) 
nan

>  <Peripheral>  (653) 
nan

>  <Num_H_Atoms_ProtBoundConf>  (653) 
nan

>  <Num_Resolved_Atoms>  (653) 
nan

>  <Num_Not_Resolved_Atoms>  (653) 
nan

$$$$
CHEMBL220947
     RDKit          3D

  0  0  0  0  0  0  0  0  0  0999 V3000
M  V30 BEGIN CTAB
M  V30 COUNTS 56 61 0 0 0
M  V30 BEGIN ATOM
M  V30 1 C 6.343422 -3.504509 1.421670 0
M  V30 2 C 7.288899 -2.425286 1.033006 0
M  V30 3 C 8.663993 -2.353593 1.126626 0
M  V30 4 N 9.077522 -1.179184 0.647634 0
M  V30 5 N 7.974550 -0.540774 0.266403 0
M  V30 6 N 6.900203 -1.260494 0.485227 0
M  V30 7 C 5.604894 -0.764074 0.148942 0
M  V30 8 C 4.525337 -0.985726 0.979158 0
M  V30 9 C 3.278599 -0.502754 0.646537 0
M  V30 10 C 3.038159 0.208420 -0.497686 0
M  V30 11 C 1.890709 0.765325 -1.000235 0
M  V30 12 C 0.526464 0.813481 -0.524779 0
M  V30 13 C -0.163172 0.353884 0.561320 0
M  V30 14 C -1.499929 0.685246 0.530605 0
M  V30 15 C -2.561512 0.449104 1.378561 0
M  V30 16 C -3.844808 0.921289 1.079321 0
M  V30 17 C -4.898620 0.603947 2.070052 0
M  V30 18 N -5.562814 -0.627937 1.817931 0
M  V30 19 C -6.279328 -0.716713 0.583092 0
M  V30 20 C -5.456273 -1.518080 -0.405880 0
M  V30 21 C -5.537575 -2.963830 0.046105 0
M  V30 22 C -5.541836 -3.046470 1.573484 0
M  V30 23 C -4.816256 -1.815182 2.132071 0
M  V30 24 C -3.968615 1.624591 -0.098284 0
M  V30 25 C -2.901379 1.854303 -0.937371 0
M  V30 26 C -1.634052 1.390123 -0.646218 0
M  V30 27 N -0.425654 1.441928 -1.232475 0
M  V30 28 N 2.324564 1.318648 -2.145197 0
M  V30 29 N 3.610620 1.127749 -2.339153 0
M  V30 30 C 4.127843 0.421582 -1.317217 0
M  V30 31 C 5.389358 -0.049091 -1.012159 0
M  V30 32 H 5.470739 -3.543057 0.729767 0
M  V30 33 H 6.822999 -4.518152 1.307821 0
M  V30 34 H 6.067176 -3.457309 2.491832 0
M  V30 35 H 9.175243 -3.224811 1.556427 0
M  V30 36 H 4.689608 -1.536765 1.874763 0
M  V30 37 H 2.478831 -0.705105 1.328208 0
M  V30 38 H 0.275079 -0.208163 1.363772 0
M  V30 39 H -2.331150 -0.121788 2.290111 0
M  V30 40 H -5.663473 1.425889 1.974077 0
M  V30 41 H -4.460519 0.662534 3.085582 0
M  V30 42 H -6.521312 0.302765 0.232233 0
M  V30 43 H -7.241218 -1.297456 0.699220 0
M  V30 44 H -5.886338 -1.356257 -1.401093 0
M  V30 45 H -4.396058 -1.222425 -0.417895 0
M  V30 46 H -6.530710 -3.328633 -0.297246 0
M  V30 47 H -4.738173 -3.571884 -0.382134 0
M  V30 48 H -4.971637 -3.955724 1.852057 0
M  V30 49 H -6.561459 -3.123418 1.947760 0
M  V30 50 H -4.598114 -1.976607 3.184393 0
M  V30 51 H -3.864346 -1.771583 1.526879 0
M  V30 52 H -4.956798 1.991832 -0.326208 0
M  V30 53 H -3.045597 2.411502 -1.851734 0
M  V30 54 H -0.373183 1.954561 -2.149900 0
M  V30 55 H 4.106901 1.489263 -3.174555 0
M  V30 56 H 6.203702 0.149004 -1.692384 0
M  V30 END ATOM
M  V30 BEGIN BOND
M  V30 1 1 1 2
M  V30 2 2 2 3
M  V30 3 1 3 4
M  V30 4 2 4 5
M  V30 5 1 5 6
M  V30 6 1 6 7
M  V30 7 2 7 8
M  V30 8 1 8 9
M  V30 9 2 9 10
M  V30 10 1 10 11
M  V30 11 1 11 12
M  V30 12 2 12 13
M  V30 13 1 13 14
M  V30 14 2 14 15
M  V30 15 1 15 16
M  V30 16 1 16 17
M  V30 17 1 17 18
M  V30 18 1 18 19
M  V30 19 1 19 20
M  V30 20 1 20 21
M  V30 21 1 21 22
M  V30 22 1 22 23
M  V30 23 2 16 24
M  V30 24 1 24 25
M  V30 25 2 25 26
M  V30 26 1 26 27
M  V30 27 2 11 28
M  V30 28 1 28 29
M  V30 29 1 29 30
M  V30 30 2 30 31
M  V30 31 1 6 2
M  V30 32 1 31 7
M  V30 33 1 30 10
M  V30 34 1 27 12
M  V30 35 1 26 14
M  V30 36 1 23 18
M  V30 37 1 1 32
M  V30 38 1 1 33
M  V30 39 1 1 34
M  V30 40 1 3 35
M  V30 41 1 8 36
M  V30 42 1 9 37
M  V30 43 1 13 38
M  V30 44 1 15 39
M  V30 45 1 17 40
M  V30 46 1 17 41
M  V30 47 1 19 42
M  V30 48 1 19 43
M  V30 49 1 20 44
M  V30 50 1 20 45
M  V30 51 1 21 46
M  V30 52 1 21 47
M  V30 53 1 22 48
M  V30 54 1 22 49
M  V30 55 1 23 50
M  V30 56 1 23 51
M  V30 57 1 24 52
M  V30 58 1 25 53
M  V30 59 1 27 54
M  V30 60 1 29 55
M  V30 61 1 31 56
M  V30 END BOND
M  V30 END CTAB
M  END
>  <Dataset>  (654) 
ChEMBL_Kinases

>  <Ligand_Instance>  (654) 
nan

>  <PDB_ID>  (654) 
nan

>  <Standardized_SMILES>  (654) 
Cc1cnnn1-c1ccc2c(-c3cc4cc(CN5CCCCC5)ccc4[nH]3)n[nH]c2c1

>  <Name>  (654) 
nan

>  <Pocket>  (654) 
nan

>  <ATP_Site>  (654) 
nan

>  <Peripheral>  (654) 
nan

>  <Num_H_Atoms_ProtBoundConf>  (654) 
nan

>  <Num_Resolved_Atoms>  (654) 
nan

>  <Num_Not_Resolved_Atoms>  (654) 
nan

$$$$
CHEMBL4556306
     RDKit          3D

  0  0  0  0  0  0  0  0  0  0999 V3000
M  V30 BEGIN CTAB
M  V30 COUNTS 61 63 0 0 0
M  V30 BEGIN ATOM
M  V30 1 C -1.798846 -1.179974 6.330809 0
M  V30 2 O -0.707173 -0.372976 5.944963 0
M  V30 3 C 0.185663 -0.851306 5.001886 0
M  V30 4 C 1.226504 -0.025417 4.666275 0
M  V30 5 C 2.159523 -0.412658 3.743080 0
M  V30 6 C 2.086481 -1.630400 3.127127 0
M  V30 7 S 3.216622 -2.229473 1.923700 0
M  V30 8 O 3.429738 -3.705723 2.055871 0
M  V30 9 O 4.567662 -1.612904 2.202187 0
M  V30 10 N 2.647588 -1.805125 0.351616 0
M  V30 11 C 2.432369 -0.504988 -0.185642 0
M  V30 12 C 1.061582 0.051119 0.169031 0
M  V30 13 C 0.906505 1.416310 -0.458309 0
M  V30 14 C -0.399621 2.033809 -0.103726 0
M  V30 15 O -0.284692 2.902879 0.782030 0
M  V30 16 C -1.770057 1.816786 -0.592234 0
M  V30 17 C -2.365414 0.507873 -0.198639 0
M  V30 18 C -2.451809 -0.526494 -1.266059 0
M  V30 19 C -3.769710 -0.471978 -2.022897 0
M  V30 20 C -3.792412 0.634885 -3.030158 0
M  V30 21 C -3.292045 1.949921 -2.504253 0
M  V30 22 C -1.849858 1.960605 -2.111080 0
M  V30 23 C 2.339611 -2.846576 -0.567245 0
M  V30 24 C 1.088509 -3.416390 -0.679521 0
M  V30 25 C 0.832584 -4.429545 -1.577980 0
M  V30 26 C 1.868493 -4.857558 -2.363352 0
M  V30 27 C 3.148569 -4.344629 -2.317076 0
M  V30 28 C 3.353532 -3.317344 -1.387605 0
M  V30 29 C 1.049559 -2.494016 3.439284 0
M  V30 30 C 0.120802 -2.093649 4.366575 0
M  V30 31 H -2.221093 -0.860924 7.310873 0
M  V30 32 H -1.460241 -2.224824 6.446902 0
M  V30 33 H -2.606522 -1.191961 5.549612 0
M  V30 34 H 1.421392 0.974667 5.069080 0
M  V30 35 H 3.006867 0.211595 3.441509 0
M  V30 36 H 3.173441 0.190035 0.311708 0
M  V30 37 H 2.576173 -0.404365 -1.257264 0
M  V30 38 H 0.256844 -0.574431 -0.273685 0
M  V30 39 H 0.868860 0.135043 1.236756 0
M  V30 40 H 0.963462 1.332427 -1.590441 0
M  V30 41 H 1.742684 2.058516 -0.142865 0
M  V30 42 H -2.433390 2.631816 -0.204586 0
M  V30 43 H -1.800428 0.108061 0.694493 0
M  V30 44 H -3.413923 0.663472 0.210718 0
M  V30 45 H -2.481787 -1.526279 -0.738523 0
M  V30 46 H -1.616397 -0.597155 -1.957101 0
M  V30 47 H -4.597261 -0.398582 -1.287777 0
M  V30 48 H -3.890601 -1.446800 -2.533079 0
M  V30 49 H -4.868166 0.798888 -3.306862 0
M  V30 50 H -3.270311 0.388370 -3.960749 0
M  V30 51 H -3.920893 2.327069 -1.664099 0
M  V30 52 H -3.391145 2.684675 -3.352384 0
M  V30 53 H -1.401082 2.982318 -2.299477 0
M  V30 54 H -1.203334 1.263243 -2.645699 0
M  V30 55 H 0.347494 -3.003915 -0.014615 0
M  V30 56 H -0.181386 -4.805305 -1.585114 0
M  V30 57 H 1.626244 -5.652964 -3.054163 0
M  V30 58 H 3.922592 -4.731275 -2.968249 0
M  V30 59 H 4.347137 -2.915021 -1.349613 0
M  V30 60 H 0.939235 -3.484488 2.975200 0
M  V30 61 H -0.702538 -2.737588 4.636269 0
M  V30 END ATOM
M  V30 BEGIN BOND
M  V30 1 1 1 2
M  V30 2 1 2 3
M  V30 3 2 3 4
M  V30 4 1 4 5
M  V30 5 2 5 6
M  V30 6 1 6 7
M  V30 7 2 7 8
M  V30 8 2 7 9
M  V30 9 1 7 10
M  V30 10 1 10 11
M  V30 11 1 11 12
M  V30 12 1 12 13
M  V30 13 1 13 14
M  V30 14 2 14 15
M  V30 15 1 14 16
M  V30 16 1 16 17
M  V30 17 1 17 18
M  V30 18 1 18 19
M  V30 19 1 19 20
M  V30 20 1 20 21
M  V30 21 1 21 22
M  V30 22 1 10 23
M  V30 23 2 23 24
M  V30 24 1 24 25
M  V30 25 2 25 26
M  V30 26 1 26 27
M  V30 27 2 27 28
M  V30 28 1 6 29
M  V30 29 2 29 30
M  V30 30 1 30 3
M  V30 31 1 22 16
M  V30 32 1 28 23
M  V30 33 1 1 31
M  V30 34 1 1 32
M  V30 35 1 1 33
M  V30 36 1 4 34
M  V30 37 1 5 35
M  V30 38 1 11 36
M  V30 39 1 11 37
M  V30 40 1 12 38
M  V30 41 1 12 39
M  V30 42 1 13 40
M  V30 43 1 13 41
M  V30 44 1 16 42
M  V30 45 1 17 43
M  V30 46 1 17 44
M  V30 47 1 18 45
M  V30 48 1 18 46
M  V30 49 1 19 47
M  V30 50 1 19 48
M  V30 51 1 20 49
M  V30 52 1 20 50
M  V30 53 1 21 51
M  V30 54 1 21 52
M  V30 55 1 22 53
M  V30 56 1 22 54
M  V30 57 1 24 55
M  V30 58 1 25 56
M  V30 59 1 26 57
M  V30 60 1 27 58
M  V30 61 1 28 59
M  V30 62 1 29 60
M  V30 63 1 30 61
M  V30 END BOND
M  V30 END CTAB
M  END
>  <Dataset>  (655) 
ChEMBL_Kinases

>  <Ligand_Instance>  (655) 
nan

>  <PDB_ID>  (655) 
nan

>  <Standardized_SMILES>  (655) 
COc1ccc(S(=O)(=O)N(CCCC(=O)C2CCCCCC2)c2ccccc2)cc1

>  <Name>  (655) 
nan

>  <Pocket>  (655) 
nan

>  <ATP_Site>  (655) 
nan

>  <Peripheral>  (655) 
nan

>  <Num_H_Atoms_ProtBoundConf>  (655) 
nan

>  <Num_Resolved_Atoms>  (655) 
nan

>  <Num_Not_Resolved_Atoms>  (655) 
nan

$$$$
CHEMBL3702168
     RDKit          3D

  0  0  0  0  0  0  0  0  0  0999 V3000
M  V30 BEGIN CTAB
M  V30 COUNTS 52 57 0 0 0
M  V30 BEGIN ATOM
M  V30 1 O 2.497037 -8.963254 0.500458 0
M  V30 2 C 2.563540 -7.584739 0.634539 0
M  V30 3 C 3.771161 -7.048152 1.077707 0
M  V30 4 C 3.870861 -5.661789 1.223301 0
M  V30 5 C 2.799141 -4.844000 0.935042 0
M  V30 6 C 2.798354 -3.392860 1.053012 0
M  V30 7 C 3.899137 -2.691510 1.474888 0
M  V30 8 C 3.958900 -1.320579 1.606162 0
M  V30 9 C 2.841932 -0.572476 1.296733 0
M  V30 10 N 2.728808 0.842738 1.374100 0
M  V30 11 C 1.624747 1.680189 1.070700 0
M  V30 12 N 1.795448 3.026113 1.234350 0
M  V30 13 C 0.783221 3.854598 0.956799 0
M  V30 14 C -0.408089 3.279655 0.508418 0
M  V30 15 C -1.552843 3.969797 0.170018 0
M  V30 16 C -1.912369 5.298732 0.146944 0
M  V30 17 C -3.182942 5.649866 -0.264905 0
M  V30 18 N -4.004341 4.662070 -0.623624 0
M  V30 19 C -3.677689 3.358894 -0.610063 0
M  V30 20 C -2.421790 2.970987 -0.205694 0
M  V30 21 N -1.901522 1.751425 -0.121530 0
M  V30 22 C -2.370855 0.410639 -0.381484 0
M  V30 23 C -1.752462 -0.563877 0.616624 0
M  V30 24 C -2.841223 -1.471919 1.094750 0
M  V30 25 C -4.026560 -1.256575 0.215411 0
M  V30 26 C -3.828526 0.187647 -0.226089 0
M  V30 27 C -0.624583 1.930438 0.329256 0
M  V30 28 N 0.455632 1.186352 0.636416 0
M  V30 29 N 1.777526 -1.282820 0.886310 0
M  V30 30 N 1.753441 -2.598565 0.771373 0
M  V30 31 C 1.620809 -5.414268 0.498745 0
M  V30 32 N 1.522430 -6.747970 0.357966 0
M  V30 33 H 3.137053 -9.475733 -0.121893 0
M  V30 34 H 4.650744 -7.612038 1.322959 0
M  V30 35 H 4.776007 -5.206585 1.560596 0
M  V30 36 H 4.825197 -3.184469 1.741675 0
M  V30 37 H 4.831569 -0.773740 1.939960 0
M  V30 38 H 3.628255 1.272937 1.712234 0
M  V30 39 H 0.898340 4.916652 1.079193 0
M  V30 40 H -1.201876 6.073314 0.451304 0
M  V30 41 H -3.424417 6.701349 -0.268508 0
M  V30 42 H -4.405032 2.633585 -0.922065 0
M  V30 43 H -1.981872 0.097938 -1.384761 0
M  V30 44 H -0.900278 -1.101736 0.165786 0
M  V30 45 H -1.411531 0.037327 1.496940 0
M  V30 46 H -3.108140 -1.285659 2.162824 0
M  V30 47 H -2.537705 -2.551992 1.074045 0
M  V30 48 H -4.989677 -1.395690 0.741794 0
M  V30 49 H -4.052775 -1.964196 -0.659290 0
M  V30 50 H -4.228304 0.825375 0.573244 0
M  V30 51 H -4.412028 0.338179 -1.160506 0
M  V30 52 H 0.714483 -4.886146 0.241521 0
M  V30 END ATOM
M  V30 BEGIN BOND
M  V30 1 1 1 2
M  V30 2 2 2 3
M  V30 3 1 3 4
M  V30 4 2 4 5
M  V30 5 1 5 6
M  V30 6 2 6 7
M  V30 7 1 7 8
M  V30 8 2 8 9
M  V30 9 1 9 10
M  V30 10 1 10 11
M  V30 11 2 11 12
M  V30 12 1 12 13
M  V30 13 2 13 14
M  V30 14 1 14 15
M  V30 15 2 15 16
M  V30 16 1 16 17
M  V30 17 2 17 18
M  V30 18 1 18 19
M  V30 19 2 19 20
M  V30 20 1 20 21
M  V30 21 1 21 22
M  V30 22 1 22 23
M  V30 23 1 23 24
M  V30 24 1 24 25
M  V30 25 1 25 26
M  V30 26 1 21 27
M  V30 27 2 27 28
M  V30 28 1 9 29
M  V30 29 2 29 30
M  V30 30 1 5 31
M  V30 31 2 31 32
M  V30 32 1 32 2
M  V30 33 1 30 6
M  V30 34 1 28 11
M  V30 35 1 27 14
M  V30 36 1 20 15
M  V30 37 1 26 22
M  V30 38 1 1 33
M  V30 39 1 3 34
M  V30 40 1 4 35
M  V30 41 1 7 36
M  V30 42 1 8 37
M  V30 43 1 10 38
M  V30 44 1 13 39
M  V30 45 1 16 40
M  V30 46 1 17 41
M  V30 47 1 19 42
M  V30 48 1 22 43
M  V30 49 1 23 44
M  V30 50 1 23 45
M  V30 51 1 24 46
M  V30 52 1 24 47
M  V30 53 1 25 48
M  V30 54 1 25 49
M  V30 55 1 26 50
M  V30 56 1 26 51
M  V30 57 1 31 52
M  V30 END BOND
M  V30 END CTAB
M  END
>  <Dataset>  (656) 
ChEMBL_Kinases

>  <Ligand_Instance>  (656) 
nan

>  <PDB_ID>  (656) 
nan

>  <Standardized_SMILES>  (656) 
Oc1ccc(-c2ccc(Nc3ncc4c5ccncc5n(C5CCCC5)c4n3)nn2)cn1

>  <Name>  (656) 
nan

>  <Pocket>  (656) 
nan

>  <ATP_Site>  (656) 
nan

>  <Peripheral>  (656) 
nan

>  <Num_H_Atoms_ProtBoundConf>  (656) 
nan

>  <Num_Resolved_Atoms>  (656) 
nan

>  <Num_Not_Resolved_Atoms>  (656) 
nan

$$$$
CHEMBL3702172
     RDKit          3D

  0  0  0  0  0  0  0  0  0  0999 V3000
M  V30 BEGIN CTAB
M  V30 COUNTS 59 64 0 0 0
M  V30 BEGIN ATOM
M  V30 1 O 2.719536 -3.951664 4.730451 0
M  V30 2 S 3.952523 -4.341270 3.983113 0
M  V30 3 O 4.654557 -5.388506 4.814727 0
M  V30 4 C 5.078225 -3.009673 3.768531 0
M  V30 5 C 4.980230 -2.539094 2.326157 0
M  V30 6 C 3.575074 -2.708496 1.885081 0
M  V30 7 C 3.092400 -1.747695 0.869287 0
M  V30 8 C 1.968287 -0.995850 1.245014 0
M  V30 9 C 1.427582 -0.058119 0.351020 0
M  V30 10 C 2.016505 0.117270 -0.909088 0
M  V30 11 N 1.413320 1.075056 -1.772576 0
M  V30 12 C 0.279353 1.791782 -1.271350 0
M  V30 13 N 0.270805 3.101367 -0.880700 0
M  V30 14 C -0.885797 3.634045 -0.410852 0
M  V30 15 C -2.005293 2.820458 -0.350052 0
M  V30 16 C -3.298169 3.110900 0.085936 0
M  V30 17 C -3.929304 4.229361 0.586978 0
M  V30 18 C -5.266409 4.137056 0.921631 0
M  V30 19 N -5.999757 3.018355 0.789940 0
M  V30 20 C -5.404171 1.892051 0.296294 0
M  V30 21 C -4.060817 1.968936 -0.044511 0
M  V30 22 N -3.236296 1.019774 -0.547919 0
M  V30 23 C -3.483831 -0.366508 -0.866267 0
M  V30 24 C -2.600768 -1.296129 -0.057280 0
M  V30 25 C -2.537676 -2.568050 -0.866348 0
M  V30 26 C -3.249063 -2.284874 -2.171139 0
M  V30 27 C -3.110903 -0.757228 -2.271769 0
M  V30 28 C -1.993862 1.495378 -0.745345 0
M  V30 29 N -0.820416 1.027125 -1.200934 0
M  V30 30 N 3.090936 -0.627038 -1.220516 0
M  V30 31 C 3.627092 -1.532777 -0.378250 0
M  V30 32 C 3.331135 -4.121715 1.339646 0
M  V30 33 C 3.467143 -5.129754 2.479501 0
M  V30 34 H 4.687569 -2.157921 4.376353 0
M  V30 35 H 6.113745 -3.261410 4.068290 0
M  V30 36 H 5.634420 -3.245231 1.750882 0
M  V30 37 H 5.401620 -1.525880 2.235549 0
M  V30 38 H 2.899306 -2.672334 2.786278 0
M  V30 39 H 1.479791 -1.100218 2.211274 0
M  V30 40 H 0.547190 0.502366 0.696048 0
M  V30 41 H 1.820056 1.207517 -2.709090 0
M  V30 42 H -0.892450 4.668473 -0.101633 0
M  V30 43 H -3.313120 5.111392 0.680268 0
M  V30 44 H -5.693675 5.073660 1.314238 0
M  V30 45 H -5.951355 0.987199 0.176673 0
M  V30 46 H -4.533726 -0.665136 -0.672269 0
M  V30 47 H -1.581323 -0.833247 0.059511 0
M  V30 48 H -3.078536 -1.493246 0.938093 0
M  V30 49 H -2.984185 -3.414262 -0.294906 0
M  V30 50 H -1.481694 -2.817081 -1.148566 0
M  V30 51 H -4.336341 -2.481525 -2.075465 0
M  V30 52 H -2.792844 -2.796757 -3.025278 0
M  V30 53 H -3.779398 -0.356409 -3.054248 0
M  V30 54 H -2.038970 -0.591881 -2.444446 0
M  V30 55 H 4.493503 -2.124733 -0.640598 0
M  V30 56 H 4.041589 -4.322661 0.518985 0
M  V30 57 H 2.265903 -4.147646 1.031798 0
M  V30 58 H 2.502688 -5.656618 2.687770 0
M  V30 59 H 4.176934 -5.915820 2.135626 0
M  V30 END ATOM
M  V30 BEGIN BOND
M  V30 1 2 1 2
M  V30 2 2 2 3
M  V30 3 1 2 4
M  V30 4 1 4 5
M  V30 5 1 5 6
M  V30 6 1 6 7
M  V30 7 2 7 8
M  V30 8 1 8 9
M  V30 9 2 9 10
M  V30 10 1 10 11
M  V30 11 1 11 12
M  V30 12 2 12 13
M  V30 13 1 13 14
M  V30 14 2 14 15
M  V30 15 1 15 16
M  V30 16 2 16 17
M  V30 17 1 17 18
M  V30 18 2 18 19
M  V30 19 1 19 20
M  V30 20 2 20 21
M  V30 21 1 21 22
M  V30 22 1 22 23
M  V30 23 1 23 24
M  V30 24 1 24 25
M  V30 25 1 25 26
M  V30 26 1 26 27
M  V30 27 1 22 28
M  V30 28 2 28 29
M  V30 29 1 10 30
M  V30 30 2 30 31
M  V30 31 1 6 32
M  V30 32 1 32 33
M  V30 33 1 33 2
M  V30 34 1 31 7
M  V30 35 1 29 12
M  V30 36 1 28 15
M  V30 37 1 21 16
M  V30 38 1 27 23
M  V30 39 1 4 34
M  V30 40 1 4 35
M  V30 41 1 5 36
M  V30 42 1 5 37
M  V30 43 1 6 38
M  V30 44 1 8 39
M  V30 45 1 9 40
M  V30 46 1 11 41
M  V30 47 1 14 42
M  V30 48 1 17 43
M  V30 49 1 18 44
M  V30 50 1 20 45
M  V30 51 1 23 46
M  V30 52 1 24 47
M  V30 53 1 24 48
M  V30 54 1 25 49
M  V30 55 1 25 50
M  V30 56 1 26 51
M  V30 57 1 26 52
M  V30 58 1 27 53
M  V30 59 1 27 54
M  V30 60 1 31 55
M  V30 61 1 32 56
M  V30 62 1 32 57
M  V30 63 1 33 58
M  V30 64 1 33 59
M  V30 END BOND
M  V30 END CTAB
M  END
>  <Dataset>  (657) 
ChEMBL_Kinases

>  <Ligand_Instance>  (657) 
nan

>  <PDB_ID>  (657) 
nan

>  <Standardized_SMILES>  (657) 
O=S1(=O)CCC(c2ccc(Nc3ncc4c5ccncc5n(C5CCCC5)c4n3)nc2)CC1

>  <Name>  (657) 
nan

>  <Pocket>  (657) 
nan

>  <ATP_Site>  (657) 
nan

>  <Peripheral>  (657) 
nan

>  <Num_H_Atoms_ProtBoundConf>  (657) 
nan

>  <Num_Resolved_Atoms>  (657) 
nan

>  <Num_Not_Resolved_Atoms>  (657) 
nan

$$$$
CHEMBL3702173
     RDKit          3D

  0  0  0  0  0  0  0  0  0  0999 V3000
M  V30 BEGIN CTAB
M  V30 COUNTS 57 62 0 0 0
M  V30 BEGIN ATOM
M  V30 1 O 3.189769 -5.905087 -2.508960 0
M  V30 2 S 4.241751 -5.052779 -3.155861 0
M  V30 3 O 5.252919 -5.875109 -3.886742 0
M  V30 4 C 5.071600 -4.060235 -1.905389 0
M  V30 5 C 4.126708 -2.977822 -1.518955 0
M  V30 6 C 3.526715 -2.199884 -2.401236 0
M  V30 7 C 2.615391 -1.160928 -1.984143 0
M  V30 8 C 2.307499 -0.899779 -0.674850 0
M  V30 9 C 1.421829 0.089157 -0.250290 0
M  V30 10 C 0.796345 0.875571 -1.192002 0
M  V30 11 N -0.132189 1.893862 -0.849905 0
M  V30 12 C -0.464416 2.155113 0.503680 0
M  V30 13 N -0.058740 3.080170 1.402060 0
M  V30 14 C -0.549411 3.086814 2.664601 0
M  V30 15 C -1.478227 2.147514 3.070338 0
M  V30 16 C -2.114995 1.951889 4.289322 0
M  V30 17 C -2.079325 2.584714 5.513945 0
M  V30 18 C -2.901609 2.045722 6.486843 0
M  V30 19 N -3.687887 0.971354 6.255247 0
M  V30 20 C -3.726402 0.350830 5.063525 0
M  V30 21 F -4.527749 -0.729058 4.863539 0
M  V30 22 C -2.921008 0.857119 4.065206 0
M  V30 23 N -2.799998 0.405548 2.810620 0
M  V30 24 C -3.395403 -0.682473 2.060556 0
M  V30 25 C -4.046194 -0.213410 0.801473 0
M  V30 26 C -4.316715 -1.554179 0.117648 0
M  V30 27 C -3.126474 -2.407898 0.478199 0
M  V30 28 C -2.349366 -1.648732 1.548580 0
M  V30 29 C -1.900629 1.187546 2.143749 0
M  V30 30 N -1.354650 1.271158 0.925998 0
M  V30 31 N 1.080706 0.641970 -2.494579 0
M  V30 32 C 1.949930 -0.332213 -2.858329 0
M  V30 33 C 3.863983 -2.485141 -3.805186 0
M  V30 34 C 3.437085 -3.880470 -4.227863 0
M  V30 35 H 5.291395 -4.744656 -1.080517 0
M  V30 36 H 5.963946 -3.619156 -2.396083 0
M  V30 37 H 3.978007 -2.886846 -0.458074 0
M  V30 38 H 2.729932 -1.444375 0.137636 0
M  V30 39 H 1.193130 0.279085 0.781062 0
M  V30 40 H -0.579978 2.461163 -1.600289 0
M  V30 41 H -0.183900 3.853193 3.326961 0
M  V30 42 H -1.431308 3.443107 5.647356 0
M  V30 43 H -2.897210 2.523036 7.461743 0
M  V30 44 H -4.123234 -1.234196 2.673682 0
M  V30 45 H -3.368951 0.320990 0.124841 0
M  V30 46 H -4.990012 0.346903 0.975284 0
M  V30 47 H -4.454231 -1.445064 -0.978704 0
M  V30 48 H -5.210062 -1.979739 0.625527 0
M  V30 49 H -3.434741 -3.369806 0.942186 0
M  V30 50 H -2.449392 -2.580159 -0.398492 0
M  V30 51 H -1.533962 -1.087332 1.083315 0
M  V30 52 H -1.995774 -2.336403 2.345999 0
M  V30 53 H 2.088140 -0.414026 -3.925488 0
M  V30 54 H 4.978915 -2.375162 -3.940964 0
M  V30 55 H 3.416439 -1.786195 -4.511037 0
M  V30 56 H 3.771339 -4.010024 -5.279227 0
M  V30 57 H 2.352687 -3.958946 -4.216467 0
M  V30 END ATOM
M  V30 BEGIN BOND
M  V30 1 2 1 2
M  V30 2 2 2 3
M  V30 3 1 2 4
M  V30 4 1 4 5
M  V30 5 2 5 6
M  V30 6 1 6 7
M  V30 7 2 7 8
M  V30 8 1 8 9
M  V30 9 2 9 10
M  V30 10 1 10 11
M  V30 11 1 11 12
M  V30 12 2 12 13
M  V30 13 1 13 14
M  V30 14 2 14 15
M  V30 15 1 15 16
M  V30 16 2 16 17
M  V30 17 1 17 18
M  V30 18 2 18 19
M  V30 19 1 19 20
M  V30 20 1 20 21
M  V30 21 2 20 22
M  V30 22 1 22 23
M  V30 23 1 23 24
M  V30 24 1 24 25
M  V30 25 1 25 26
M  V30 26 1 26 27
M  V30 27 1 27 28
M  V30 28 1 23 29
M  V30 29 2 29 30
M  V30 30 1 10 31
M  V30 31 2 31 32
M  V30 32 1 6 33
M  V30 33 1 33 34
M  V30 34 1 34 2
M  V30 35 1 32 7
M  V30 36 1 30 12
M  V30 37 1 29 15
M  V30 38 1 22 16
M  V30 39 1 28 24
M  V30 40 1 4 35
M  V30 41 1 4 36
M  V30 42 1 5 37
M  V30 43 1 8 38
M  V30 44 1 9 39
M  V30 45 1 11 40
M  V30 46 1 14 41
M  V30 47 1 17 42
M  V30 48 1 18 43
M  V30 49 1 24 44
M  V30 50 1 25 45
M  V30 51 1 25 46
M  V30 52 1 26 47
M  V30 53 1 26 48
M  V30 54 1 27 49
M  V30 55 1 27 50
M  V30 56 1 28 51
M  V30 57 1 28 52
M  V30 58 1 32 53
M  V30 59 1 33 54
M  V30 60 1 33 55
M  V30 61 1 34 56
M  V30 62 1 34 57
M  V30 END BOND
M  V30 END CTAB
M  END
>  <Dataset>  (658) 
ChEMBL_Kinases

>  <Ligand_Instance>  (658) 
nan

>  <PDB_ID>  (658) 
nan

>  <Standardized_SMILES>  (658) 
O=S1(=O)CC=C(c2ccc(Nc3ncc4c5ccnc(F)c5n(C5CCCC5)c4n3)nc2)CC1

>  <Name>  (658) 
nan

>  <Pocket>  (658) 
nan

>  <ATP_Site>  (658) 
nan

>  <Peripheral>  (658) 
nan

>  <Num_H_Atoms_ProtBoundConf>  (658) 
nan

>  <Num_Resolved_Atoms>  (658) 
nan

>  <Num_Not_Resolved_Atoms>  (658) 
nan

$$$$
CHEMBL4556104
     RDKit          3D

  0  0  0  0  0  0  0  0  0  0999 V3000
M  V30 BEGIN CTAB
M  V30 COUNTS 61 64 0 0 0
M  V30 BEGIN ATOM
M  V30 1 C 4.511309 0.616813 6.825486 0
M  V30 2 C 5.261026 0.982148 5.576463 0
M  V30 3 C 5.881768 2.359450 5.666117 0
M  V30 4 C 6.392499 -0.020287 5.386468 0
M  V30 5 C 4.370987 0.922286 4.384518 0
M  V30 6 C 4.213941 -0.229138 3.640761 0
M  V30 7 C 3.378509 -0.280408 2.524143 0
M  V30 8 C 2.698078 0.866899 2.170799 0
M  V30 9 C 1.835540 0.766840 0.996879 0
M  V30 10 O 1.764150 -0.353109 0.384655 0
M  V30 11 N 1.043650 1.780435 0.431331 0
M  V30 12 C 0.355885 1.252171 -0.711688 0
M  V30 13 C 0.901465 1.299512 -1.974720 0
M  V30 14 C 0.186972 0.773696 -3.028415 0
M  V30 15 C -1.052850 0.207880 -2.833345 0
M  V30 16 C -1.637394 0.138484 -1.589494 0
M  V30 17 N -2.910881 -0.461917 -1.501436 0
M  V30 18 C -3.715441 -0.651749 -0.354856 0
M  V30 19 O -3.315312 -0.258744 0.768475 0
M  V30 20 C -5.033121 -1.252316 -0.127135 0
M  V30 21 O -5.674353 -1.769026 -1.250781 0
M  V30 22 C -5.212052 -2.790117 -2.047574 0
M  V30 23 C -4.072921 -3.579783 -2.011890 0
M  V30 24 C -3.821530 -4.549900 -2.925509 0
M  V30 25 C -4.734662 -4.769209 -3.941044 0
M  V30 26 C -4.425065 -5.778064 -4.851055 0
M  V30 27 O -3.352002 -6.448343 -4.732251 0
M  V30 28 C -5.286148 -6.045597 -5.879177 0
M  V30 29 C -6.401080 -5.233626 -5.868871 0
M  V30 30 O -6.712519 -4.284144 -5.029175 0
M  V30 31 C -5.905340 -4.011975 -4.040687 0
M  V30 32 C -6.119111 -3.024105 -3.075086 0
M  V30 33 C -0.886764 0.674605 -0.577374 0
M  V30 34 C 2.812103 2.031268 2.864386 0
M  V30 35 C 3.657457 2.040311 3.974145 0
M  V30 36 H 3.431643 0.860952 6.756929 0
M  V30 37 H 4.928117 1.078458 7.741304 0
M  V30 38 H 4.551306 -0.497110 6.973703 0
M  V30 39 H 5.211024 2.998680 6.249592 0
M  V30 40 H 6.017804 2.721198 4.628592 0
M  V30 41 H 6.902142 2.261976 6.082955 0
M  V30 42 H 6.642205 -0.015302 4.310223 0
M  V30 43 H 6.087793 -1.053465 5.699517 0
M  V30 44 H 7.253988 0.231285 6.043607 0
M  V30 45 H 4.793209 -1.082978 3.999179 0
M  V30 46 H 3.312394 -1.220226 1.998021 0
M  V30 47 H 1.086576 2.721227 0.922964 0
M  V30 48 H 1.878287 1.745058 -2.130737 0
M  V30 49 H 0.570845 0.786415 -4.037180 0
M  V30 50 H -1.587449 -0.199778 -3.705623 0
M  V30 51 H -3.383526 -0.827403 -2.334421 0
M  V30 52 H -5.010475 -2.066405 0.637621 0
M  V30 53 H -5.739439 -0.493757 0.328421 0
M  V30 54 H -3.452023 -3.290953 -1.159506 0
M  V30 55 H -2.923194 -5.109475 -2.824384 0
M  V30 56 H -5.128845 -6.797291 -6.618812 0
M  V30 57 H -7.169965 -5.353712 -6.649108 0
M  V30 58 H -7.061015 -2.514999 -3.271004 0
M  V30 59 H -1.278205 0.657165 0.425617 0
M  V30 60 H 2.272717 2.932046 2.580468 0
M  V30 61 H 3.769477 2.946538 4.544430 0
M  V30 END ATOM
M  V30 BEGIN BOND
M  V30 1 1 1 2
M  V30 2 1 2 3
M  V30 3 1 2 4
M  V30 4 1 2 5
M  V30 5 2 5 6
M  V30 6 1 6 7
M  V30 7 2 7 8
M  V30 8 1 8 9
M  V30 9 2 9 10
M  V30 10 1 9 11
M  V30 11 1 11 12
M  V30 12 2 12 13
M  V30 13 1 13 14
M  V30 14 2 14 15
M  V30 15 1 15 16
M  V30 16 1 16 17
M  V30 17 1 17 18
M  V30 18 2 18 19
M  V30 19 1 18 20
M  V30 20 1 20 21
M  V30 21 1 21 22
M  V30 22 2 22 23
M  V30 23 1 23 24
M  V30 24 2 24 25
M  V30 25 1 25 26
M  V30 26 2 26 27
M  V30 27 1 26 28
M  V30 28 2 28 29
M  V30 29 1 29 30
M  V30 30 1 30 31
M  V30 31 2 31 32
M  V30 32 2 16 33
M  V30 33 1 8 34
M  V30 34 2 34 35
M  V30 35 1 35 5
M  V30 36 1 33 12
M  V30 37 1 32 22
M  V30 38 1 31 25
M  V30 39 1 1 36
M  V30 40 1 1 37
M  V30 41 1 1 38
M  V30 42 1 3 39
M  V30 43 1 3 40
M  V30 44 1 3 41
M  V30 45 1 4 42
M  V30 46 1 4 43
M  V30 47 1 4 44
M  V30 48 1 6 45
M  V30 49 1 7 46
M  V30 50 1 11 47
M  V30 51 1 13 48
M  V30 52 1 14 49
M  V30 53 1 15 50
M  V30 54 1 17 51
M  V30 55 1 20 52
M  V30 56 1 20 53
M  V30 57 1 23 54
M  V30 58 1 24 55
M  V30 59 1 28 56
M  V30 60 1 29 57
M  V30 61 1 32 58
M  V30 62 1 33 59
M  V30 63 1 34 60
M  V30 64 1 35 61
M  V30 END BOND
M  V30 END CTAB
M  END
>  <Dataset>  (659) 
ChEMBL_Kinases

>  <Ligand_Instance>  (659) 
nan

>  <PDB_ID>  (659) 
nan

>  <Standardized_SMILES>  (659) 
CC(C)(C)c1ccc(C(=O)Nc2cccc(NC(=O)COc3ccc4c(=O)ccoc4c3)c2)cc1

>  <Name>  (659) 
nan

>  <Pocket>  (659) 
nan

>  <ATP_Site>  (659) 
nan

>  <Peripheral>  (659) 
nan

>  <Num_H_Atoms_ProtBoundConf>  (659) 
nan

>  <Num_Resolved_Atoms>  (659) 
nan

>  <Num_Not_Resolved_Atoms>  (659) 
nan

$$$$
CHEMBL221071
     RDKit          3D

  0  0  0  0  0  0  0  0  0  0999 V3000
M  V30 BEGIN CTAB
M  V30 COUNTS 35 37 0 0 0
M  V30 BEGIN ATOM
M  V30 1 C -0.196529 -2.323954 0.296128 0
M  V30 2 C 0.831165 -2.282336 1.385186 0
M  V30 3 C 0.721308 -3.163473 2.434073 0
M  V30 4 C 1.664828 -3.121447 3.428862 0
M  V30 5 Cl 1.516160 -4.244715 4.756368 0
M  V30 6 C 2.663196 -2.207340 3.325546 0
M  V30 7 C 2.782347 -1.315297 2.272512 0
M  V30 8 C 1.831674 -1.339061 1.245482 0
M  V30 9 N 1.882870 -0.457578 0.130793 0
M  V30 10 N 0.832847 0.231238 -0.285352 0
M  V30 11 C 0.817612 1.069621 -1.318870 0
M  V30 12 S -0.672217 1.938823 -1.775246 0
M  V30 13 C -1.998777 1.471563 -0.641921 0
M  V30 14 C -2.087950 2.278511 0.474191 0
M  V30 15 C -3.059805 2.032797 1.424314 0
M  V30 16 C -3.935146 0.965594 1.230815 0
M  V30 17 F -4.906216 0.702609 2.158517 0
M  V30 18 C -3.834426 0.165605 0.108431 0
M  V30 19 C -2.865487 0.403871 -0.847169 0
M  V30 20 F -2.684148 -0.317618 -1.976283 0
M  V30 21 C 2.003388 1.251416 -2.039233 0
M  V30 22 C 3.137448 0.572801 -1.670817 0
M  V30 23 C 3.014963 -0.274190 -0.569142 0
M  V30 24 O 4.047744 -0.902106 -0.221335 0
M  V30 25 H -0.944280 -3.131180 0.502625 0
M  V30 26 H -0.816907 -1.389764 0.278931 0
M  V30 27 H 0.267128 -2.556405 -0.681158 0
M  V30 28 H -0.117754 -3.860788 2.426611 0
M  V30 29 H 3.424269 -2.167632 4.120249 0
M  V30 30 H 3.593059 -0.581331 2.199674 0
M  V30 31 H -1.450496 3.116605 0.690691 0
M  V30 32 H -3.171758 2.637761 2.319263 0
M  V30 33 H -4.485148 -0.671047 -0.089120 0
M  V30 34 H 2.023156 1.930433 -2.889677 0
M  V30 35 H 4.066043 0.666559 -2.174651 0
M  V30 END ATOM
M  V30 BEGIN BOND
M  V30 1 1 1 2
M  V30 2 2 2 3
M  V30 3 1 3 4
M  V30 4 1 4 5
M  V30 5 2 4 6
M  V30 6 1 6 7
M  V30 7 2 7 8
M  V30 8 1 8 9
M  V30 9 1 9 10
M  V30 10 2 10 11
M  V30 11 1 11 12
M  V30 12 1 12 13
M  V30 13 2 13 14
M  V30 14 1 14 15
M  V30 15 2 15 16
M  V30 16 1 16 17
M  V30 17 1 16 18
M  V30 18 2 18 19
M  V30 19 1 19 20
M  V30 20 1 11 21
M  V30 21 2 21 22
M  V30 22 1 22 23
M  V30 23 2 23 24
M  V30 24 1 8 2
M  V30 25 1 23 9
M  V30 26 1 19 13
M  V30 27 1 1 25
M  V30 28 1 1 26
M  V30 29 1 1 27
M  V30 30 1 3 28
M  V30 31 1 6 29
M  V30 32 1 7 30
M  V30 33 1 14 31
M  V30 34 1 15 32
M  V30 35 1 18 33
M  V30 36 1 21 34
M  V30 37 1 22 35
M  V30 END BOND
M  V30 END CTAB
M  END
>  <Dataset>  (660) 
ChEMBL_Kinases

>  <Ligand_Instance>  (660) 
nan

>  <PDB_ID>  (660) 
nan

>  <Standardized_SMILES>  (660) 
Cc1cc(Cl)ccc1-n1nc(Sc2ccc(F)cc2F)ccc1=O

>  <Name>  (660) 
nan

>  <Pocket>  (660) 
nan

>  <ATP_Site>  (660) 
nan

>  <Peripheral>  (660) 
nan

>  <Num_H_Atoms_ProtBoundConf>  (660) 
nan

>  <Num_Resolved_Atoms>  (660) 
nan

>  <Num_Not_Resolved_Atoms>  (660) 
nan

$$$$
CHEMBL3702174
     RDKit          3D

  0  0  0  0  0  0  0  0  0  0999 V3000
M  V30 BEGIN CTAB
M  V30 COUNTS 57 63 0 0 0
M  V30 BEGIN ATOM
M  V30 1 N 4.060759 -1.812934 4.185454 0
M  V30 2 C 4.116281 -3.108468 4.821270 0
M  V30 3 C 2.967967 -4.021024 4.655249 0 CFG=1
M  V30 4 C 2.070932 -3.712285 3.484404 0
M  V30 5 N 2.974178 -3.471970 2.352450 0
M  V30 6 C 2.838114 -2.500142 1.323385 0
M  V30 7 C 3.683280 -2.339691 0.242282 0
M  V30 8 C 3.436005 -1.356233 -0.690375 0
M  V30 9 C 2.345112 -0.498235 -0.585673 0
M  V30 10 N 2.027241 0.524301 -1.521697 0
M  V30 11 C 0.888149 1.370974 -1.315164 0
M  V30 12 N 0.945192 2.706704 -1.132574 0
M  V30 13 C -0.207849 3.375874 -0.941148 0
M  V30 14 C -1.397937 2.657281 -0.940796 0
M  V30 15 C -2.653510 3.211944 -0.756179 0
M  V30 16 C -3.245713 4.439407 -0.535465 0
M  V30 17 C -4.619964 4.565249 -0.401822 0
M  V30 18 N -5.355854 3.445214 -0.495226 0
M  V30 19 C -4.844323 2.220877 -0.708723 0
M  V30 20 C -3.480195 2.112792 -0.839134 0
M  V30 21 N -2.816254 0.966976 -1.055851 0
M  V30 22 C -3.062826 -0.422233 -1.223024 0
M  V30 23 C -2.518095 -0.935531 -2.566291 0
M  V30 24 C -2.885694 -2.417086 -2.381342 0
M  V30 25 C -4.256359 -2.360863 -1.739071 0
M  V30 26 C -4.463858 -0.881501 -1.335499 0
M  V30 27 C -1.489801 1.293652 -1.124117 0
M  V30 28 N -0.278558 0.712169 -1.308702 0
M  V30 29 N 1.557729 -0.710655 0.498479 0
M  V30 30 N 1.792613 -1.654695 1.396275 0
M  V30 31 C 3.992586 -4.472820 2.589402 0
M  V30 32 C 4.324930 -4.361061 4.060580 0 CFG=1
M  V30 33 H 3.039477 -1.563891 4.082770 0
M  V30 34 H 4.517281 -1.059580 4.744292 0
M  V30 35 H 4.622433 -3.102191 5.819066 0
M  V30 36 H 2.649438 -4.748745 5.432607 0
M  V30 37 H 1.402106 -4.586403 3.249474 0
M  V30 38 H 1.478844 -2.794764 3.638322 0
M  V30 39 H 4.517209 -3.010841 0.181961 0
M  V30 40 H 4.095417 -1.222584 -1.543190 0
M  V30 41 H 2.678052 0.594165 -2.337523 0
M  V30 42 H -0.176425 4.444421 -0.794172 0
M  V30 43 H -2.544551 5.287501 -0.477176 0
M  V30 44 H -5.042277 5.550762 -0.229714 0
M  V30 45 H -5.521733 1.387917 -0.767644 0
M  V30 46 H -2.508810 -1.007719 -0.449080 0
M  V30 47 H -1.438074 -0.869539 -2.650936 0
M  V30 48 H -3.115112 -0.593369 -3.414095 0
M  V30 49 H -2.839841 -2.975847 -3.313675 0
M  V30 50 H -2.130495 -2.791967 -1.632194 0
M  V30 51 H -4.233410 -2.919529 -0.772083 0
M  V30 52 H -5.055022 -2.705029 -2.424971 0
M  V30 53 H -5.037378 -0.860511 -0.386055 0
M  V30 54 H -5.004449 -0.441293 -2.171632 0
M  V30 55 H 3.490893 -5.475182 2.475189 0
M  V30 56 H 4.857764 -4.422720 1.934013 0
M  V30 57 H 4.916399 -5.192800 4.486175 0
M  V30 END ATOM
M  V30 BEGIN BOND
M  V30 1 1 1 2
M  V30 2 1 2 3
M  V30 3 1 3 4
M  V30 4 1 4 5
M  V30 5 1 5 6
M  V30 6 2 6 7
M  V30 7 1 7 8
M  V30 8 2 8 9
M  V30 9 1 9 10
M  V30 10 1 10 11
M  V30 11 2 11 12
M  V30 12 1 12 13
M  V30 13 2 13 14
M  V30 14 1 14 15
M  V30 15 2 15 16
M  V30 16 1 16 17
M  V30 17 2 17 18
M  V30 18 1 18 19
M  V30 19 2 19 20
M  V30 20 1 20 21
M  V30 21 1 21 22
M  V30 22 1 22 23
M  V30 23 1 23 24
M  V30 24 1 24 25
M  V30 25 1 25 26
M  V30 26 1 21 27
M  V30 27 2 27 28
M  V30 28 1 9 29
M  V30 29 2 29 30
M  V30 30 1 5 31
M  V30 31 1 31 32
M  V30 32 1 32 2
M  V30 33 1 32 3
M  V30 34 1 30 6
M  V30 35 1 28 11
M  V30 36 1 27 14
M  V30 37 1 20 15
M  V30 38 1 26 22
M  V30 39 1 1 33
M  V30 40 1 1 34
M  V30 41 1 2 35
M  V30 42 1 3 36 CFG=1
M  V30 43 1 4 37
M  V30 44 1 4 38
M  V30 45 1 7 39
M  V30 46 1 8 40
M  V30 47 1 10 41
M  V30 48 1 13 42
M  V30 49 1 16 43
M  V30 50 1 17 44
M  V30 51 1 19 45
M  V30 52 1 22 46
M  V30 53 1 23 47
M  V30 54 1 23 48
M  V30 55 1 24 49
M  V30 56 1 24 50
M  V30 57 1 25 51
M  V30 58 1 25 52
M  V30 59 1 26 53
M  V30 60 1 26 54
M  V30 61 1 31 55
M  V30 62 1 31 56
M  V30 63 1 32 57 CFG=1
M  V30 END BOND
M  V30 END CTAB
M  END
>  <Dataset>  (661) 
ChEMBL_Kinases

>  <Ligand_Instance>  (661) 
nan

>  <PDB_ID>  (661) 
nan

>  <Standardized_SMILES>  (661) 
NC1[C@H]2CN(c3ccc(Nc4ncc5c6ccncc6n(C6CCCC6)c5n4)nn3)C[C@@H]12

>  <Name>  (661) 
nan

>  <Pocket>  (661) 
nan

>  <ATP_Site>  (661) 
nan

>  <Peripheral>  (661) 
nan

>  <Num_H_Atoms_ProtBoundConf>  (661) 
nan

>  <Num_Resolved_Atoms>  (661) 
nan

>  <Num_Not_Resolved_Atoms>  (661) 
nan

$$$$
CHEMBL221075
     RDKit          3D

  0  0  0  0  0  0  0  0  0  0999 V3000
M  V30 BEGIN CTAB
M  V30 COUNTS 45 47 0 0 0
M  V30 BEGIN ATOM
M  V30 1 C 4.122671 -1.539691 5.246751 0
M  V30 2 S 5.361505 -0.930137 4.134646 0
M  V30 3 O 6.043436 0.232795 4.833710 0
M  V30 4 O 6.323521 -2.047678 3.855716 0
M  V30 5 C 4.558879 -0.386929 2.660408 0
M  V30 6 C 4.132262 0.920037 2.526370 0
M  V30 7 C 3.499329 1.350988 1.375858 0
M  V30 8 C 3.283888 0.472888 0.337271 0
M  V30 9 C 2.630632 0.706125 -0.976203 0
M  V30 10 N 1.221478 0.424917 -0.840822 0
M  V30 11 C 0.242509 1.254550 -0.240793 0
M  V30 12 O 0.565189 2.376010 0.247016 0
M  V30 13 C -1.158861 0.823799 -0.177545 0
M  V30 14 C -2.105958 1.647515 0.398127 0
M  V30 15 C -3.441086 1.326365 0.498867 0
M  V30 16 N -4.415921 2.181946 1.094786 0
M  V30 17 C -3.853007 0.100825 -0.009979 0
M  V30 18 C -5.231125 -0.324177 0.049722 0
M  V30 19 N -6.330037 -0.679584 0.109578 0
M  V30 20 C -2.902337 -0.720309 -0.585050 0
M  V30 21 C -3.262207 -2.020498 -1.135380 0
M  V30 22 C -2.382005 -3.041614 -0.766064 0
M  V30 23 N -2.577884 -4.304335 -1.193419 0
M  V30 24 C -3.647880 -4.580737 -1.994028 0
M  V30 25 N -4.521408 -3.603671 -2.369033 0
M  V30 26 C -4.328741 -2.347340 -1.945165 0
M  V30 27 N -1.585394 -0.376659 -0.671589 0
M  V30 28 C 3.726389 -0.842494 0.501201 0
M  V30 29 C 4.362885 -1.295673 1.645900 0
M  V30 30 H 3.207577 -0.916953 5.210472 0
M  V30 31 H 3.811338 -2.577380 4.996486 0
M  V30 32 H 4.483752 -1.546738 6.284382 0
M  V30 33 H 4.280776 1.640864 3.316033 0
M  V30 34 H 3.137879 2.340576 1.183393 0
M  V30 35 H 2.793691 1.765906 -1.273616 0
M  V30 36 H 3.091284 0.103153 -1.771101 0
M  V30 37 H 0.886088 -0.471642 -1.218724 0
M  V30 38 H -1.780260 2.594094 0.789388 0
M  V30 39 H -4.661398 1.764189 2.025801 0
M  V30 40 H -4.820503 3.072738 0.681159 0
M  V30 41 H -1.507928 -2.884430 -0.127611 0
M  V30 42 H -3.765878 -5.615053 -2.315268 0
M  V30 43 H -4.968003 -1.504275 -2.189985 0
M  V30 44 H 3.609054 -1.613353 -0.250470 0
M  V30 45 H 4.700644 -2.301933 1.768951 0
M  V30 END ATOM
M  V30 BEGIN BOND
M  V30 1 1 1 2
M  V30 2 2 2 3
M  V30 3 2 2 4
M  V30 4 1 2 5
M  V30 5 2 5 6
M  V30 6 1 6 7
M  V30 7 2 7 8
M  V30 8 1 8 9
M  V30 9 1 9 10
M  V30 10 1 10 11
M  V30 11 2 11 12
M  V30 12 1 11 13
M  V30 13 2 13 14
M  V30 14 1 14 15
M  V30 15 1 15 16
M  V30 16 2 15 17
M  V30 17 1 17 18
M  V30 18 3 18 19
M  V30 19 1 17 20
M  V30 20 1 20 21
M  V30 21 2 21 22
M  V30 22 1 22 23
M  V30 23 2 23 24
M  V30 24 1 24 25
M  V30 25 2 25 26
M  V30 26 2 20 27
M  V30 27 1 8 28
M  V30 28 2 28 29
M  V30 29 1 29 5
M  V30 30 1 27 13
M  V30 31 1 26 21
M  V30 32 1 1 30
M  V30 33 1 1 31
M  V30 34 1 1 32
M  V30 35 1 6 33
M  V30 36 1 7 34
M  V30 37 1 9 35
M  V30 38 1 9 36
M  V30 39 1 10 37
M  V30 40 1 14 38
M  V30 41 1 16 39
M  V30 42 1 16 40
M  V30 43 1 22 41
M  V30 44 1 24 42
M  V30 45 1 26 43
M  V30 46 1 28 44
M  V30 47 1 29 45
M  V30 END BOND
M  V30 END CTAB
M  END
>  <Dataset>  (662) 
ChEMBL_Kinases

>  <Ligand_Instance>  (662) 
nan

>  <PDB_ID>  (662) 
nan

>  <Standardized_SMILES>  (662) 
CS(=O)(=O)c1ccc(CNC(=O)c2cc(N)c(C#N)c(-c3cncnc3)n2)cc1

>  <Name>  (662) 
nan

>  <Pocket>  (662) 
nan

>  <ATP_Site>  (662) 
nan

>  <Peripheral>  (662) 
nan

>  <Num_H_Atoms_ProtBoundConf>  (662) 
nan

>  <Num_Resolved_Atoms>  (662) 
nan

>  <Num_Not_Resolved_Atoms>  (662) 
nan

$$$$
CHEMBL3702167
     RDKit          3D

  0  0  0  0  0  0  0  0  0  0999 V3000
M  V30 BEGIN CTAB
M  V30 COUNTS 57 62 0 0 0
M  V30 BEGIN ATOM
M  V30 1 O 3.918440 -5.139477 -3.806008 0
M  V30 2 S 4.742068 -3.910478 -4.046401 0
M  V30 3 O 5.900753 -4.293306 -4.914793 0
M  V30 4 C 5.338759 -3.190051 -2.532416 0
M  V30 5 C 4.342079 -2.237882 -1.971216 0
M  V30 6 C 3.739065 -1.354212 -2.780792 0
M  V30 7 C 2.770536 -0.435142 -2.224844 0
M  V30 8 C 2.393443 -0.390779 -0.912282 0
M  V30 9 C 1.463220 0.478165 -0.381826 0
M  V30 10 C 0.849797 1.384073 -1.218729 0
M  V30 11 N -0.127395 2.282297 -0.708419 0
M  V30 12 C -0.455896 2.223874 0.672880 0
M  V30 13 N -0.062516 2.969649 1.721806 0
M  V30 14 C -0.508547 2.719212 2.962999 0
M  V30 15 C -1.388646 1.693897 3.241194 0
M  V30 16 C -2.030147 1.176331 4.376969 0
M  V30 17 C -1.931785 1.624256 5.667447 0
M  V30 18 C -2.700561 0.904918 6.592253 0
M  V30 19 N -3.456372 -0.142497 6.156985 0
M  V30 20 C -3.499655 -0.521897 4.870260 0
M  V30 21 C -2.768546 0.131940 3.870207 0
M  V30 22 N -2.652695 -0.047648 2.553996 0
M  V30 23 C -3.268784 -1.028640 1.720192 0
M  V30 24 C -4.764274 -1.035928 1.717131 0
M  V30 25 C -5.159360 -2.471312 1.423594 0
M  V30 26 C -3.874098 -3.264668 1.289067 0
M  V30 27 C -2.798589 -2.445457 1.965063 0
M  V30 28 C -1.791333 0.929724 2.166719 0
M  V30 29 N -1.314405 1.221690 0.938774 0
M  V30 30 N 1.195221 1.372892 -2.520497 0
M  V30 31 C 2.118862 0.496974 -3.000531 0
M  V30 32 C 4.106655 -1.378134 -4.206132 0
M  V30 33 C 3.725781 -2.706502 -4.890004 0
M  V30 34 H 5.465089 -4.016978 -1.809489 0
M  V30 35 H 6.340718 -2.741642 -2.687819 0
M  V30 36 H 4.151938 -2.308975 -0.908954 0
M  V30 37 H 2.813024 -1.056775 -0.178313 0
M  V30 38 H 1.178757 0.496768 0.658943 0
M  V30 39 H -0.583395 2.970630 -1.370002 0
M  V30 40 H -0.171043 3.337356 3.772274 0
M  V30 41 H -1.306564 2.466511 5.929635 0
M  V30 42 H -2.660934 1.215881 7.625144 0
M  V30 43 H -4.123209 -1.371930 4.577927 0
M  V30 44 H -2.980973 -0.833920 0.642160 0
M  V30 45 H -5.180357 -0.425496 0.861172 0
M  V30 46 H -5.247567 -0.614603 2.608187 0
M  V30 47 H -5.785741 -2.821677 2.271790 0
M  V30 48 H -5.756515 -2.567317 0.481685 0
M  V30 49 H -3.969619 -4.287798 1.710503 0
M  V30 50 H -3.622179 -3.375045 0.214891 0
M  V30 51 H -2.618019 -2.701469 3.006003 0
M  V30 52 H -1.838141 -2.647744 1.406250 0
M  V30 53 H 2.274680 0.619266 -4.040636 0
M  V30 54 H 5.234782 -1.349365 -4.311740 0
M  V30 55 H 3.661253 -0.590396 -4.799906 0
M  V30 56 H 4.074240 -2.610301 -5.937178 0
M  V30 57 H 2.660715 -2.914614 -4.824082 0
M  V30 END ATOM
M  V30 BEGIN BOND
M  V30 1 2 1 2
M  V30 2 2 2 3
M  V30 3 1 2 4
M  V30 4 1 4 5
M  V30 5 2 5 6
M  V30 6 1 6 7
M  V30 7 2 7 8
M  V30 8 1 8 9
M  V30 9 2 9 10
M  V30 10 1 10 11
M  V30 11 1 11 12
M  V30 12 2 12 13
M  V30 13 1 13 14
M  V30 14 2 14 15
M  V30 15 1 15 16
M  V30 16 2 16 17
M  V30 17 1 17 18
M  V30 18 2 18 19
M  V30 19 1 19 20
M  V30 20 2 20 21
M  V30 21 1 21 22
M  V30 22 1 22 23
M  V30 23 1 23 24
M  V30 24 1 24 25
M  V30 25 1 25 26
M  V30 26 1 26 27
M  V30 27 1 22 28
M  V30 28 2 28 29
M  V30 29 1 10 30
M  V30 30 2 30 31
M  V30 31 1 6 32
M  V30 32 1 32 33
M  V30 33 1 33 2
M  V30 34 1 31 7
M  V30 35 1 29 12
M  V30 36 1 28 15
M  V30 37 1 21 16
M  V30 38 1 27 23
M  V30 39 1 4 34
M  V30 40 1 4 35
M  V30 41 1 5 36
M  V30 42 1 8 37
M  V30 43 1 9 38
M  V30 44 1 11 39
M  V30 45 1 14 40
M  V30 46 1 17 41
M  V30 47 1 18 42
M  V30 48 1 20 43
M  V30 49 1 23 44
M  V30 50 1 24 45
M  V30 51 1 24 46
M  V30 52 1 25 47
M  V30 53 1 25 48
M  V30 54 1 26 49
M  V30 55 1 26 50
M  V30 56 1 27 51
M  V30 57 1 27 52
M  V30 58 1 31 53
M  V30 59 1 32 54
M  V30 60 1 32 55
M  V30 61 1 33 56
M  V30 62 1 33 57
M  V30 END BOND
M  V30 END CTAB
M  END
>  <Dataset>  (663) 
ChEMBL_Kinases

>  <Ligand_Instance>  (663) 
nan

>  <PDB_ID>  (663) 
nan

>  <Standardized_SMILES>  (663) 
O=S1(=O)CC=C(c2ccc(Nc3ncc4c5ccncc5n(C5CCCC5)c4n3)nc2)CC1

>  <Name>  (663) 
nan

>  <Pocket>  (663) 
nan

>  <ATP_Site>  (663) 
nan

>  <Peripheral>  (663) 
nan

>  <Num_H_Atoms_ProtBoundConf>  (663) 
nan

>  <Num_Resolved_Atoms>  (663) 
nan

>  <Num_Not_Resolved_Atoms>  (663) 
nan

$$$$
CHEMBL4560679
     RDKit          3D

  0  0  0  0  0  0  0  0  0  0999 V3000
M  V30 BEGIN CTAB
M  V30 COUNTS 45 47 0 0 0
M  V30 BEGIN ATOM
M  V30 1 C 2.837074 -2.864704 1.050490 0
M  V30 2 O 2.893272 -1.707411 0.249089 0
M  V30 3 C 4.005712 -1.242936 -0.413080 0
M  V30 4 C 5.237777 -1.891172 -0.360000 0
M  V30 5 C 6.353183 -1.440228 -1.014319 0
M  V30 6 F 7.536137 -2.088807 -0.944741 0
M  V30 7 C 6.231128 -0.290879 -1.754080 0
M  V30 8 C 5.010508 0.339684 -1.798949 0
M  V30 9 C 3.864975 -0.087485 -1.151098 0
M  V30 10 C 2.659104 0.709023 -1.318339 0
M  V30 11 N 2.740218 1.785323 -2.118399 0
M  V30 12 C 1.697617 2.592807 -2.351150 0
M  V30 13 N 0.518714 2.340851 -1.777352 0
M  V30 14 C 0.386347 1.264177 -0.959665 0
M  V30 15 N -0.891277 1.040885 -0.389567 0
M  V30 16 C -1.329291 0.060447 0.539213 0
M  V30 17 C -0.512428 -0.804709 1.232140 0
M  V30 18 C -0.891790 -1.769087 2.120715 0
M  V30 19 C -2.245233 -1.888088 2.348374 0
M  V30 20 C -3.131566 -1.064256 1.698943 0
M  V30 21 C -4.593708 -1.180787 1.936131 0
M  V30 22 S -5.005400 -0.098473 3.276816 0 CFG=1 VAL=6
M  V30 23 C -4.099458 -0.598778 4.699839 0
M  V30 24 N -4.499801 1.332562 2.865794 0
M  V30 25 O -6.477464 -0.007763 3.513659 0
M  V30 26 C -2.667376 -0.120020 0.820361 0
M  V30 27 N 1.466878 0.474557 -0.752253 0
M  V30 28 H 3.823450 -3.015198 1.529803 0
M  V30 29 H 2.110965 -2.731445 1.904017 0
M  V30 30 H 2.460641 -3.764710 0.514206 0
M  V30 31 H 5.354199 -2.801618 0.218533 0
M  V30 32 H 7.111873 0.059486 -2.266803 0
M  V30 33 H 5.042300 1.246696 -2.422799 0
M  V30 34 H 1.754884 3.459424 -2.993189 0
M  V30 35 H -1.663345 1.693799 -0.682140 0
M  V30 36 H 0.547991 -0.715772 1.068627 0
M  V30 37 H -0.167471 -2.404446 2.617804 0
M  V30 38 H -2.620078 -2.624145 3.034231 0
M  V30 39 H -4.800204 -2.227061 2.260416 0
M  V30 40 H -5.117443 -0.926607 0.994424 0
M  V30 41 H -4.587229 -0.091463 5.577392 0
M  V30 42 H -3.061519 -0.253782 4.575248 0
M  V30 43 H -4.091669 -1.700549 4.846186 0
M  V30 44 H -4.953266 2.118116 3.366830 0
M  V30 45 H -3.409097 0.511536 0.328788 0
M  V30 END ATOM
M  V30 BEGIN BOND
M  V30 1 1 1 2
M  V30 2 1 2 3
M  V30 3 2 3 4
M  V30 4 1 4 5
M  V30 5 1 5 6
M  V30 6 2 5 7
M  V30 7 1 7 8
M  V30 8 2 8 9
M  V30 9 1 9 10
M  V30 10 2 10 11
M  V30 11 1 11 12
M  V30 12 2 12 13
M  V30 13 1 13 14
M  V30 14 1 14 15
M  V30 15 1 15 16
M  V30 16 2 16 17
M  V30 17 1 17 18
M  V30 18 2 18 19
M  V30 19 1 19 20
M  V30 20 1 20 21
M  V30 21 1 22 21 CFG=3
M  V30 22 1 22 23
M  V30 23 2 22 24
M  V30 24 2 22 25
M  V30 25 2 20 26
M  V30 26 2 14 27
M  V30 27 1 9 3
M  V30 28 1 27 10
M  V30 29 1 26 16
M  V30 30 1 1 28
M  V30 31 1 1 29
M  V30 32 1 1 30
M  V30 33 1 4 31
M  V30 34 1 7 32
M  V30 35 1 8 33
M  V30 36 1 12 34
M  V30 37 1 15 35
M  V30 38 1 17 36
M  V30 39 1 18 37
M  V30 40 1 19 38
M  V30 41 1 21 39
M  V30 42 1 21 40
M  V30 43 1 23 41
M  V30 44 1 23 42
M  V30 45 1 23 43
M  V30 46 1 24 44
M  V30 47 1 26 45
M  V30 END BOND
M  V30 END CTAB
M  END
>  <Dataset>  (664) 
ChEMBL_Kinases

>  <Ligand_Instance>  (664) 
nan

>  <PDB_ID>  (664) 
nan

>  <Standardized_SMILES>  (664) 
COc1cc(F)ccc1-c1ncnc(Nc2cccc(C[S@@](C)(=N)=O)c2)n1

>  <Name>  (664) 
nan

>  <Pocket>  (664) 
nan

>  <ATP_Site>  (664) 
nan

>  <Peripheral>  (664) 
nan

>  <Num_H_Atoms_ProtBoundConf>  (664) 
nan

>  <Num_Resolved_Atoms>  (664) 
nan

>  <Num_Not_Resolved_Atoms>  (664) 
nan

$$$$
CHEMBL220758
     RDKit          3D

  0  0  0  0  0  0  0  0  0  0999 V3000
M  V30 BEGIN CTAB
M  V30 COUNTS 55 57 0 0 0
M  V30 BEGIN ATOM
M  V30 1 C 4.935616 -4.160003 1.535585 0
M  V30 2 S 5.697633 -3.348327 0.135383 0
M  V30 3 O 7.082960 -2.882929 0.476552 0
M  V30 4 O 5.787849 -4.361382 -0.949043 0
M  V30 5 C 4.726512 -1.989645 -0.389127 0
M  V30 6 C 4.902396 -0.738767 0.116118 0
M  V30 7 C 4.129272 0.321030 -0.307979 0
M  V30 8 C 3.140665 0.183891 -1.258990 0
M  V30 9 C 2.260444 1.266875 -1.771984 0
M  V30 10 N 1.048935 1.341083 -0.976308 0
M  V30 11 C 0.894199 1.885614 0.304990 0
M  V30 12 O 1.890545 2.386149 0.888684 0
M  V30 13 C -0.392923 1.895346 0.998763 0
M  V30 14 C -0.511974 2.432319 2.262989 0
M  V30 15 C -1.719794 2.447505 2.931542 0
M  V30 16 N -1.834676 3.005577 4.242059 0
M  V30 17 C -2.810065 1.908121 2.297282 0
M  V30 18 C -4.065566 1.918099 2.979229 0
M  V30 19 N -5.068781 1.945444 3.529480 0
M  V30 20 C -2.710453 1.358469 1.015038 0
M  V30 21 N -3.831707 0.801017 0.356683 0
M  V30 22 C -3.784286 0.223918 -0.961514 0
M  V30 23 C -2.836243 -0.951564 -1.041099 0
M  V30 24 C -3.207108 -2.047548 -0.127679 0
M  V30 25 C -2.774521 -2.195258 1.173014 0
M  V30 26 C -3.131447 -3.225651 2.015523 0
M  V30 27 C -3.998630 -4.189559 1.503037 0
M  V30 28 C -4.452790 -4.067491 0.192319 0
M  V30 29 C -4.076769 -3.023085 -0.626867 0
M  V30 30 N -1.496966 1.376257 0.417281 0
M  V30 31 C 2.995811 -1.114739 -1.748709 0
M  V30 32 C 3.766717 -2.195898 -1.332580 0
M  V30 33 H 4.420729 -5.093730 1.261998 0
M  V30 34 H 5.690261 -4.422204 2.285525 0
M  V30 35 H 4.186061 -3.473772 1.983607 0
M  V30 36 H 5.670326 -0.580793 0.868997 0
M  V30 37 H 4.280499 1.310299 0.100177 0
M  V30 38 H 2.004069 0.986313 -2.802606 0
M  V30 39 H 2.801333 2.248586 -1.756534 0
M  V30 40 H 0.150534 0.942448 -1.385647 0
M  V30 41 H 0.358458 2.842378 2.723256 0
M  V30 42 H -1.330334 2.462299 4.991868 0
M  V30 43 H -2.397748 3.888179 4.346522 0
M  V30 44 H -4.754497 0.813706 0.871136 0
M  V30 45 H -3.366111 0.993080 -1.656958 0
M  V30 46 H -4.778672 -0.035204 -1.316964 0
M  V30 47 H -1.793170 -0.636779 -0.816630 0
M  V30 48 H -2.795812 -1.358489 -2.071668 0
M  V30 49 H -2.100440 -1.425615 1.535956 0
M  V30 50 H -2.781375 -3.313482 3.015176 0
M  V30 51 H -4.312416 -5.022519 2.122652 0
M  V30 52 H -5.120617 -4.848296 -0.138999 0
M  V30 53 H -4.451324 -2.953709 -1.655174 0
M  V30 54 H 2.237440 -1.290643 -2.497663 0
M  V30 55 H 3.573034 -3.177853 -1.780451 0
M  V30 END ATOM
M  V30 BEGIN BOND
M  V30 1 1 1 2
M  V30 2 2 2 3
M  V30 3 2 2 4
M  V30 4 1 2 5
M  V30 5 2 5 6
M  V30 6 1 6 7
M  V30 7 2 7 8
M  V30 8 1 8 9
M  V30 9 1 9 10
M  V30 10 1 10 11
M  V30 11 2 11 12
M  V30 12 1 11 13
M  V30 13 2 13 14
M  V30 14 1 14 15
M  V30 15 1 15 16
M  V30 16 2 15 17
M  V30 17 1 17 18
M  V30 18 3 18 19
M  V30 19 1 17 20
M  V30 20 1 20 21
M  V30 21 1 21 22
M  V30 22 1 22 23
M  V30 23 1 23 24
M  V30 24 2 24 25
M  V30 25 1 25 26
M  V30 26 2 26 27
M  V30 27 1 27 28
M  V30 28 2 28 29
M  V30 29 2 20 30
M  V30 30 1 8 31
M  V30 31 2 31 32
M  V30 32 1 32 5
M  V30 33 1 30 13
M  V30 34 1 29 24
M  V30 35 1 1 33
M  V30 36 1 1 34
M  V30 37 1 1 35
M  V30 38 1 6 36
M  V30 39 1 7 37
M  V30 40 1 9 38
M  V30 41 1 9 39
M  V30 42 1 10 40
M  V30 43 1 14 41
M  V30 44 1 16 42
M  V30 45 1 16 43
M  V30 46 1 21 44
M  V30 47 1 22 45
M  V30 48 1 22 46
M  V30 49 1 23 47
M  V30 50 1 23 48
M  V30 51 1 25 49
M  V30 52 1 26 50
M  V30 53 1 27 51
M  V30 54 1 28 52
M  V30 55 1 29 53
M  V30 56 1 31 54
M  V30 57 1 32 55
M  V30 END BOND
M  V30 END CTAB
M  END
>  <Dataset>  (665) 
ChEMBL_Kinases

>  <Ligand_Instance>  (665) 
nan

>  <PDB_ID>  (665) 
nan

>  <Standardized_SMILES>  (665) 
CS(=O)(=O)c1ccc(CNC(=O)c2cc(N)c(C#N)c(NCCc3ccccc3)n2)cc1

>  <Name>  (665) 
nan

>  <Pocket>  (665) 
nan

>  <ATP_Site>  (665) 
nan

>  <Peripheral>  (665) 
nan

>  <Num_H_Atoms_ProtBoundConf>  (665) 
nan

>  <Num_Resolved_Atoms>  (665) 
nan

>  <Num_Not_Resolved_Atoms>  (665) 
nan

$$$$
CHEMBL2207988
     RDKit          3D

  0  0  0  0  0  0  0  0  0  0999 V3000
M  V30 BEGIN CTAB
M  V30 COUNTS 30 33 0 0 0
M  V30 BEGIN ATOM
M  V30 1 C 0.949744 -1.542228 3.955472 0
M  V30 2 C 0.898828 -2.563684 2.877894 0
M  V30 3 C 1.078499 -3.991801 3.042147 0
M  V30 4 S 0.876188 -4.587007 1.254671 0
M  V30 5 C 0.605819 -2.861466 0.699386 0
M  V30 6 C 0.361071 -2.645443 -0.781368 0
M  V30 7 N 0.314092 -3.559810 -1.758104 0
M  V30 8 C 0.070884 -2.949953 -2.941413 0
M  V30 9 N -0.025103 -1.639344 -2.632851 0
M  V30 10 C 0.147636 -1.413299 -1.314732 0
M  V30 11 C 0.116631 -0.143200 -0.606678 0
M  V30 12 C 0.950695 0.933181 -0.809393 0
M  V30 13 C 0.902128 2.122487 -0.127882 0
M  V30 14 C -0.056815 2.289142 0.856392 0
M  V30 15 N -0.199092 3.399740 1.583374 0
M  V30 16 C -1.058140 3.515833 2.447479 0
M  V30 17 S -1.974561 1.826229 2.399039 0
M  V30 18 C -0.927444 1.184432 1.078113 0
M  V30 19 C -0.838903 0.018809 0.371946 0
M  V30 20 N 0.673176 -2.191041 1.638034 0
M  V30 21 H 1.802709 -0.857101 3.762946 0
M  V30 22 H 0.987381 -2.002683 4.951634 0
M  V30 23 H 0.011248 -0.914009 3.953686 0
M  V30 24 H 1.288055 -4.341916 4.189279 0
M  V30 25 H -0.018007 -3.447893 -3.896417 0
M  V30 26 H -0.212588 -0.920077 -3.364613 0
M  V30 27 H 1.703031 0.770690 -1.598606 0
M  V30 28 H 1.640932 2.859581 -0.423299 0
M  V30 29 H -1.285395 4.337747 3.099344 0
M  V30 30 H -1.579824 -0.703056 0.677422 0
M  V30 END ATOM
M  V30 BEGIN BOND
M  V30 1 1 1 2
M  V30 2 2 2 3
M  V30 3 1 3 4
M  V30 4 1 4 5
M  V30 5 1 5 6
M  V30 6 1 6 7
M  V30 7 2 7 8
M  V30 8 1 8 9
M  V30 9 1 9 10
M  V30 10 1 10 11
M  V30 11 2 11 12
M  V30 12 1 12 13
M  V30 13 2 13 14
M  V30 14 1 14 15
M  V30 15 2 15 16
M  V30 16 1 16 17
M  V30 17 1 17 18
M  V30 18 2 18 19
M  V30 19 2 5 20
M  V30 20 1 20 2
M  V30 21 2 10 6
M  V30 22 1 19 11
M  V30 23 1 18 14
M  V30 24 1 1 21
M  V30 25 1 1 22
M  V30 26 1 1 23
M  V30 27 1 3 24
M  V30 28 1 8 25
M  V30 29 1 9 26
M  V30 30 1 12 27
M  V30 31 1 13 28
M  V30 32 1 16 29
M  V30 33 1 19 30
M  V30 END BOND
M  V30 END CTAB
M  END
>  <Dataset>  (666) 
ChEMBL_Kinases

>  <Ligand_Instance>  (666) 
nan

>  <PDB_ID>  (666) 
nan

>  <Standardized_SMILES>  (666) 
Cc1csc(-c2nc[nH]c2-c2ccc3ncsc3c2)n1

>  <Name>  (666) 
nan

>  <Pocket>  (666) 
nan

>  <ATP_Site>  (666) 
nan

>  <Peripheral>  (666) 
nan

>  <Num_H_Atoms_ProtBoundConf>  (666) 
nan

>  <Num_Resolved_Atoms>  (666) 
nan

>  <Num_Not_Resolved_Atoms>  (666) 
nan

$$$$
CHEMBL4559701
     RDKit          3D

  0  0  0  0  0  0  0  0  0  0999 V3000
M  V30 BEGIN CTAB
M  V30 COUNTS 34 36 0 0 0
M  V30 BEGIN ATOM
M  V30 1 C -0.828674 -2.069957 3.080130 0
M  V30 2 C 0.454077 -2.661499 2.526573 0
M  V30 3 C 0.151985 -4.078830 2.107636 0
M  V30 4 C 1.446622 -2.629059 3.593566 0
M  V30 5 N 2.239663 -2.619882 4.429187 0
M  V30 6 C 0.892607 -1.831988 1.374611 0
M  V30 7 C 2.072306 -2.256846 0.754858 0
M  V30 8 C 2.515457 -1.513947 -0.320289 0
M  V30 9 C 1.803891 -0.408168 -0.739383 0
M  V30 10 C 0.625300 0.012795 -0.116973 0
M  V30 11 C -0.042231 1.198004 -0.646755 0
M  V30 12 C 0.817320 2.254011 -0.911195 0
M  V30 13 C 0.276883 3.436122 -1.420395 0
M  V30 14 N -1.038919 3.563676 -1.653751 0
M  V30 15 C -1.879644 2.543682 -1.399851 0
M  V30 16 N -3.223836 2.331505 -1.513334 0
M  V30 17 N -3.513255 1.087205 -1.099394 0
M  V30 18 C -2.387917 0.454834 -0.708134 0
M  V30 19 C -1.389361 1.356738 -0.896003 0
M  V30 20 C 0.189866 -0.736007 0.957080 0
M  V30 21 H -0.596192 -1.012907 3.393330 0
M  V30 22 H -1.168415 -2.616497 3.987741 0
M  V30 23 H -1.624711 -2.029815 2.310089 0
M  V30 24 H -0.425584 -4.573030 2.892084 0
M  V30 25 H -0.491719 -3.989138 1.205784 0
M  V30 26 H 1.067954 -4.633375 1.812940 0
M  V30 27 H 2.622180 -3.118839 1.085686 0
M  V30 28 H 3.430945 -1.813036 -0.829798 0
M  V30 29 H 2.229796 0.120179 -1.599419 0
M  V30 30 H 1.891445 2.265879 -0.763149 0
M  V30 31 H 0.821115 4.352344 -1.678416 0
M  V30 32 H -3.905069 3.046222 -1.871566 0
M  V30 33 H -2.319673 -0.551462 -0.330749 0
M  V30 34 H -0.715818 -0.422400 1.445502 0
M  V30 END ATOM
M  V30 BEGIN BOND
M  V30 1 1 1 2
M  V30 2 1 2 3
M  V30 3 1 2 4
M  V30 4 3 4 5
M  V30 5 1 2 6
M  V30 6 2 6 7
M  V30 7 1 7 8
M  V30 8 2 8 9
M  V30 9 1 9 10
M  V30 10 1 10 11
M  V30 11 2 11 12
M  V30 12 1 12 13
M  V30 13 2 13 14
M  V30 14 1 14 15
M  V30 15 1 15 16
M  V30 16 1 16 17
M  V30 17 2 17 18
M  V30 18 1 18 19
M  V30 19 2 10 20
M  V30 20 1 20 6
M  V30 21 1 19 11
M  V30 22 2 19 15
M  V30 23 1 1 21
M  V30 24 1 1 22
M  V30 25 1 1 23
M  V30 26 1 3 24
M  V30 27 1 3 25
M  V30 28 1 3 26
M  V30 29 1 7 27
M  V30 30 1 8 28
M  V30 31 1 9 29
M  V30 32 1 12 30
M  V30 33 1 13 31
M  V30 34 1 16 32
M  V30 35 1 18 33
M  V30 36 1 20 34
M  V30 END BOND
M  V30 END CTAB
M  END
>  <Dataset>  (667) 
ChEMBL_Kinases

>  <Ligand_Instance>  (667) 
nan

>  <PDB_ID>  (667) 
nan

>  <Standardized_SMILES>  (667) 
CC(C)(C#N)c1cccc(-c2ccnc3[nH]ncc23)c1

>  <Name>  (667) 
nan

>  <Pocket>  (667) 
nan

>  <ATP_Site>  (667) 
nan

>  <Peripheral>  (667) 
nan

>  <Num_H_Atoms_ProtBoundConf>  (667) 
nan

>  <Num_Resolved_Atoms>  (667) 
nan

>  <Num_Not_Resolved_Atoms>  (667) 
nan

$$$$
CHEMBL4559633
     RDKit          3D

  0  0  0  0  0  0  0  0  0  0999 V3000
M  V30 BEGIN CTAB
M  V30 COUNTS 58 61 0 0 0
M  V30 BEGIN ATOM
M  V30 1 C 0.619798 0.308812 4.760161 0
M  V30 2 N 0.896397 -0.357333 3.507546 0
M  V30 3 C 1.224756 -1.746828 3.701751 0
M  V30 4 C 1.985461 0.268360 2.784452 0
M  V30 5 C 2.265600 -0.428561 1.486646 0
M  V30 6 O 1.213417 -0.459847 0.603187 0
M  V30 7 C 0.518595 0.541156 -0.015944 0
M  V30 8 C 0.562061 1.916671 -0.036026 0
M  V30 9 C -0.311840 2.662081 -0.794632 0
M  V30 10 C -0.130609 4.107125 -0.701141 0
M  V30 11 C -1.213760 4.983895 -0.833473 0
M  V30 12 C -1.037618 6.345382 -0.744231 0
M  V30 13 N 0.159260 6.896560 -0.529604 0
M  V30 14 C 1.220422 6.080761 -0.398004 0
M  V30 15 C 1.101015 4.690369 -0.479534 0
M  V30 16 C -1.276051 2.057878 -1.573644 0
M  V30 17 C -1.357778 0.680431 -1.585772 0
M  V30 18 C -0.464370 -0.072977 -0.810384 0
M  V30 19 N -0.738472 -1.481386 -0.980971 0
M  V30 20 C -1.689702 -1.827604 0.018867 0
M  V30 21 O -2.008924 -0.824920 0.746485 0
M  V30 22 C -2.268180 -3.205857 0.217616 0
M  V30 23 C -2.988191 -3.684214 -0.994427 0
M  V30 24 O -2.524605 -4.907455 -1.521460 0
M  V30 25 C -1.240226 -5.395347 -1.395096 0
M  V30 26 C -0.609098 -6.191017 -2.299014 0
M  V30 27 C 0.683259 -6.589474 -2.011012 0
M  V30 28 C 1.383940 -6.238281 -0.869129 0
M  V30 29 Cl 3.006875 -6.764776 -0.552656 0
M  V30 30 C 0.701877 -5.422644 0.030890 0
M  V30 31 C -0.597358 -5.011000 -0.239363 0
M  V30 32 C -1.244453 -4.145745 0.774476 0
M  V30 33 H 1.111381 -0.199369 5.611955 0
M  V30 34 H -0.469963 0.322444 4.937154 0
M  V30 35 H 0.985217 1.362935 4.664999 0
M  V30 36 H 1.035207 -2.316712 2.764281 0
M  V30 37 H 2.273595 -1.916737 4.037154 0
M  V30 38 H 0.491945 -2.158697 4.435388 0
M  V30 39 H 2.895500 0.097263 3.430197 0
M  V30 40 H 1.905913 1.339420 2.651368 0
M  V30 41 H 3.173207 -0.002292 0.990291 0
M  V30 42 H 2.560428 -1.506482 1.676455 0
M  V30 43 H 1.337339 2.281753 0.587222 0
M  V30 44 H -2.180162 4.535364 -1.006815 0
M  V30 45 H -1.954684 6.938143 -0.863072 0
M  V30 46 H 2.203499 6.491442 -0.223424 0
M  V30 47 H 1.919975 3.994835 -0.381156 0
M  V30 48 H -1.893157 2.754914 -2.116366 0
M  V30 49 H -2.136449 0.299287 -2.219036 0
M  V30 50 H -0.423085 -2.257989 -1.625035 0
M  V30 51 H -3.049824 -3.064266 1.020426 0
M  V30 52 H -2.978696 -2.927818 -1.830726 0
M  V30 53 H -4.086628 -3.847013 -0.816798 0
M  V30 54 H -1.125527 -6.479956 -3.192803 0
M  V30 55 H 1.213903 -7.223461 -2.710128 0
M  V30 56 H 1.218547 -5.118493 0.951035 0
M  V30 57 H -1.675014 -4.730393 1.612174 0
M  V30 58 H -0.449354 -3.490186 1.235966 0
M  V30 END ATOM
M  V30 BEGIN BOND
M  V30 1 1 1 2
M  V30 2 1 2 3
M  V30 3 1 2 4
M  V30 4 1 4 5
M  V30 5 1 5 6
M  V30 6 1 6 7
M  V30 7 2 7 8
M  V30 8 1 8 9
M  V30 9 1 9 10
M  V30 10 2 10 11
M  V30 11 1 11 12
M  V30 12 2 12 13
M  V30 13 1 13 14
M  V30 14 2 14 15
M  V30 15 2 9 16
M  V30 16 1 16 17
M  V30 17 2 17 18
M  V30 18 1 18 19
M  V30 19 1 19 20
M  V30 20 2 20 21
M  V30 21 1 20 22
M  V30 22 1 22 23
M  V30 23 1 23 24
M  V30 24 1 24 25
M  V30 25 2 25 26
M  V30 26 1 26 27
M  V30 27 2 27 28
M  V30 28 1 28 29
M  V30 29 1 28 30
M  V30 30 2 30 31
M  V30 31 1 31 32
M  V30 32 1 18 7
M  V30 33 1 32 22
M  V30 34 1 15 10
M  V30 35 1 31 25
M  V30 36 1 1 33
M  V30 37 1 1 34
M  V30 38 1 1 35
M  V30 39 1 3 36
M  V30 40 1 3 37
M  V30 41 1 3 38
M  V30 42 1 4 39
M  V30 43 1 4 40
M  V30 44 1 5 41
M  V30 45 1 5 42
M  V30 46 1 8 43
M  V30 47 1 11 44
M  V30 48 1 12 45
M  V30 49 1 14 46
M  V30 50 1 15 47
M  V30 51 1 16 48
M  V30 52 1 17 49
M  V30 53 1 19 50
M  V30 54 1 22 51
M  V30 55 1 23 52
M  V30 56 1 23 53
M  V30 57 1 26 54
M  V30 58 1 27 55
M  V30 59 1 30 56
M  V30 60 1 32 57
M  V30 61 1 32 58
M  V30 END BOND
M  V30 END CTAB
M  END
>  <Dataset>  (668) 
ChEMBL_Kinases

>  <Ligand_Instance>  (668) 
nan

>  <PDB_ID>  (668) 
nan

>  <Standardized_SMILES>  (668) 
CN(C)CCOc1cc(-c2ccncc2)ccc1NC(=O)C1COc2ccc(Cl)cc2C1

>  <Name>  (668) 
nan

>  <Pocket>  (668) 
nan

>  <ATP_Site>  (668) 
nan

>  <Peripheral>  (668) 
nan

>  <Num_H_Atoms_ProtBoundConf>  (668) 
nan

>  <Num_Resolved_Atoms>  (668) 
nan

>  <Num_Not_Resolved_Atoms>  (668) 
nan

$$$$
CHEMBL4559238
     RDKit          3D

  0  0  0  0  0  0  0  0  0  0999 V3000
M  V30 BEGIN CTAB
M  V30 COUNTS 51 54 0 0 0
M  V30 BEGIN ATOM
M  V30 1 C 0.847698 -5.108386 1.385704 0
M  V30 2 C 2.025532 -4.437487 2.044849 0 CFG=1
M  V30 3 N 3.264351 -5.131635 1.858303 0
M  V30 4 C 4.207353 -4.303491 1.188067 0
M  V30 5 O 5.386975 -4.605586 0.870697 0
M  V30 6 C 3.516965 -3.045666 0.952851 0
M  V30 7 C 3.666919 -1.792656 0.409612 0
M  V30 8 C 2.504480 -1.064989 0.554926 0
M  V30 9 C 2.319780 0.302571 0.090485 0
M  V30 10 C 3.359282 0.960233 -0.549007 0
M  V30 11 C 3.287752 2.250128 -1.024943 0
M  V30 12 C 2.116039 2.956195 -0.867759 0
M  V30 13 C 1.070747 2.329167 -0.238060 0
M  V30 14 C -0.123531 3.000336 -0.058750 0
M  V30 15 O -0.194406 4.179977 -0.491879 0
M  V30 16 N -1.146483 2.380495 0.559984 0
M  V30 17 C -2.330054 3.174309 0.699879 0
M  V30 18 C -1.051362 1.120030 1.015247 0
M  V30 19 C -2.130010 0.382574 1.686291 0
M  V30 20 C -2.975582 -0.398637 0.739251 0
M  V30 21 C -3.643598 0.451369 -0.282159 0
M  V30 22 C -4.076911 -1.127689 1.521544 0
M  V30 23 C -2.195250 -1.506035 0.048018 0
M  V30 24 N 0.118397 0.482280 0.832233 0
M  V30 25 C 1.169716 1.034586 0.229577 0
M  V30 26 N 1.675878 -1.903669 1.187089 0
M  V30 27 C 2.235736 -3.094890 1.444504 0
M  V30 28 H 0.539826 -5.984447 1.994494 0
M  V30 29 H 1.041917 -5.379412 0.344758 0
M  V30 30 H -0.002143 -4.403781 1.401279 0
M  V30 31 H 1.845744 -4.372763 3.133082 0
M  V30 32 H 3.394330 -6.121617 2.195863 0
M  V30 33 H 4.583433 -1.454280 -0.060135 0
M  V30 34 H 4.312922 0.460626 -0.706158 0
M  V30 35 H 4.121725 2.712607 -1.512631 0
M  V30 36 H 2.055196 3.969700 -1.240004 0
M  V30 37 H -2.901235 3.248596 -0.269995 0
M  V30 38 H -2.085136 4.229561 1.028589 0
M  V30 39 H -3.057409 2.829911 1.454986 0
M  V30 40 H -1.643249 -0.283440 2.445608 0
M  V30 41 H -2.818030 1.021555 2.285947 0
M  V30 42 H -2.918470 0.901418 -0.961944 0
M  V30 43 H -4.337480 1.173624 0.204847 0
M  V30 44 H -4.278571 -0.227672 -0.932003 0
M  V30 45 H -3.716573 -2.110232 1.845419 0
M  V30 46 H -4.929745 -1.267109 0.837311 0
M  V30 47 H -4.422555 -0.495205 2.367092 0
M  V30 48 H -2.931920 -2.068436 -0.567094 0
M  V30 49 H -1.777966 -2.180290 0.809470 0
M  V30 50 H -1.433247 -1.111964 -0.647220 0
M  V30 51 H 0.699926 -1.697093 1.466547 0
M  V30 END ATOM
M  V30 BEGIN BOND
M  V30 1 1 1 2
M  V30 2 1 2 3
M  V30 3 1 3 4
M  V30 4 2 4 5
M  V30 5 1 4 6
M  V30 6 1 6 7
M  V30 7 2 7 8
M  V30 8 1 8 9
M  V30 9 2 9 10
M  V30 10 1 10 11
M  V30 11 2 11 12
M  V30 12 1 12 13
M  V30 13 1 13 14
M  V30 14 2 14 15
M  V30 15 1 14 16
M  V30 16 1 16 17
M  V30 17 1 16 18
M  V30 18 1 18 19
M  V30 19 1 19 20
M  V30 20 1 20 21
M  V30 21 1 20 22
M  V30 22 1 20 23
M  V30 23 2 18 24
M  V30 24 1 24 25
M  V30 25 1 8 26
M  V30 26 1 26 27
M  V30 27 1 27 2
M  V30 28 2 27 6
M  V30 29 1 25 9
M  V30 30 2 25 13
M  V30 31 1 1 28
M  V30 32 1 1 29
M  V30 33 1 1 30
M  V30 34 1 2 31 CFG=1
M  V30 35 1 3 32
M  V30 36 1 7 33
M  V30 37 1 10 34
M  V30 38 1 11 35
M  V30 39 1 12 36
M  V30 40 1 17 37
M  V30 41 1 17 38
M  V30 42 1 17 39
M  V30 43 1 19 40
M  V30 44 1 19 41
M  V30 45 1 21 42
M  V30 46 1 21 43
M  V30 47 1 21 44
M  V30 48 1 22 45
M  V30 49 1 22 46
M  V30 50 1 22 47
M  V30 51 1 23 48
M  V30 52 1 23 49
M  V30 53 1 23 50
M  V30 54 1 26 51
M  V30 END BOND
M  V30 END CTAB
M  END
>  <Dataset>  (669) 
ChEMBL_Kinases

>  <Ligand_Instance>  (669) 
nan

>  <PDB_ID>  (669) 
nan

>  <Standardized_SMILES>  (669) 
C[C@H]1NC(=O)c2cc(-c3cccc4c(=O)n(C)c(CC(C)(C)C)nc34)[nH]c21

>  <Name>  (669) 
nan

>  <Pocket>  (669) 
nan

>  <ATP_Site>  (669) 
nan

>  <Peripheral>  (669) 
nan

>  <Num_H_Atoms_ProtBoundConf>  (669) 
nan

>  <Num_Resolved_Atoms>  (669) 
nan

>  <Num_Not_Resolved_Atoms>  (669) 
nan

$$$$
CHEMBL3702163
     RDKit          3D

  0  0  0  0  0  0  0  0  0  0999 V3000
M  V30 BEGIN CTAB
M  V30 COUNTS 55 60 0 0 0
M  V30 BEGIN ATOM
M  V30 1 C 6.828171 -5.163582 5.026298 0
M  V30 2 O 5.604349 -4.512842 5.388689 0
M  V30 3 C 5.068314 -3.685170 4.394038 0
M  V30 4 C 3.888780 -3.012888 4.649457 0
M  V30 5 C 3.244166 -2.155181 3.747111 0
M  V30 6 C 3.861433 -1.982800 2.500160 0
M  V30 7 C 3.292717 -1.116057 1.468922 0
M  V30 8 C 2.124202 -0.425217 1.654033 0
M  V30 9 C 1.575987 0.402043 0.663532 0
M  V30 10 C 2.289725 0.475800 -0.511678 0
M  V30 11 N 1.763734 1.302995 -1.572241 0
M  V30 12 C 0.540949 1.964402 -1.257852 0
M  V30 13 N 0.259013 3.253818 -0.914898 0
M  V30 14 C -1.019786 3.589516 -0.644444 0
M  V30 15 C -2.047641 2.673277 -0.703134 0
M  V30 16 C -3.408657 2.709359 -0.488307 0
M  V30 17 C -4.224551 3.756471 -0.122189 0
M  V30 18 C -5.578442 3.486812 0.019210 0
M  V30 19 N -6.028423 2.229406 -0.204856 0
M  V30 20 C -5.198441 1.211262 -0.566438 0
M  V30 21 C -3.852645 1.412318 -0.722700 0
M  V30 22 N -2.872027 0.577618 -1.065259 0
M  V30 23 C -2.854103 -0.797821 -1.380403 0
M  V30 24 C -3.354859 -1.750416 -0.327818 0
M  V30 25 C -3.145394 -3.072232 -1.087247 0
M  V30 26 C -3.498133 -2.749283 -2.534823 0
M  V30 27 C -3.533994 -1.229226 -2.637634 0
M  V30 28 C -1.764295 1.390549 -1.044652 0
M  V30 29 N -0.466584 1.095731 -1.309077 0
M  V30 30 N 3.432809 -0.214377 -0.660014 0
M  V30 31 N 3.945507 -0.996432 0.284966 0
M  V30 32 C 5.033850 -2.666223 2.278416 0
M  V30 33 N 5.621400 -3.482137 3.172803 0
M  V30 34 H 6.610266 -5.628230 4.029042 0
M  V30 35 H 7.569292 -4.335098 4.872771 0
M  V30 36 H 7.167866 -5.894478 5.757814 0
M  V30 37 H 3.383354 -3.123176 5.604980 0
M  V30 38 H 2.332580 -1.655717 3.987830 0
M  V30 39 H 1.565457 -0.475946 2.557844 0
M  V30 40 H 0.634849 0.932861 0.865668 0
M  V30 41 H 2.193620 1.440672 -2.499315 0
M  V30 42 H -1.203855 4.616585 -0.377197 0
M  V30 43 H -3.838349 4.748066 0.049606 0
M  V30 44 H -6.297116 4.250684 0.304618 0
M  V30 45 H -5.597287 0.244723 -0.732222 0
M  V30 46 H -1.782983 -1.143965 -1.524983 0
M  V30 47 H -4.412543 -1.717027 -0.103301 0
M  V30 48 H -2.781740 -1.710842 0.604679 0
M  V30 49 H -3.819511 -3.858943 -0.744031 0
M  V30 50 H -2.113039 -3.429906 -1.004636 0
M  V30 51 H -4.501159 -3.129005 -2.784831 0
M  V30 52 H -2.787775 -3.218890 -3.223744 0
M  V30 53 H -4.525629 -0.839091 -2.826760 0
M  V30 54 H -2.897957 -0.988408 -3.525027 0
M  V30 55 H 5.519611 -2.545299 1.326471 0
M  V30 END ATOM
M  V30 BEGIN BOND
M  V30 1 1 1 2
M  V30 2 1 2 3
M  V30 3 2 3 4
M  V30 4 1 4 5
M  V30 5 2 5 6
M  V30 6 1 6 7
M  V30 7 2 7 8
M  V30 8 1 8 9
M  V30 9 2 9 10
M  V30 10 1 10 11
M  V30 11 1 11 12
M  V30 12 2 12 13
M  V30 13 1 13 14
M  V30 14 2 14 15
M  V30 15 1 15 16
M  V30 16 2 16 17
M  V30 17 1 17 18
M  V30 18 2 18 19
M  V30 19 1 19 20
M  V30 20 2 20 21
M  V30 21 1 21 22
M  V30 22 1 22 23
M  V30 23 1 23 24
M  V30 24 1 24 25
M  V30 25 1 25 26
M  V30 26 1 26 27
M  V30 27 1 22 28
M  V30 28 2 28 29
M  V30 29 1 10 30
M  V30 30 2 30 31
M  V30 31 1 6 32
M  V30 32 2 32 33
M  V30 33 1 33 3
M  V30 34 1 31 7
M  V30 35 1 29 12
M  V30 36 1 28 15
M  V30 37 1 21 16
M  V30 38 1 27 23
M  V30 39 1 1 34
M  V30 40 1 1 35
M  V30 41 1 1 36
M  V30 42 1 4 37
M  V30 43 1 5 38
M  V30 44 1 8 39
M  V30 45 1 9 40
M  V30 46 1 11 41
M  V30 47 1 14 42
M  V30 48 1 17 43
M  V30 49 1 18 44
M  V30 50 1 20 45
M  V30 51 1 23 46
M  V30 52 1 24 47
M  V30 53 1 24 48
M  V30 54 1 25 49
M  V30 55 1 25 50
M  V30 56 1 26 51
M  V30 57 1 26 52
M  V30 58 1 27 53
M  V30 59 1 27 54
M  V30 60 1 32 55
M  V30 END BOND
M  V30 END CTAB
M  END
>  <Dataset>  (670) 
ChEMBL_Kinases

>  <Ligand_Instance>  (670) 
nan

>  <PDB_ID>  (670) 
nan

>  <Standardized_SMILES>  (670) 
COc1ccc(-c2ccc(Nc3ncc4c5ccncc5n(C5CCCC5)c4n3)nn2)cn1

>  <Name>  (670) 
nan

>  <Pocket>  (670) 
nan

>  <ATP_Site>  (670) 
nan

>  <Peripheral>  (670) 
nan

>  <Num_H_Atoms_ProtBoundConf>  (670) 
nan

>  <Num_Resolved_Atoms>  (670) 
nan

>  <Num_Not_Resolved_Atoms>  (670) 
nan

$$$$
CHEMBL4561045
     RDKit          3D

  0  0  0  0  0  0  0  0  0  0999 V3000
M  V30 BEGIN CTAB
M  V30 COUNTS 52 57 0 0 0
M  V30 BEGIN ATOM
M  V30 1 C 0.840906 -5.745352 1.890195 0
M  V30 2 N 1.818139 -5.315557 0.910038 0
M  V30 3 C 2.820902 -6.265625 0.469200 0
M  V30 4 C 3.883459 -5.675452 -0.406496 0
M  V30 5 O 3.462440 -4.523302 -1.107291 0
M  V30 6 C 2.574764 -3.600849 -0.585287 0
M  V30 7 C 1.732375 -3.979839 0.437787 0
M  V30 8 C 0.885347 -3.004535 0.899711 0
M  V30 9 N 0.824916 -1.747582 0.435928 0
M  V30 10 N 1.631474 -1.346877 -0.560230 0
M  V30 11 C 1.792553 -0.170838 -1.228077 0
M  V30 12 C 1.040958 1.048245 -0.980142 0
M  V30 13 C 1.419465 2.083369 -1.847889 0
M  V30 14 C 0.812476 3.315150 -1.770267 0
M  V30 15 C -0.171825 3.532415 -0.834216 0
M  V30 16 C -0.767967 4.760506 -0.775146 0
M  V30 17 C -1.763881 4.896071 0.200529 0
M  V30 18 C -2.108686 3.857119 1.036306 0
M  V30 19 C -1.514564 2.639938 0.974438 0
M  V30 20 N -1.943439 1.670176 1.922746 0
M  V30 21 C -3.129499 1.761214 2.747715 0
M  V30 22 C -4.124841 0.732347 2.350856 0
M  V30 23 N -3.579810 -0.380636 1.661583 0
M  V30 24 C -2.241124 -0.747181 1.977897 0
M  V30 25 C -1.372423 0.425679 2.347522 0
M  V30 26 C -0.535442 2.492979 0.021023 0
M  V30 27 N 0.079447 1.308019 -0.087079 0
M  V30 28 N 2.758813 -0.460094 -2.106130 0
M  V30 29 N 3.157954 -1.706454 -1.988005 0
M  V30 30 C 2.453118 -2.300058 -1.005506 0
M  V30 31 H 1.056230 -5.182639 2.824197 0
M  V30 32 H -0.200762 -5.474410 1.625917 0
M  V30 33 H 0.932415 -6.827387 2.111380 0
M  V30 34 H 3.270177 -6.843937 1.285024 0
M  V30 35 H 2.240672 -7.015358 -0.143026 0
M  V30 36 H 4.146062 -6.446545 -1.179731 0
M  V30 37 H 4.797758 -5.525883 0.197102 0
M  V30 38 H 0.221697 -3.316321 1.712956 0
M  V30 39 H 2.191633 2.002163 -2.622767 0
M  V30 40 H 1.099213 4.135211 -2.441317 0
M  V30 41 H -0.446566 5.521715 -1.461602 0
M  V30 42 H -2.186474 5.914722 0.171516 0
M  V30 43 H -2.883287 4.249085 1.673611 0
M  V30 44 H -3.617864 2.756549 2.607030 0
M  V30 45 H -2.917238 1.623702 3.846858 0
M  V30 46 H -4.751913 0.378191 3.201694 0
M  V30 47 H -4.862603 1.210551 1.645188 0
M  V30 48 H -3.881760 -0.540925 0.697296 0
M  V30 49 H -1.830959 -1.270221 1.079226 0
M  V30 50 H -2.219633 -1.478261 2.796549 0
M  V30 51 H -0.382366 0.273259 1.892159 0
M  V30 52 H -1.146097 0.407203 3.462718 0
M  V30 END ATOM
M  V30 BEGIN BOND
M  V30 1 1 1 2
M  V30 2 1 2 3
M  V30 3 1 3 4
M  V30 4 1 4 5
M  V30 5 1 5 6
M  V30 6 2 6 7
M  V30 7 1 7 8
M  V30 8 2 8 9
M  V30 9 1 9 10
M  V30 10 1 10 11
M  V30 11 1 11 12
M  V30 12 2 12 13
M  V30 13 1 13 14
M  V30 14 2 14 15
M  V30 15 1 15 16
M  V30 16 2 16 17
M  V30 17 1 17 18
M  V30 18 2 18 19
M  V30 19 1 19 20
M  V30 20 1 20 21
M  V30 21 1 21 22
M  V30 22 1 22 23
M  V30 23 1 23 24
M  V30 24 1 24 25
M  V30 25 1 19 26
M  V30 26 2 26 27
M  V30 27 2 11 28
M  V30 28 1 28 29
M  V30 29 2 29 30
M  V30 30 1 7 2
M  V30 31 1 30 10
M  V30 32 1 30 6
M  V30 33 1 27 12
M  V30 34 1 26 15
M  V30 35 1 25 20
M  V30 36 1 1 31
M  V30 37 1 1 32
M  V30 38 1 1 33
M  V30 39 1 3 34
M  V30 40 1 3 35
M  V30 41 1 4 36
M  V30 42 1 4 37
M  V30 43 1 8 38
M  V30 44 1 13 39
M  V30 45 1 14 40
M  V30 46 1 16 41
M  V30 47 1 17 42
M  V30 48 1 18 43
M  V30 49 1 21 44
M  V30 50 1 21 45
M  V30 51 1 22 46
M  V30 52 1 22 47
M  V30 53 1 23 48
M  V30 54 1 24 49
M  V30 55 1 24 50
M  V30 56 1 25 51
M  V30 57 1 25 52
M  V30 END BOND
M  V30 END CTAB
M  END
>  <Dataset>  (671) 
ChEMBL_Kinases

>  <Ligand_Instance>  (671) 
nan

>  <PDB_ID>  (671) 
nan

>  <Standardized_SMILES>  (671) 
CN1CCOc2c1cnn1c(-c3ccc4cccc(N5CCNCC5)c4n3)nnc21

>  <Name>  (671) 
nan

>  <Pocket>  (671) 
nan

>  <ATP_Site>  (671) 
nan

>  <Peripheral>  (671) 
nan

>  <Num_H_Atoms_ProtBoundConf>  (671) 
nan

>  <Num_Resolved_Atoms>  (671) 
nan

>  <Num_Not_Resolved_Atoms>  (671) 
nan

$$$$
CHEMBL4556760
     RDKit          3D

  0  0  0  0  0  0  0  0  0  0999 V3000
M  V30 BEGIN CTAB
M  V30 COUNTS 61 65 0 0 0
M  V30 BEGIN ATOM
M  V30 1 C 4.332746 -3.650085 1.951791 0
M  V30 2 C 4.082595 -2.862622 3.221584 0 CFG=1
M  V30 3 N 5.321582 -2.488250 3.843929 0
M  V30 4 C 5.447952 -1.066256 3.951127 0
M  V30 5 O 6.418708 -0.461296 4.448593 0
M  V30 6 C 4.218143 -0.557949 3.361186 0
M  V30 7 C 3.533799 0.598066 3.060491 0
M  V30 8 C 2.323082 0.318449 2.455062 0
M  V30 9 C 1.393420 1.348691 2.029501 0
M  V30 10 C 1.662168 2.689435 2.204349 0
M  V30 11 C 0.815470 3.695508 1.818911 0
M  V30 12 C -0.366531 3.312755 1.224300 0
M  V30 13 C -0.734107 1.989477 1.001297 0
M  V30 14 C -1.918583 1.680842 0.406789 0
M  V30 15 O -2.632137 2.638481 0.088443 0
M  V30 16 N -2.261982 0.403351 0.195394 0
M  V30 17 C -3.508110 0.033853 -0.416955 0
M  V30 18 C -3.378412 0.004043 -1.892059 0 CFG=2
M  V30 19 C -2.982667 1.347120 -2.517247 0
M  V30 20 C -3.166779 0.929501 -3.993234 0
M  V30 21 C -4.196383 -0.149412 -3.874949 0
M  V30 22 O -4.637215 -0.137883 -2.532607 0
M  V30 23 C -1.372409 -0.515048 0.606577 0
M  V30 24 N -1.493916 -1.948027 0.510821 0
M  V30 25 C -1.302826 -3.187106 -0.154557 0
M  V30 26 C -2.044738 -3.308867 -1.456099 0
M  V30 27 C 0.173629 -3.422351 -0.466489 0
M  V30 28 C -1.750017 -4.326467 0.764476 0
M  V30 29 N -0.186360 -0.216547 1.201597 0
M  V30 30 C 0.180956 1.054151 1.422670 0
M  V30 31 N 2.309922 -1.019782 2.406295 0
M  V30 32 C 3.402614 -1.581142 2.926997 0
M  V30 33 H 3.549622 -3.426999 1.195554 0
M  V30 34 H 5.346311 -3.424594 1.531413 0
M  V30 35 H 4.316084 -4.733424 2.191450 0
M  V30 36 H 3.466886 -3.495217 3.908377 0
M  V30 37 H 6.052499 -3.161116 4.182831 0
M  V30 38 H 3.927829 1.593003 3.286090 0
M  V30 39 H 2.598634 3.015172 2.676152 0
M  V30 40 H 1.067396 4.726215 1.975670 0
M  V30 41 H -1.031080 4.128450 0.922610 0
M  V30 42 H -3.758643 -1.000307 -0.050512 0
M  V30 43 H -4.348766 0.707322 -0.085803 0
M  V30 44 H -2.742302 -0.761280 -2.327100 0
M  V30 45 H -1.944114 1.609328 -2.319185 0
M  V30 46 H -3.729658 2.120061 -2.331677 0
M  V30 47 H -2.175227 0.457440 -4.244887 0
M  V30 48 H -3.424324 1.773738 -4.628185 0
M  V30 49 H -5.052260 0.047145 -4.569269 0
M  V30 50 H -3.753766 -1.157276 -4.037718 0
M  V30 51 H -2.001557 -2.044757 1.430804 0
M  V30 52 H -2.160376 -4.375204 -1.761755 0
M  V30 53 H -3.093052 -2.915588 -1.330965 0
M  V30 54 H -1.500185 -2.813978 -2.288818 0
M  V30 55 H 0.627907 -2.492622 -0.894327 0
M  V30 56 H 0.283875 -4.201310 -1.253964 0
M  V30 57 H 0.734355 -3.715882 0.436443 0
M  V30 58 H -0.862356 -4.578140 1.390405 0
M  V30 59 H -2.519749 -3.949397 1.481583 0
M  V30 60 H -2.119613 -5.155013 0.145911 0
M  V30 61 H 1.534199 -1.581017 2.006315 0
M  V30 END ATOM
M  V30 BEGIN BOND
M  V30 1 1 1 2
M  V30 2 1 2 3
M  V30 3 1 3 4
M  V30 4 2 4 5
M  V30 5 1 4 6
M  V30 6 1 6 7
M  V30 7 2 7 8
M  V30 8 1 8 9
M  V30 9 2 9 10
M  V30 10 1 10 11
M  V30 11 2 11 12
M  V30 12 1 12 13
M  V30 13 1 13 14
M  V30 14 2 14 15
M  V30 15 1 14 16
M  V30 16 1 16 17
M  V30 17 1 17 18
M  V30 18 1 18 19
M  V30 19 1 19 20
M  V30 20 1 20 21
M  V30 21 1 21 22
M  V30 22 1 16 23
M  V30 23 1 23 24
M  V30 24 1 24 25
M  V30 25 1 25 26
M  V30 26 1 25 27
M  V30 27 1 25 28
M  V30 28 2 23 29
M  V30 29 1 29 30
M  V30 30 1 8 31
M  V30 31 1 31 32
M  V30 32 1 32 2
M  V30 33 2 32 6
M  V30 34 1 30 9
M  V30 35 2 30 13
M  V30 36 1 22 18
M  V30 37 1 1 33
M  V30 38 1 1 34
M  V30 39 1 1 35
M  V30 40 1 2 36 CFG=1
M  V30 41 1 3 37
M  V30 42 1 7 38
M  V30 43 1 10 39
M  V30 44 1 11 40
M  V30 45 1 12 41
M  V30 46 1 17 42
M  V30 47 1 17 43
M  V30 48 1 18 44 CFG=1
M  V30 49 1 19 45
M  V30 50 1 19 46
M  V30 51 1 20 47
M  V30 52 1 20 48
M  V30 53 1 21 49
M  V30 54 1 21 50
M  V30 55 1 24 51
M  V30 56 1 26 52
M  V30 57 1 26 53
M  V30 58 1 26 54
M  V30 59 1 27 55
M  V30 60 1 27 56
M  V30 61 1 27 57
M  V30 62 1 28 58
M  V30 63 1 28 59
M  V30 64 1 28 60
M  V30 65 1 31 61
M  V30 END BOND
M  V30 END CTAB
M  END
>  <Dataset>  (672) 
ChEMBL_Kinases

>  <Ligand_Instance>  (672) 
nan

>  <PDB_ID>  (672) 
nan

>  <Standardized_SMILES>  (672) 
C[C@H]1NC(=O)c2cc(-c3cccc4c(=O)n(C[C@@H]5CCCO5)c(NC(C)(C)C)nc34)[nH]c21

>  <Name>  (672) 
nan

>  <Pocket>  (672) 
nan

>  <ATP_Site>  (672) 
nan

>  <Peripheral>  (672) 
nan

>  <Num_H_Atoms_ProtBoundConf>  (672) 
nan

>  <Num_Resolved_Atoms>  (672) 
nan

>  <Num_Not_Resolved_Atoms>  (672) 
nan

$$$$
CHEMBL4558635
     RDKit          3D

  0  0  0  0  0  0  0  0  0  0999 V3000
M  V30 BEGIN CTAB
M  V30 COUNTS 35 37 0 0 0
M  V30 BEGIN ATOM
M  V30 1 C 1.179082 -6.127982 3.959917 0
M  V30 2 N 0.719491 -4.914142 3.298122 0
M  V30 3 C -0.511615 -4.324731 3.313598 0
M  V30 4 C -0.486586 -3.183830 2.538777 0
M  V30 5 C 0.810490 -3.095532 2.046068 0
M  V30 6 C 1.336527 -2.053180 1.169754 0
M  V30 7 C 2.652867 -2.127185 0.779314 0
M  V30 8 N 3.154077 -1.164151 -0.036127 0
M  V30 9 C 2.360064 -0.143883 -0.456858 0
M  V30 10 C 1.037805 -0.058719 -0.071973 0
M  V30 11 C 0.181397 1.037337 -0.523837 0
M  V30 12 C 0.693821 2.295630 -0.764509 0
M  V30 13 C -0.055519 3.373110 -1.192300 0
M  V30 14 C -1.389617 3.061564 -1.357733 0
M  V30 15 C -2.301501 4.104784 -1.808507 0
M  V30 16 N -1.836667 5.411569 -2.081944 0
M  V30 17 O -3.464892 4.411907 -2.103666 0
M  V30 18 C -1.996260 1.840590 -1.144509 0
M  V30 19 C -1.166021 0.806738 -0.713456 0
M  V30 20 C 0.500388 -1.027800 0.759666 0
M  V30 21 N 1.477514 -4.150118 2.531616 0
M  V30 22 H 0.351513 -6.519754 4.614266 0
M  V30 23 H 1.420010 -6.912535 3.226816 0
M  V30 24 H 2.087343 -5.883054 4.565334 0
M  V30 25 H -1.347309 -4.745973 3.875879 0
M  V30 26 H -1.317871 -2.513359 2.366288 0
M  V30 27 H 3.287764 -2.940713 1.114171 0
M  V30 28 H 2.769371 0.618239 -1.106295 0
M  V30 29 H 1.758973 2.446353 -0.606042 0
M  V30 30 H 0.327962 4.356422 -1.383569 0
M  V30 31 H -1.480441 6.338577 -2.372445 0
M  V30 32 H -1.668911 6.362177 -1.653539 0
M  V30 33 H -3.058681 1.732138 -1.314109 0
M  V30 34 H -1.601574 -0.165713 -0.534780 0
M  V30 35 H -0.528827 -1.016233 1.095903 0
M  V30 END ATOM
M  V30 BEGIN BOND
M  V30 1 1 1 2
M  V30 2 1 2 3
M  V30 3 2 3 4
M  V30 4 1 4 5
M  V30 5 1 5 6
M  V30 6 2 6 7
M  V30 7 1 7 8
M  V30 8 2 8 9
M  V30 9 1 9 10
M  V30 10 1 10 11
M  V30 11 2 11 12
M  V30 12 1 12 13
M  V30 13 2 13 14
M  V30 14 1 14 15
M  V30 15 1 15 16
M  V30 16 2 15 17
M  V30 17 1 14 18
M  V30 18 2 18 19
M  V30 19 2 10 20
M  V30 20 2 5 21
M  V30 21 1 21 2
M  V30 22 1 20 6
M  V30 23 1 19 11
M  V30 24 1 1 22
M  V30 25 1 1 23
M  V30 26 1 1 24
M  V30 27 1 3 25
M  V30 28 1 4 26
M  V30 29 1 7 27
M  V30 30 1 9 28
M  V30 31 1 12 29
M  V30 32 1 13 30
M  V30 33 1 16 31
M  V30 34 1 16 32
M  V30 35 1 18 33
M  V30 36 1 19 34
M  V30 37 1 20 35
M  V30 END BOND
M  V30 END CTAB
M  END
>  <Dataset>  (673) 
ChEMBL_Kinases

>  <Ligand_Instance>  (673) 
nan

>  <PDB_ID>  (673) 
nan

>  <Standardized_SMILES>  (673) 
Cn1ccc(-c2cncc(-c3ccc(C(N)=O)cc3)c2)n1

>  <Name>  (673) 
nan

>  <Pocket>  (673) 
nan

>  <ATP_Site>  (673) 
nan

>  <Peripheral>  (673) 
nan

>  <Num_H_Atoms_ProtBoundConf>  (673) 
nan

>  <Num_Resolved_Atoms>  (673) 
nan

>  <Num_Not_Resolved_Atoms>  (673) 
nan

$$$$
CHEMBL4558371
     RDKit          3D

  0  0  0  0  0  0  0  0  0  0999 V3000
M  V30 BEGIN CTAB
M  V30 COUNTS 59 62 0 0 0
M  V30 BEGIN ATOM
M  V30 1 C 7.206431 1.263473 4.861607 0
M  V30 2 N 5.828467 0.852055 4.723015 0
M  V30 3 C 5.410481 0.310447 5.987361 0
M  V30 4 C 5.044554 0.968634 3.546173 0
M  V30 5 C 5.552385 1.502245 2.385507 0
M  V30 6 C 4.765409 1.612240 1.233089 0
M  V30 7 C 3.452062 1.194684 1.202761 0
M  V30 8 C 2.697966 1.339411 -0.037040 0
M  V30 9 O 3.320233 1.834825 -1.006639 0
M  V30 10 N 1.354606 0.975106 -0.229524 0
M  V30 11 C 0.561675 1.084471 -1.399394 0
M  V30 12 C 0.963722 1.573400 -2.597091 0
M  V30 13 C 0.128315 1.647103 -3.702251 0
M  V30 14 C -1.147969 1.198674 -3.540619 0
M  V30 15 C -1.626183 0.692423 -2.364328 0
M  V30 16 N -2.930409 0.208785 -2.131572 0
M  V30 17 C -4.006854 0.118723 -3.035164 0
M  V30 18 O -3.850665 0.507713 -4.216368 0
M  V30 19 C -5.390824 -0.363541 -2.911749 0
M  V30 20 O -5.740737 -0.850289 -1.638754 0
M  V30 21 C -5.124176 -1.942844 -1.062228 0
M  V30 22 C -5.681147 -2.174940 0.203989 0
M  V30 23 C -5.242018 -3.216713 0.997717 0
M  V30 24 C -4.245970 -4.067935 0.585887 0
M  V30 25 C -3.698192 -3.829974 -0.674004 0
M  V30 26 C -4.114409 -2.802900 -1.484346 0
M  V30 27 O -2.696556 -4.632117 -1.167770 0
M  V30 28 C -2.429389 -5.910615 -0.568458 0
M  V30 29 C -2.343636 -5.639531 0.933143 0
M  V30 30 C -3.711746 -5.197454 1.352151 0
M  V30 31 O -4.468339 -5.643134 2.254570 0
M  V30 32 C -0.741782 0.652325 -1.318893 0
M  V30 33 C 2.968701 0.663660 2.380188 0
M  V30 34 C 3.733559 0.549739 3.522541 0
M  V30 35 H 7.242187 2.044511 5.670646 0
M  V30 36 H 7.689959 1.600351 3.944445 0
M  V30 37 H 7.834347 0.436775 5.259975 0
M  V30 38 H 6.122247 -0.445797 6.387129 0
M  V30 39 H 5.351067 1.142044 6.737265 0
M  V30 40 H 4.431194 -0.174218 5.947214 0
M  V30 41 H 6.553670 1.851780 2.311079 0
M  V30 42 H 5.240565 2.048148 0.346731 0
M  V30 43 H 0.960649 0.580609 0.651934 0
M  V30 44 H 1.950948 1.928479 -2.748719 0
M  V30 45 H 0.485206 2.045636 -4.647217 0
M  V30 46 H -1.776067 1.266157 -4.409163 0
M  V30 47 H -3.220000 -0.134911 -1.195408 0
M  V30 48 H -6.071216 0.513019 -3.129271 0
M  V30 49 H -5.637134 -1.115585 -3.714345 0
M  V30 50 H -6.465957 -1.618576 0.695872 0
M  V30 51 H -5.624740 -3.455626 1.984086 0
M  V30 52 H -3.776345 -2.525790 -2.452865 0
M  V30 53 H -3.325801 -6.569263 -0.694039 0
M  V30 54 H -1.504815 -6.328946 -0.984827 0
M  V30 55 H -1.988092 -6.510768 1.507556 0
M  V30 56 H -1.676927 -4.764895 1.050945 0
M  V30 57 H -1.095610 0.249566 -0.354267 0
M  V30 58 H 1.941589 0.327208 2.387857 0
M  V30 59 H 3.230378 0.117007 4.373432 0
M  V30 END ATOM
M  V30 BEGIN BOND
M  V30 1 1 1 2
M  V30 2 1 2 3
M  V30 3 1 2 4
M  V30 4 2 4 5
M  V30 5 1 5 6
M  V30 6 2 6 7
M  V30 7 1 7 8
M  V30 8 2 8 9
M  V30 9 1 8 10
M  V30 10 1 10 11
M  V30 11 2 11 12
M  V30 12 1 12 13
M  V30 13 2 13 14
M  V30 14 1 14 15
M  V30 15 1 15 16
M  V30 16 1 16 17
M  V30 17 2 17 18
M  V30 18 1 17 19
M  V30 19 1 19 20
M  V30 20 1 20 21
M  V30 21 2 21 22
M  V30 22 1 22 23
M  V30 23 2 23 24
M  V30 24 1 24 25
M  V30 25 2 25 26
M  V30 26 1 25 27
M  V30 27 1 27 28
M  V30 28 1 28 29
M  V30 29 1 29 30
M  V30 30 2 30 31
M  V30 31 2 15 32
M  V30 32 1 7 33
M  V30 33 2 33 34
M  V30 34 1 34 4
M  V30 35 1 32 11
M  V30 36 1 26 21
M  V30 37 1 30 24
M  V30 38 1 1 35
M  V30 39 1 1 36
M  V30 40 1 1 37
M  V30 41 1 3 38
M  V30 42 1 3 39
M  V30 43 1 3 40
M  V30 44 1 5 41
M  V30 45 1 6 42
M  V30 46 1 10 43
M  V30 47 1 12 44
M  V30 48 1 13 45
M  V30 49 1 14 46
M  V30 50 1 16 47
M  V30 51 1 19 48
M  V30 52 1 19 49
M  V30 53 1 22 50
M  V30 54 1 23 51
M  V30 55 1 26 52
M  V30 56 1 28 53
M  V30 57 1 28 54
M  V30 58 1 29 55
M  V30 59 1 29 56
M  V30 60 1 32 57
M  V30 61 1 33 58
M  V30 62 1 34 59
M  V30 END BOND
M  V30 END CTAB
M  END
>  <Dataset>  (674) 
ChEMBL_Kinases

>  <Ligand_Instance>  (674) 
nan

>  <PDB_ID>  (674) 
nan

>  <Standardized_SMILES>  (674) 
CN(C)c1ccc(C(=O)Nc2cccc(NC(=O)COc3ccc4c(c3)OCCC4=O)c2)cc1

>  <Name>  (674) 
nan

>  <Pocket>  (674) 
nan

>  <ATP_Site>  (674) 
nan

>  <Peripheral>  (674) 
nan

>  <Num_H_Atoms_ProtBoundConf>  (674) 
nan

>  <Num_Resolved_Atoms>  (674) 
nan

>  <Num_Not_Resolved_Atoms>  (674) 
nan

$$$$
CHEMBL4558089
     RDKit          3D

  0  0  0  0  0  0  0  0  0  0999 V3000
M  V30 BEGIN CTAB
M  V30 COUNTS 29 31 0 0 0
M  V30 BEGIN ATOM
M  V30 1 N 0.598472 -4.561175 5.415114 0
M  V30 2 C 1.051372 -4.101354 4.302671 0
M  V30 3 N 1.514035 -2.809985 3.931348 0
M  V30 4 C 1.493600 -2.544028 2.553680 0
M  V30 5 O 1.873980 -1.434448 2.037594 0
M  V30 6 C 1.000960 -3.634468 1.722920 0
M  V30 7 C 0.504143 -3.598462 0.488265 0
M  V30 8 C 0.389777 -2.326323 -0.236590 0
M  V30 9 C 0.630472 -2.185833 -1.602745 0
M  V30 10 C 0.415125 -0.849471 -1.883565 0
M  V30 11 C 0.058274 -0.227728 -0.711343 0
M  V30 12 C -0.264799 1.180342 -0.513492 0
M  V30 13 C -0.241341 2.078776 -1.570489 0
M  V30 14 C -0.560055 3.385967 -1.272715 0
M  V30 15 C -0.897653 3.899270 -0.052483 0
M  V30 16 C -0.907228 2.955450 0.977557 0
M  V30 17 Cl -1.334144 3.537566 2.586803 0
M  V30 18 C -0.600190 1.640005 0.749590 0
M  V30 19 O 0.066056 -1.142683 0.188387 0
M  V30 20 S 1.224720 -5.085340 2.791277 0
M  V30 21 H 0.495938 -4.005163 6.279654 0
M  V30 22 H 1.844777 -2.117833 4.664491 0
M  V30 23 H 0.198228 -4.550902 0.065709 0
M  V30 24 H 0.928062 -2.921924 -2.352062 0
M  V30 25 H 0.505753 -0.350048 -2.854742 0
M  V30 26 H 0.019371 1.735579 -2.561041 0
M  V30 27 H -0.523794 4.047145 -2.145491 0
M  V30 28 H -1.128951 4.953329 0.045371 0
M  V30 29 H -0.632060 0.981339 1.605020 0
M  V30 END ATOM
M  V30 BEGIN BOND
M  V30 1 2 1 2 CFG=2
M  V30 2 1 2 3
M  V30 3 1 3 4
M  V30 4 2 4 5
M  V30 5 1 4 6
M  V30 6 2 6 7
M  V30 7 1 7 8
M  V30 8 2 8 9
M  V30 9 1 9 10
M  V30 10 2 10 11
M  V30 11 1 11 12
M  V30 12 2 12 13
M  V30 13 1 13 14
M  V30 14 2 14 15
M  V30 15 1 15 16
M  V30 16 1 16 17
M  V30 17 2 16 18
M  V30 18 1 11 19
M  V30 19 1 6 20
M  V30 20 1 20 2
M  V30 21 1 19 8
M  V30 22 1 18 12
M  V30 23 1 1 21
M  V30 24 1 3 22
M  V30 25 1 7 23
M  V30 26 1 9 24
M  V30 27 1 10 25
M  V30 28 1 13 26
M  V30 29 1 14 27
M  V30 30 1 15 28
M  V30 31 1 18 29
M  V30 END BOND
M  V30 END CTAB
M  END
>  <Dataset>  (675) 
ChEMBL_Kinases

>  <Ligand_Instance>  (675) 
nan

>  <PDB_ID>  (675) 
nan

>  <Standardized_SMILES>  (675) 
N=C1NC(=O)/C(=C\c2ccc(-c3cccc(Cl)c3)o2)S1

>  <Name>  (675) 
nan

>  <Pocket>  (675) 
nan

>  <ATP_Site>  (675) 
nan

>  <Peripheral>  (675) 
nan

>  <Num_H_Atoms_ProtBoundConf>  (675) 
nan

>  <Num_Resolved_Atoms>  (675) 
nan

>  <Num_Not_Resolved_Atoms>  (675) 
nan

$$$$
CHEMBL4557420
     RDKit          3D

  0  0  0  0  0  0  0  0  0  0999 V3000
M  V30 BEGIN CTAB
M  V30 COUNTS 47 50 0 0 0
M  V30 BEGIN ATOM
M  V30 1 C 1.578575 -1.681390 6.755754 0
M  V30 2 C 1.647390 -1.060716 5.396628 0
M  V30 3 N 2.659832 -1.058871 4.492245 0
M  V30 4 C 2.226258 -0.361125 3.419175 0
M  V30 5 C 3.188632 -0.246815 2.326806 0
M  V30 6 C 2.955881 -0.773911 1.056675 0
M  V30 7 C 3.938939 -0.604210 0.104935 0
M  V30 8 C 5.133424 0.049484 0.324013 0
M  V30 9 F 6.064200 0.187282 -0.647420 0
M  V30 10 C 5.332265 0.559069 1.591246 0
M  V30 11 C 4.383386 0.426255 2.604607 0
M  V30 12 C 0.930836 0.058238 3.694601 0
M  V30 13 C 0.292417 0.836804 2.634990 0
M  V30 14 C 0.872086 2.061573 2.291336 0
M  V30 15 C 0.253857 2.791389 1.280437 0
M  V30 16 N -0.850653 2.319760 0.675703 0
M  V30 17 C -1.406278 1.154419 0.999381 0
M  V30 18 N -2.575450 0.646117 0.363836 0
M  V30 19 C -2.280646 -0.153542 -0.770451 0
M  V30 20 O -1.170629 -0.489547 -1.308592 0
M  V30 21 C -3.232275 -0.829953 -1.655025 0
M  V30 22 C -2.508032 -1.572718 -2.741349 0
M  V30 23 N -3.414287 -2.245380 -3.624446 0
M  V30 24 C -3.985510 -1.774770 -4.760021 0
M  V30 25 N -4.770442 -2.750283 -5.272001 0
M  V30 26 C -4.676375 -3.819499 -4.444160 0
M  V30 27 N -3.851218 -3.483785 -3.460177 0
M  V30 28 C -0.847186 0.370788 1.997116 0
M  V30 29 N 0.591860 -0.384153 4.921106 0
M  V30 30 H 2.415561 -2.384437 6.856900 0
M  V30 31 H 0.648119 -2.317616 6.760396 0
M  V30 32 H 1.472168 -0.943375 7.555055 0
M  V30 33 H 2.023829 -1.287376 0.876069 0
M  V30 34 H 3.775703 -1.003616 -0.877639 0
M  V30 35 H 6.293540 1.075146 1.735209 0
M  V30 36 H 4.642037 0.862643 3.558273 0
M  V30 37 H 1.770484 2.375153 2.830838 0
M  V30 38 H 0.740900 3.728647 1.053424 0
M  V30 39 H -3.588577 0.760038 0.586530 0
M  V30 40 H -3.925845 -1.519774 -1.136046 0
M  V30 41 H -3.814614 -0.017876 -2.181222 0
M  V30 42 H -1.827289 -0.863737 -3.264498 0
M  V30 43 H -1.860463 -2.346971 -2.234835 0
M  V30 44 H -3.795291 -0.771516 -5.131708 0
M  V30 45 H -5.204113 -4.736373 -4.619800 0
M  V30 46 H -1.301239 -0.590638 2.268406 0
M  V30 47 H -0.355684 -0.133100 5.239296 0
M  V30 END ATOM
M  V30 BEGIN BOND
M  V30 1 1 1 2
M  V30 2 2 2 3
M  V30 3 1 3 4
M  V30 4 1 4 5
M  V30 5 2 5 6
M  V30 6 1 6 7
M  V30 7 2 7 8
M  V30 8 1 8 9
M  V30 9 1 8 10
M  V30 10 2 10 11
M  V30 11 2 4 12
M  V30 12 1 12 13
M  V30 13 2 13 14
M  V30 14 1 14 15
M  V30 15 2 15 16
M  V30 16 1 16 17
M  V30 17 1 17 18
M  V30 18 1 18 19
M  V30 19 2 19 20
M  V30 20 1 19 21
M  V30 21 1 21 22
M  V30 22 1 22 23
M  V30 23 1 23 24
M  V30 24 2 24 25
M  V30 25 1 25 26
M  V30 26 2 26 27
M  V30 27 2 17 28
M  V30 28 1 12 29
M  V30 29 1 29 2
M  V30 30 1 11 5
M  V30 31 1 28 13
M  V30 32 1 27 23
M  V30 33 1 1 30
M  V30 34 1 1 31
M  V30 35 1 1 32
M  V30 36 1 6 33
M  V30 37 1 7 34
M  V30 38 1 10 35
M  V30 39 1 11 36
M  V30 40 1 14 37
M  V30 41 1 15 38
M  V30 42 1 18 39
M  V30 43 1 21 40
M  V30 44 1 21 41
M  V30 45 1 22 42
M  V30 46 1 22 43
M  V30 47 1 24 44
M  V30 48 1 26 45
M  V30 49 1 28 46
M  V30 50 1 29 47
M  V30 END BOND
M  V30 END CTAB
M  END
>  <Dataset>  (676) 
ChEMBL_Kinases

>  <Ligand_Instance>  (676) 
nan

>  <PDB_ID>  (676) 
nan

>  <Standardized_SMILES>  (676) 
Cc1nc(-c2ccc(F)cc2)c(-c2ccnc(NC(=O)CCn3cncn3)c2)[nH]1

>  <Name>  (676) 
nan

>  <Pocket>  (676) 
nan

>  <ATP_Site>  (676) 
nan

>  <Peripheral>  (676) 
nan

>  <Num_H_Atoms_ProtBoundConf>  (676) 
nan

>  <Num_Resolved_Atoms>  (676) 
nan

>  <Num_Not_Resolved_Atoms>  (676) 
nan

$$$$
CHEMBL4557065
     RDKit          3D

  0  0  0  0  0  0  0  0  0  0999 V3000
M  V30 BEGIN CTAB
M  V30 COUNTS 61 64 0 0 0
M  V30 BEGIN ATOM
M  V30 1 C 4.441625 -0.001652 8.045777 0
M  V30 2 C 4.601820 -0.041995 6.577721 0
M  V30 3 C 4.755017 -0.083754 5.356077 0
M  V30 4 C 4.920522 -0.153184 3.931667 0
M  V30 5 O 4.839897 -1.285150 3.400526 0
M  V30 6 N 5.165899 0.993339 3.146909 0
M  V30 7 C 5.356211 1.085501 1.724634 0
M  V30 8 C 4.056712 0.993682 1.013601 0
M  V30 9 C 3.588931 -0.233212 0.599595 0
M  V30 10 C 2.388834 -0.309022 -0.070904 0
M  V30 11 C 1.599370 0.803998 -0.364241 0
M  V30 12 N 0.362384 0.656685 -1.098394 0
M  V30 13 C -0.050835 -0.692548 -1.405212 0
M  V30 14 N -1.067559 -1.236241 -0.673450 0
M  V30 15 C -1.486945 -2.506467 -0.892971 0
M  V30 16 N -2.545591 -2.844843 -0.014127 0
M  V30 17 C -3.811752 -2.290975 0.269947 0
M  V30 18 C -3.758454 -1.904775 1.623231 0
M  V30 19 C -4.848348 -1.308698 2.256978 0
M  V30 20 C -6.021119 -1.077490 1.573656 0
M  V30 21 C -6.075384 -1.460491 0.233356 0
M  V30 22 C -5.005743 -2.037127 -0.360033 0
M  V30 23 C -4.948382 -2.484467 -1.727262 0
M  V30 24 O -3.998253 -3.034512 -2.318026 0
M  V30 25 N -6.020604 -2.356218 -2.644114 0
M  V30 26 C -5.677095 -2.898720 -3.968415 0
M  V30 27 C -0.856912 -3.231632 -1.874968 0
M  V30 28 C -1.147273 -4.534660 -2.231977 0
M  V30 29 C -0.238379 -4.781278 -3.248325 0
M  V30 30 N 0.523143 -3.696130 -3.462888 0
M  V30 31 C 0.170502 -2.704653 -2.626329 0
M  V30 32 N 0.549763 -1.420806 -2.361332 0
M  V30 33 C 2.068825 2.055794 0.054616 0
M  V30 34 O 1.319950 3.184084 -0.212564 0
M  V30 35 C 1.725488 4.483993 0.182571 0
M  V30 36 C 3.273859 2.092497 0.723127 0
M  V30 37 H 5.029624 -0.807597 8.493063 0
M  V30 38 H 3.376470 -0.177141 8.327920 0
M  V30 39 H 4.714468 1.017536 8.440982 0
M  V30 40 H 5.211729 1.897453 3.698208 0
M  V30 41 H 6.002566 0.209305 1.441946 0
M  V30 42 H 5.868283 2.002564 1.419199 0
M  V30 43 H 4.122136 -1.183961 0.765344 0
M  V30 44 H 2.024768 -1.272306 -0.394032 0
M  V30 45 H -0.120147 1.548051 -1.338219 0
M  V30 46 H -2.200296 -3.706593 0.473452 0
M  V30 47 H -2.961252 -1.976437 2.373335 0
M  V30 48 H -4.920493 -0.970476 3.286956 0
M  V30 49 H -6.949797 -0.631306 1.898635 0
M  V30 50 H -6.926496 -1.341157 -0.421471 0
M  V30 51 H -6.945560 -1.912129 -2.358651 0
M  V30 52 H -5.566530 -4.012956 -3.912706 0
M  V30 53 H -6.501693 -2.734704 -4.684749 0
M  V30 54 H -4.768213 -2.438748 -4.390172 0
M  V30 55 H -1.906520 -5.189262 -1.805534 0
M  V30 56 H -0.125154 -5.687065 -3.804741 0
M  V30 57 H 1.305913 -3.533077 -4.151784 0
M  V30 58 H 1.803526 4.464739 1.309588 0
M  V30 59 H 0.970734 5.241123 -0.117747 0
M  V30 60 H 2.681849 4.710238 -0.303432 0
M  V30 61 H 3.602140 3.084419 1.031584 0
M  V30 END ATOM
M  V30 BEGIN BOND
M  V30 1 1 1 2
M  V30 2 3 2 3
M  V30 3 1 3 4
M  V30 4 2 4 5
M  V30 5 1 4 6
M  V30 6 1 6 7
M  V30 7 1 7 8
M  V30 8 2 8 9
M  V30 9 1 9 10
M  V30 10 2 10 11
M  V30 11 1 11 12
M  V30 12 1 12 13
M  V30 13 2 13 14
M  V30 14 1 14 15
M  V30 15 1 15 16
M  V30 16 1 16 17
M  V30 17 2 17 18
M  V30 18 1 18 19
M  V30 19 2 19 20
M  V30 20 1 20 21
M  V30 21 2 21 22
M  V30 22 1 22 23
M  V30 23 2 23 24
M  V30 24 1 23 25
M  V30 25 1 25 26
M  V30 26 2 15 27
M  V30 27 1 27 28
M  V30 28 2 28 29
M  V30 29 1 29 30
M  V30 30 1 30 31
M  V30 31 2 31 32
M  V30 32 1 11 33
M  V30 33 1 33 34
M  V30 34 1 34 35
M  V30 35 2 33 36
M  V30 36 1 36 8
M  V30 37 1 32 13
M  V30 38 1 22 17
M  V30 39 1 31 27
M  V30 40 1 1 37
M  V30 41 1 1 38
M  V30 42 1 1 39
M  V30 43 1 6 40
M  V30 44 1 7 41
M  V30 45 1 7 42
M  V30 46 1 9 43
M  V30 47 1 10 44
M  V30 48 1 12 45
M  V30 49 1 16 46
M  V30 50 1 18 47
M  V30 51 1 19 48
M  V30 52 1 20 49
M  V30 53 1 21 50
M  V30 54 1 25 51
M  V30 55 1 26 52
M  V30 56 1 26 53
M  V30 57 1 26 54
M  V30 58 1 28 55
M  V30 59 1 29 56
M  V30 60 1 30 57
M  V30 61 1 35 58
M  V30 62 1 35 59
M  V30 63 1 35 60
M  V30 64 1 36 61
M  V30 END BOND
M  V30 END CTAB
M  END
>  <Dataset>  (677) 
ChEMBL_Kinases

>  <Ligand_Instance>  (677) 
nan

>  <PDB_ID>  (677) 
nan

>  <Standardized_SMILES>  (677) 
CC#CC(=O)NCc1ccc(Nc2nc(Nc3ccccc3C(=O)NC)c3cc[nH]c3n2)c(OC)c1

>  <Name>  (677) 
nan

>  <Pocket>  (677) 
nan

>  <ATP_Site>  (677) 
nan

>  <Peripheral>  (677) 
nan

>  <Num_H_Atoms_ProtBoundConf>  (677) 
nan

>  <Num_Resolved_Atoms>  (677) 
nan

>  <Num_Not_Resolved_Atoms>  (677) 
nan

$$$$
CHEMBL4557041
     RDKit          3D

  0  0  0  0  0  0  0  0  0  0999 V3000
M  V30 BEGIN CTAB
M  V30 COUNTS 64 67 0 0 0
M  V30 BEGIN ATOM
M  V30 1 C 6.760634 -2.225591 2.146485 0
M  V30 2 O 6.052313 -1.556458 3.155423 0
M  V30 3 C 4.959186 -0.750608 2.991996 0
M  V30 4 C 4.368688 -0.155766 4.112512 0
M  V30 5 C 3.267918 0.650458 3.908174 0
M  V30 6 C 2.754450 0.873113 2.650441 0
M  V30 7 C 3.336093 0.287108 1.546244 0
M  V30 8 C 2.672835 0.619125 0.258978 0 CFG=1
M  V30 9 C 3.161038 -0.348452 -0.817492 0
M  V30 10 N 1.257712 0.489792 0.479685 0
M  V30 11 C 0.258614 1.469888 0.294817 0
M  V30 12 O 0.691799 2.598839 -0.120480 0
M  V30 13 C -1.155956 1.236585 0.550228 0
M  V30 14 C -1.819175 2.008830 1.510449 0
M  V30 15 C -3.176054 1.853115 1.821938 0
M  V30 16 C -3.898327 0.889777 1.149315 0
M  V30 17 C -5.309779 0.752741 1.496843 0
M  V30 18 C -6.171689 -0.157526 0.920921 0
M  V30 19 C -7.509633 -0.211153 1.322383 0
M  V30 20 N -7.971158 0.621868 2.272318 0
M  V30 21 C -7.116041 1.507072 2.826679 0
M  V30 22 N -5.806322 1.569971 2.443664 0
M  V30 23 C -3.274037 0.111695 0.196788 0
M  V30 24 C -1.955527 0.303457 -0.067482 0
M  V30 25 N -1.344610 -0.516280 -1.058316 0
M  V30 26 C -0.711234 -0.096407 -2.304534 0
M  V30 27 C -0.964146 -1.111590 -3.402443 0
M  V30 28 C -0.643700 -2.506107 -2.984852 0
M  V30 29 C -0.299023 -2.619645 -1.516362 0 CFG=2
M  V30 30 C -0.083246 -4.049629 -1.117355 0
M  V30 31 N -1.191404 -4.921752 -1.306684 0
M  V30 32 C -1.381067 -1.938550 -0.744182 0
M  V30 33 C 4.436654 -0.520798 1.736792 0
M  V30 34 H 6.988765 -1.613242 1.266839 0
M  V30 35 H 7.738561 -2.534295 2.582269 0
M  V30 36 H 6.258710 -3.165851 1.850254 0
M  V30 37 H 4.819656 -0.368738 5.084001 0
M  V30 38 H 2.868843 1.074035 4.829542 0
M  V30 39 H 1.887153 1.530169 2.655463 0
M  V30 40 H 2.982645 1.618369 -0.095244 0
M  V30 41 H 4.247528 -0.232294 -0.962276 0
M  V30 42 H 2.705401 -0.089953 -1.798953 0
M  V30 43 H 2.843842 -1.395001 -0.604942 0
M  V30 44 H 0.967258 -0.455523 0.817266 0
M  V30 45 H -1.272194 2.785095 2.064215 0
M  V30 46 H -3.602900 2.501152 2.583740 0
M  V30 47 H -5.790253 -0.820110 0.160584 0
M  V30 48 H -8.099133 -0.968383 0.799919 0
M  V30 49 H -7.548263 2.149336 3.584779 0
M  V30 50 H -3.824797 -0.638302 -0.330824 0
M  V30 51 H -1.235382 0.840250 -2.604055 0
M  V30 52 H 0.355067 0.104356 -2.220271 0
M  V30 53 H -2.015747 -0.990636 -3.781871 0
M  V30 54 H -0.327517 -0.827583 -4.265808 0
M  V30 55 H 0.174269 -2.976937 -3.558799 0
M  V30 56 H -1.550476 -3.142566 -3.145811 0
M  V30 57 H 0.651097 -2.085693 -1.305272 0
M  V30 58 H 0.278074 -4.153623 -0.086912 0
M  V30 59 H 0.744505 -4.432783 -1.782762 0
M  V30 60 H -1.298289 -5.622806 -0.521404 0
M  V30 61 H -2.084368 -4.493459 -1.584426 0
M  V30 62 H -2.405686 -2.274025 -1.047313 0
M  V30 63 H -1.295758 -2.108113 0.359451 0
M  V30 64 H 4.854049 -0.955346 0.839446 0
M  V30 END ATOM
M  V30 BEGIN BOND
M  V30 1 1 1 2
M  V30 2 1 2 3
M  V30 3 2 3 4
M  V30 4 1 4 5
M  V30 5 2 5 6
M  V30 6 1 6 7
M  V30 7 1 7 8
M  V30 8 1 8 9
M  V30 9 1 8 10
M  V30 10 1 10 11
M  V30 11 2 11 12
M  V30 12 1 11 13
M  V30 13 2 13 14
M  V30 14 1 14 15
M  V30 15 2 15 16
M  V30 16 1 16 17
M  V30 17 2 17 18
M  V30 18 1 18 19
M  V30 19 2 19 20
M  V30 20 1 20 21
M  V30 21 2 21 22
M  V30 22 1 16 23
M  V30 23 2 23 24
M  V30 24 1 24 25
M  V30 25 1 25 26
M  V30 26 1 26 27
M  V30 27 1 27 28
M  V30 28 1 28 29
M  V30 29 1 29 30
M  V30 30 1 30 31
M  V30 31 1 29 32
M  V30 32 2 7 33
M  V30 33 1 33 3
M  V30 34 1 24 13
M  V30 35 1 32 25
M  V30 36 1 22 17
M  V30 37 1 1 34
M  V30 38 1 1 35
M  V30 39 1 1 36
M  V30 40 1 4 37
M  V30 41 1 5 38
M  V30 42 1 6 39
M  V30 43 1 8 40 CFG=3
M  V30 44 1 9 41
M  V30 45 1 9 42
M  V30 46 1 9 43
M  V30 47 1 10 44
M  V30 48 1 14 45
M  V30 49 1 15 46
M  V30 50 1 18 47
M  V30 51 1 19 48
M  V30 52 1 21 49
M  V30 53 1 23 50
M  V30 54 1 26 51
M  V30 55 1 26 52
M  V30 56 1 27 53
M  V30 57 1 27 54
M  V30 58 1 28 55
M  V30 59 1 28 56
M  V30 60 1 29 57 CFG=3
M  V30 61 1 30 58
M  V30 62 1 30 59
M  V30 63 1 31 60
M  V30 64 1 31 61
M  V30 65 1 32 62
M  V30 66 1 32 63
M  V30 67 1 33 64
M  V30 END BOND
M  V30 END CTAB
M  END
>  <Dataset>  (678) 
ChEMBL_Kinases

>  <Ligand_Instance>  (678) 
nan

>  <PDB_ID>  (678) 
nan

>  <Standardized_SMILES>  (678) 
COc1cccc([C@@H](C)NC(=O)c2ccc(-c3ccncn3)cc2N2CCC[C@H](CN)C2)c1

>  <Name>  (678) 
nan

>  <Pocket>  (678) 
nan

>  <ATP_Site>  (678) 
nan

>  <Peripheral>  (678) 
nan

>  <Num_H_Atoms_ProtBoundConf>  (678) 
nan

>  <Num_Resolved_Atoms>  (678) 
nan

>  <Num_Not_Resolved_Atoms>  (678) 
nan

$$$$
CHEMBL3702166
     RDKit          3D

  0  0  0  0  0  0  0  0  0  0999 V3000
M  V30 BEGIN CTAB
M  V30 COUNTS 52 57 0 0 0
M  V30 BEGIN ATOM
M  V30 1 O 0.910640 -4.289867 6.388050 0
M  V30 2 C 1.486253 -4.715114 5.182718 0
M  V30 3 C 1.642200 -3.928241 4.062080 0
M  V30 4 C 2.222245 -4.441989 2.923671 0
M  V30 5 C 2.352262 -3.550235 1.785646 0
M  V30 6 C 2.903418 -3.898471 0.572145 0
M  V30 7 C 2.986812 -2.985080 -0.464762 0
M  V30 8 C 2.516555 -1.692042 -0.308919 0
M  V30 9 N 2.556088 -0.691574 -1.354459 0
M  V30 10 C 2.033105 0.593680 -1.042610 0
M  V30 11 N 2.610480 1.824192 -0.918275 0
M  V30 12 C 1.827262 2.886056 -0.587145 0
M  V30 13 C 0.476042 2.707081 -0.382989 0
M  V30 14 C -0.501621 3.611189 -0.035907 0
M  V30 15 C -0.562689 4.961786 0.229553 0
M  V30 16 C -1.740365 5.590702 0.565560 0
M  V30 17 N -2.868038 4.821608 0.629283 0
M  V30 18 C -2.798105 3.497648 0.367027 0
M  V30 19 C -1.639197 2.844232 0.029327 0
M  V30 20 N -1.472570 1.547763 -0.243810 0
M  V30 21 C -2.324345 0.379946 -0.303439 0
M  V30 22 C -3.617176 0.563363 -1.015790 0
M  V30 23 C -4.018487 -0.885375 -1.353984 0
M  V30 24 C -2.737412 -1.630998 -1.495817 0
M  V30 25 C -1.621984 -0.700690 -1.108101 0
M  V30 26 C -0.124114 1.470463 -0.503825 0
M  V30 27 N 0.713884 0.470877 -0.834180 0
M  V30 28 N 1.992108 -1.419853 0.900286 0
M  V30 29 N 1.911605 -2.290487 1.891899 0
M  V30 30 C 2.636250 -5.756979 2.944024 0
M  V30 31 C 2.456309 -6.486331 4.079348 0
M  V30 32 N 1.885592 -6.013710 5.231620 0
M  V30 33 H 0.506862 -3.356232 6.342667 0
M  V30 34 H 1.268529 -2.911597 4.198180 0
M  V30 35 H 3.268190 -4.905161 0.451045 0
M  V30 36 H 3.412819 -3.227881 -1.426262 0
M  V30 37 H 2.970061 -1.027233 -2.234271 0
M  V30 38 H 2.308696 3.844796 -0.495626 0
M  V30 39 H 0.341017 5.543429 0.171737 0
M  V30 40 H -1.830935 6.642824 0.780366 0
M  V30 41 H -3.743104 2.997573 0.454827 0
M  V30 42 H -2.505814 -0.056937 0.701822 0
M  V30 43 H -4.437471 1.007539 -0.390980 0
M  V30 44 H -3.484629 1.088619 -1.977290 0
M  V30 45 H -4.623536 -1.280518 -0.489340 0
M  V30 46 H -4.682781 -0.917438 -2.244540 0
M  V30 47 H -2.710341 -2.488126 -0.760595 0
M  V30 48 H -2.600441 -2.047738 -2.525908 0
M  V30 49 H -0.863456 -1.234273 -0.494232 0
M  V30 50 H -1.198868 -0.266641 -2.041831 0
M  V30 51 H 3.087432 -6.161491 2.056130 0
M  V30 52 H 2.789103 -7.533608 4.079565 0
M  V30 END ATOM
M  V30 BEGIN BOND
M  V30 1 1 1 2
M  V30 2 2 2 3
M  V30 3 1 3 4
M  V30 4 1 4 5
M  V30 5 2 5 6
M  V30 6 1 6 7
M  V30 7 2 7 8
M  V30 8 1 8 9
M  V30 9 1 9 10
M  V30 10 2 10 11
M  V30 11 1 11 12
M  V30 12 2 12 13
M  V30 13 1 13 14
M  V30 14 2 14 15
M  V30 15 1 15 16
M  V30 16 2 16 17
M  V30 17 1 17 18
M  V30 18 2 18 19
M  V30 19 1 19 20
M  V30 20 1 20 21
M  V30 21 1 21 22
M  V30 22 1 22 23
M  V30 23 1 23 24
M  V30 24 1 24 25
M  V30 25 1 20 26
M  V30 26 2 26 27
M  V30 27 1 8 28
M  V30 28 2 28 29
M  V30 29 2 4 30
M  V30 30 1 30 31
M  V30 31 2 31 32
M  V30 32 1 32 2
M  V30 33 1 29 5
M  V30 34 1 27 10
M  V30 35 1 26 13
M  V30 36 1 19 14
M  V30 37 1 25 21
M  V30 38 1 1 33
M  V30 39 1 3 34
M  V30 40 1 6 35
M  V30 41 1 7 36
M  V30 42 1 9 37
M  V30 43 1 12 38
M  V30 44 1 15 39
M  V30 45 1 16 40
M  V30 46 1 18 41
M  V30 47 1 21 42
M  V30 48 1 22 43
M  V30 49 1 22 44
M  V30 50 1 23 45
M  V30 51 1 23 46
M  V30 52 1 24 47
M  V30 53 1 24 48
M  V30 54 1 25 49
M  V30 55 1 25 50
M  V30 56 1 30 51
M  V30 57 1 31 52
M  V30 END BOND
M  V30 END CTAB
M  END
>  <Dataset>  (679) 
ChEMBL_Kinases

>  <Ligand_Instance>  (679) 
nan

>  <PDB_ID>  (679) 
nan

>  <Standardized_SMILES>  (679) 
Oc1cc(-c2ccc(Nc3ncc4c5ccncc5n(C5CCCC5)c4n3)nn2)ccn1

>  <Name>  (679) 
nan

>  <Pocket>  (679) 
nan

>  <ATP_Site>  (679) 
nan

>  <Peripheral>  (679) 
nan

>  <Num_H_Atoms_ProtBoundConf>  (679) 
nan

>  <Num_Resolved_Atoms>  (679) 
nan

>  <Num_Not_Resolved_Atoms>  (679) 
nan

$$$$
CHEMBL220811
     RDKit          3D

  0  0  0  0  0  0  0  0  0  0999 V3000
M  V30 BEGIN CTAB
M  V30 COUNTS 46 48 0 0 0
M  V30 BEGIN ATOM
M  V30 1 C 0.749939 -3.695956 6.049885 0
M  V30 2 S 2.427547 -3.686834 5.526311 0
M  V30 3 O 3.273681 -3.166036 6.680625 0
M  V30 4 O 2.902834 -5.104741 5.243694 0
M  V30 5 C 2.716472 -2.702156 4.117636 0
M  V30 6 C 3.068951 -1.380482 4.143386 0
M  V30 7 C 3.272502 -0.699077 2.967021 0
M  V30 8 C 3.139892 -1.280080 1.717583 0
M  V30 9 C 3.338262 -0.614682 0.404707 0
M  V30 10 N 2.051548 -0.069435 -0.029447 0
M  V30 11 C 1.439687 1.115688 0.445013 0
M  V30 12 O 1.988097 1.828966 1.321082 0
M  V30 13 C 0.129354 1.534001 -0.093045 0
M  V30 14 C -0.455548 2.696212 0.361602 0
M  V30 15 C -1.683626 3.049087 -0.172566 0
M  V30 16 N -2.348059 4.240872 0.249446 0
M  V30 17 C -2.313636 2.277823 -1.125409 0
M  V30 18 C -3.590375 2.594881 -1.716140 0
M  V30 19 N -4.615069 2.863636 -2.175815 0
M  V30 20 C -1.692340 1.114959 -1.557071 0
M  V30 21 C -2.228156 0.194044 -2.554157 0
M  V30 22 C -2.129595 -1.154503 -2.207768 0
M  V30 23 C -2.569714 -2.183715 -2.998176 0
M  V30 24 C -3.141025 -1.816885 -4.206382 0
M  V30 25 N -3.238984 -0.519222 -4.545866 0
M  V30 26 C -2.799070 0.487667 -3.753835 0
M  V30 27 N -0.501313 0.789906 -1.027132 0
M  V30 28 C 2.780000 -2.633458 1.653173 0
M  V30 29 C 2.586176 -3.275938 2.874654 0
M  V30 30 H 0.489000 -4.748168 6.333130 0
M  V30 31 H 0.033682 -3.411337 5.251101 0
M  V30 32 H 0.584731 -3.005959 6.926792 0
M  V30 33 H 3.179822 -0.895892 5.102873 0
M  V30 34 H 3.553591 0.342095 2.983381 0
M  V30 35 H 4.100603 0.193981 0.467527 0
M  V30 36 H 3.661554 -1.351704 -0.339375 0
M  V30 37 H 1.500010 -0.594868 -0.773446 0
M  V30 38 H 0.009552 3.343563 1.119868 0
M  V30 39 H -2.766406 4.678476 1.125522 0
M  V30 40 H -2.444348 4.864148 -0.569210 0
M  V30 41 H -1.680381 -1.476403 -1.253908 0
M  V30 42 H -2.500104 -3.219173 -2.744656 0
M  V30 43 H -3.495232 -2.613691 -4.846246 0
M  V30 44 H -2.859594 1.536060 -3.988995 0
M  V30 45 H 2.658502 -3.156716 0.715012 0
M  V30 46 H 2.304883 -4.335424 2.785519 0
M  V30 END ATOM
M  V30 BEGIN BOND
M  V30 1 1 1 2
M  V30 2 2 2 3
M  V30 3 2 2 4
M  V30 4 1 2 5
M  V30 5 2 5 6
M  V30 6 1 6 7
M  V30 7 2 7 8
M  V30 8 1 8 9
M  V30 9 1 9 10
M  V30 10 1 10 11
M  V30 11 2 11 12
M  V30 12 1 11 13
M  V30 13 2 13 14
M  V30 14 1 14 15
M  V30 15 1 15 16
M  V30 16 2 15 17
M  V30 17 1 17 18
M  V30 18 3 18 19
M  V30 19 1 17 20
M  V30 20 1 20 21
M  V30 21 2 21 22
M  V30 22 1 22 23
M  V30 23 2 23 24
M  V30 24 1 24 25
M  V30 25 2 25 26
M  V30 26 2 20 27
M  V30 27 1 8 28
M  V30 28 2 28 29
M  V30 29 1 29 5
M  V30 30 1 27 13
M  V30 31 1 26 21
M  V30 32 1 1 30
M  V30 33 1 1 31
M  V30 34 1 1 32
M  V30 35 1 6 33
M  V30 36 1 7 34
M  V30 37 1 9 35
M  V30 38 1 9 36
M  V30 39 1 10 37
M  V30 40 1 14 38
M  V30 41 1 16 39
M  V30 42 1 16 40
M  V30 43 1 22 41
M  V30 44 1 23 42
M  V30 45 1 24 43
M  V30 46 1 26 44
M  V30 47 1 28 45
M  V30 48 1 29 46
M  V30 END BOND
M  V30 END CTAB
M  END
>  <Dataset>  (680) 
ChEMBL_Kinases

>  <Ligand_Instance>  (680) 
nan

>  <PDB_ID>  (680) 
nan

>  <Standardized_SMILES>  (680) 
CS(=O)(=O)c1ccc(CNC(=O)c2cc(N)c(C#N)c(-c3cccnc3)n2)cc1

>  <Name>  (680) 
nan

>  <Pocket>  (680) 
nan

>  <ATP_Site>  (680) 
nan

>  <Peripheral>  (680) 
nan

>  <Num_H_Atoms_ProtBoundConf>  (680) 
nan

>  <Num_Resolved_Atoms>  (680) 
nan

>  <Num_Not_Resolved_Atoms>  (680) 
nan

$$$$
CHEMBL220812
     RDKit          3D

  0  0  0  0  0  0  0  0  0  0999 V3000
M  V30 BEGIN CTAB
M  V30 COUNTS 50 51 0 0 0
M  V30 BEGIN ATOM
M  V30 1 C 3.267928 -6.446457 2.596622 0
M  V30 2 C 2.038281 -5.559865 2.433750 0
M  V30 3 C 0.798398 -6.452494 2.548682 0
M  V30 4 N 1.992315 -4.969879 1.137314 0
M  V30 5 C 1.916194 -3.603669 0.853177 0
M  V30 6 O 1.893966 -3.048793 2.000682 0
M  V30 7 C 1.859820 -2.741600 -0.302073 0
M  V30 8 N 1.654896 -1.435339 0.035881 0
M  V30 9 C 1.577600 -0.485686 -0.938623 0
M  V30 10 C 1.353289 0.904558 -0.532872 0
M  V30 11 O 1.279684 1.789524 -1.392505 0
M  V30 12 N 1.218919 1.253227 0.829690 0
M  V30 13 C 0.993797 2.579233 1.379963 0
M  V30 14 C -0.424265 2.976224 1.190775 0
M  V30 15 C -1.323401 2.636207 2.196385 0
M  V30 16 C -2.681229 2.931038 2.180714 0
M  V30 17 C -3.174997 3.620411 1.070138 0
M  V30 18 S -4.886989 3.993945 1.048907 0
M  V30 19 C -5.267965 5.549177 1.766673 0
M  V30 20 O -5.679101 2.913035 1.769613 0
M  V30 21 O -5.425239 3.987210 -0.361237 0
M  V30 22 C -2.302197 3.970165 0.056617 0
M  V30 23 C -0.961461 3.654307 0.119156 0
M  V30 24 C 1.700431 -0.798299 -2.271993 0
M  V30 25 C 1.907993 -2.109867 -2.634216 0
M  V30 26 N 2.041372 -2.487218 -4.000880 0
M  V30 27 C 1.980002 -3.037708 -1.619360 0
M  V30 28 C 2.206492 -4.377588 -1.987588 0
M  V30 29 N 2.391721 -5.466356 -2.307760 0
M  V30 30 H 3.777403 -6.287355 3.575475 0
M  V30 31 H 2.973187 -7.508690 2.565972 0
M  V30 32 H 4.001408 -6.178401 1.809983 0
M  V30 33 H 2.038426 -4.848149 3.263174 0
M  V30 34 H 0.315044 -6.316766 3.539189 0
M  V30 35 H 0.053248 -6.225241 1.748520 0
M  V30 36 H 1.102727 -7.509881 2.442067 0
M  V30 37 H 2.005734 -5.522968 0.265145 0
M  V30 38 H 1.286697 0.475207 1.549293 0
M  V30 39 H 1.587996 3.277096 0.720199 0
M  V30 40 H 1.323647 2.656909 2.424905 0
M  V30 41 H -0.961485 2.099141 3.071674 0
M  V30 42 H -3.312834 2.634327 2.997620 0
M  V30 43 H -6.261845 5.469000 2.279001 0
M  V30 44 H -4.537132 5.877078 2.524220 0
M  V30 45 H -5.432748 6.310747 0.962319 0
M  V30 46 H -2.691897 4.502121 -0.797269 0
M  V30 47 H -0.274732 3.922985 -0.662754 0
M  V30 48 H 1.642675 -0.062374 -3.061108 0
M  V30 49 H 2.959421 -2.086247 -4.342856 0
M  V30 50 H 1.360326 -3.057420 -4.571133 0
M  V30 END ATOM
M  V30 BEGIN BOND
M  V30 1 1 1 2
M  V30 2 1 2 3
M  V30 3 1 2 4
M  V30 4 1 4 5
M  V30 5 2 5 6
M  V30 6 1 5 7
M  V30 7 2 7 8
M  V30 8 1 8 9
M  V30 9 1 9 10
M  V30 10 2 10 11
M  V30 11 1 10 12
M  V30 12 1 12 13
M  V30 13 1 13 14
M  V30 14 2 14 15
M  V30 15 1 15 16
M  V30 16 2 16 17
M  V30 17 1 17 18
M  V30 18 1 18 19
M  V30 19 2 18 20
M  V30 20 2 18 21
M  V30 21 1 17 22
M  V30 22 2 22 23
M  V30 23 2 9 24
M  V30 24 1 24 25
M  V30 25 1 25 26
M  V30 26 2 25 27
M  V30 27 1 27 28
M  V30 28 3 28 29
M  V30 29 1 27 7
M  V30 30 1 23 14
M  V30 31 1 1 30
M  V30 32 1 1 31
M  V30 33 1 1 32
M  V30 34 1 2 33
M  V30 35 1 3 34
M  V30 36 1 3 35
M  V30 37 1 3 36
M  V30 38 1 4 37
M  V30 39 1 12 38
M  V30 40 1 13 39
M  V30 41 1 13 40
M  V30 42 1 15 41
M  V30 43 1 16 42
M  V30 44 1 19 43
M  V30 45 1 19 44
M  V30 46 1 19 45
M  V30 47 1 22 46
M  V30 48 1 23 47
M  V30 49 1 24 48
M  V30 50 1 26 49
M  V30 51 1 26 50
M  V30 END BOND
M  V30 END CTAB
M  END
>  <Dataset>  (681) 
ChEMBL_Kinases

>  <Ligand_Instance>  (681) 
nan

>  <PDB_ID>  (681) 
nan

>  <Standardized_SMILES>  (681) 
CC(C)NC(=O)c1nc(C(=O)NCc2ccc(S(C)(=O)=O)cc2)cc(N)c1C#N

>  <Name>  (681) 
nan

>  <Pocket>  (681) 
nan

>  <ATP_Site>  (681) 
nan

>  <Peripheral>  (681) 
nan

>  <Num_H_Atoms_ProtBoundConf>  (681) 
nan

>  <Num_Resolved_Atoms>  (681) 
nan

>  <Num_Not_Resolved_Atoms>  (681) 
nan

$$$$
CHEMBL3702164
     RDKit          3D

  0  0  0  0  0  0  0  0  0  0999 V3000
M  V30 BEGIN CTAB
M  V30 COUNTS 55 60 0 0 0
M  V30 BEGIN ATOM
M  V30 1 C 4.110610 -3.212936 -5.741320 0
M  V30 2 O 4.074035 -2.975724 -4.389662 0
M  V30 3 C 4.066278 -1.777367 -3.697561 0
M  V30 4 C 3.979156 -1.708400 -2.291902 0
M  V30 5 C 3.984933 -0.455315 -1.859529 0
M  V30 6 C 3.600207 -0.344372 -0.442353 0
M  V30 7 C 3.099210 -1.299214 0.398178 0
M  V30 8 C 2.600978 -1.179135 1.658775 0
M  V30 9 C 2.665090 0.133868 2.040823 0
M  V30 10 N 2.007694 0.727729 3.185603 0
M  V30 11 C 0.963369 0.084179 3.992154 0
M  V30 12 N 0.588481 -0.521268 5.169546 0
M  V30 13 C -0.653911 -0.987164 5.294906 0
M  V30 14 C -1.554721 -0.865424 4.256043 0
M  V30 15 C -2.872085 -1.341460 4.295841 0
M  V30 16 C -3.760901 -1.992221 5.100974 0
M  V30 17 C -5.007082 -2.219656 4.543290 0
M  V30 18 N -5.381696 -1.854357 3.307053 0
M  V30 19 C -4.515057 -1.190379 2.448783 0
M  V30 20 C -3.299390 -0.976965 3.012297 0
M  V30 21 N -2.343689 -0.362232 2.331444 0
M  V30 22 C -2.278307 0.210667 0.975887 0
M  V30 23 C -3.178605 1.415980 0.854757 0
M  V30 24 C -4.037105 1.231049 -0.359867 0
M  V30 25 C -3.755762 -0.141161 -0.918337 0
M  V30 26 C -2.682341 -0.763064 -0.085253 0
M  V30 27 C -1.200798 -0.269522 3.092897 0
M  V30 28 N 0.080038 0.221992 2.933020 0
M  V30 29 N 3.157234 1.184060 1.294356 0
M  V30 30 N 3.602822 0.881808 0.070255 0
M  V30 31 C 4.072067 0.688904 -2.602424 0
M  V30 32 C 4.161486 0.582023 -4.002086 0
M  V30 33 N 4.149331 -0.693962 -4.466164 0
M  V30 34 H 5.133873 -3.352137 -6.163321 0
M  V30 35 H 3.627202 -2.393108 -6.311952 0
M  V30 36 H 3.572559 -4.184796 -5.938618 0
M  V30 37 H 4.035690 -2.741774 -1.911069 0
M  V30 38 H 3.118765 -2.293849 -0.051969 0
M  V30 39 H 2.217526 -1.896072 2.309808 0
M  V30 40 H 2.136761 1.634791 3.639228 0
M  V30 41 H -0.881976 -1.423930 6.224428 0
M  V30 42 H -3.379628 -2.243716 6.065638 0
M  V30 43 H -5.724058 -2.735429 5.181108 0
M  V30 44 H -4.984776 -0.988001 1.527595 0
M  V30 45 H -1.272953 0.576241 0.718235 0
M  V30 46 H -2.634656 2.375758 0.742632 0
M  V30 47 H -3.791107 1.470885 1.783425 0
M  V30 48 H -5.121166 1.317230 -0.029824 0
M  V30 49 H -3.923946 2.036511 -1.119203 0
M  V30 50 H -4.703762 -0.757015 -0.871408 0
M  V30 51 H -3.480740 -0.026235 -1.997357 0
M  V30 52 H -1.830217 -0.959455 -0.807282 0
M  V30 53 H -2.931480 -1.767791 0.323984 0
M  V30 54 H 4.088687 1.650375 -2.114071 0
M  V30 55 H 4.232919 1.529620 -4.493187 0
M  V30 END ATOM
M  V30 BEGIN BOND
M  V30 1 1 1 2
M  V30 2 1 2 3
M  V30 3 2 3 4
M  V30 4 1 4 5
M  V30 5 1 5 6
M  V30 6 2 6 7
M  V30 7 1 7 8
M  V30 8 2 8 9
M  V30 9 1 9 10
M  V30 10 1 10 11
M  V30 11 2 11 12
M  V30 12 1 12 13
M  V30 13 2 13 14
M  V30 14 1 14 15
M  V30 15 2 15 16
M  V30 16 1 16 17
M  V30 17 2 17 18
M  V30 18 1 18 19
M  V30 19 2 19 20
M  V30 20 1 20 21
M  V30 21 1 21 22
M  V30 22 1 22 23
M  V30 23 1 23 24
M  V30 24 1 24 25
M  V30 25 1 25 26
M  V30 26 1 21 27
M  V30 27 2 27 28
M  V30 28 1 9 29
M  V30 29 2 29 30
M  V30 30 2 5 31
M  V30 31 1 31 32
M  V30 32 2 32 33
M  V30 33 1 33 3
M  V30 34 1 30 6
M  V30 35 1 28 11
M  V30 36 1 27 14
M  V30 37 1 20 15
M  V30 38 1 26 22
M  V30 39 1 1 34
M  V30 40 1 1 35
M  V30 41 1 1 36
M  V30 42 1 4 37
M  V30 43 1 7 38
M  V30 44 1 8 39
M  V30 45 1 10 40
M  V30 46 1 13 41
M  V30 47 1 16 42
M  V30 48 1 17 43
M  V30 49 1 19 44
M  V30 50 1 22 45
M  V30 51 1 23 46
M  V30 52 1 23 47
M  V30 53 1 24 48
M  V30 54 1 24 49
M  V30 55 1 25 50
M  V30 56 1 25 51
M  V30 57 1 26 52
M  V30 58 1 26 53
M  V30 59 1 31 54
M  V30 60 1 32 55
M  V30 END BOND
M  V30 END CTAB
M  END
>  <Dataset>  (682) 
ChEMBL_Kinases

>  <Ligand_Instance>  (682) 
nan

>  <PDB_ID>  (682) 
nan

>  <Standardized_SMILES>  (682) 
COc1cc(-c2ccc(Nc3ncc4c5ccncc5n(C5CCCC5)c4n3)nn2)ccn1

>  <Name>  (682) 
nan

>  <Pocket>  (682) 
nan

>  <ATP_Site>  (682) 
nan

>  <Peripheral>  (682) 
nan

>  <Num_H_Atoms_ProtBoundConf>  (682) 
nan

>  <Num_Resolved_Atoms>  (682) 
nan

>  <Num_Not_Resolved_Atoms>  (682) 
nan

$$$$
CHEMBL3702189
     RDKit          3D

  0  0  0  0  0  0  0  0  0  0999 V3000
M  V30 BEGIN CTAB
M  V30 COUNTS 63 68 0 0 0
M  V30 BEGIN ATOM
M  V30 1 C 4.126368 4.312844 3.266764 0
M  V30 2 N 3.443422 3.578180 4.343907 0
M  V30 3 C 3.450344 4.516219 5.474642 0
M  V30 4 C 2.052503 3.479980 3.903694 0 CFG=2
M  V30 5 C 1.221324 2.698785 4.870778 0
M  V30 6 C 0.378607 1.747616 4.047707 0
M  V30 7 N 0.673766 2.069782 2.667218 0
M  V30 8 C -0.065297 1.805593 1.483622 0
M  V30 9 C -0.908755 0.684230 1.508890 0
M  V30 10 C -1.635645 0.412800 0.349543 0
M  V30 11 C -1.542937 1.197818 -0.777128 0
M  V30 12 N -2.244341 0.910567 -1.975586 0
M  V30 13 C -3.024499 -0.286598 -1.919647 0
M  V30 14 N -4.361772 -0.572727 -1.852899 0
M  V30 15 C -4.722794 -1.880996 -1.806507 0
M  V30 16 C -3.830778 -2.931945 -1.820780 0
M  V30 17 C -3.920347 -4.306302 -1.788643 0
M  V30 18 C -5.010819 -5.145583 -1.727233 0
M  V30 19 C -4.754414 -6.507474 -1.715463 0
M  V30 20 N -3.484722 -6.957850 -1.762937 0
M  V30 21 C -2.453907 -6.101845 -1.821652 0
M  V30 22 C -2.610338 -4.734254 -1.837753 0
M  V30 23 N -1.715318 -3.758973 -1.896670 0
M  V30 24 C -0.313537 -3.721568 -1.944239 0
M  V30 25 C 0.202987 -4.282744 -3.275218 0
M  V30 26 C 1.713883 -4.252626 -3.057005 0
M  V30 27 C 1.916451 -4.143587 -1.546102 0
M  V30 28 C 0.508804 -4.451059 -0.981518 0
M  V30 29 C -2.492562 -2.621216 -1.886706 0
M  V30 30 N -2.171831 -1.313957 -1.932738 0
M  V30 31 N -0.715153 2.282033 -0.771708 0
M  V30 32 C 0.008790 2.575261 0.344241 0
M  V30 33 C 1.955838 2.725098 2.615338 0
M  V30 34 H 3.429025 5.021475 2.775251 0
M  V30 35 H 4.992890 4.884924 3.616633 0
M  V30 36 H 4.527167 3.593524 2.509529 0
M  V30 37 H 3.155162 3.955476 6.373322 0
M  V30 38 H 2.695949 5.311245 5.251719 0
M  V30 39 H 4.461096 4.997630 5.585960 0
M  V30 40 H 1.623276 4.504825 3.837526 0
M  V30 41 H 1.860846 2.147408 5.602553 0
M  V30 42 H 0.501094 3.364207 5.432517 0
M  V30 43 H 0.781950 0.709272 4.228324 0
M  V30 44 H -0.701282 1.831997 4.280029 0
M  V30 45 H -1.034189 0.032969 2.336898 0
M  V30 46 H -2.296648 -0.448087 0.337322 0
M  V30 47 H -2.195701 1.508604 -2.801481 0
M  V30 48 H -5.768181 -2.078516 -1.756960 0
M  V30 49 H -6.007889 -4.727972 -1.690580 0
M  V30 50 H -5.623344 -7.184437 -1.666366 0
M  V30 51 H -1.451441 -6.516319 -1.861817 0
M  V30 52 H 0.060328 -2.661100 -1.956847 0
M  V30 53 H -0.074804 -5.334538 -3.431924 0
M  V30 54 H -0.031591 -3.637114 -4.128410 0
M  V30 55 H 2.133503 -3.306478 -3.485223 0
M  V30 56 H 2.221920 -5.122669 -3.458303 0
M  V30 57 H 2.644885 -4.894388 -1.205719 0
M  V30 58 H 2.224229 -3.125237 -1.244162 0
M  V30 59 H 0.568120 -4.006249 0.056413 0
M  V30 60 H 0.494628 -5.534607 -0.969933 0
M  V30 61 H 0.646921 3.441685 0.303752 0
M  V30 62 H 2.742798 1.931693 2.648281 0
M  V30 63 H 2.090497 3.382709 1.723778 0
M  V30 END ATOM
M  V30 BEGIN BOND
M  V30 1 1 1 2
M  V30 2 1 2 3
M  V30 3 1 2 4
M  V30 4 1 4 5
M  V30 5 1 5 6
M  V30 6 1 6 7
M  V30 7 1 7 8
M  V30 8 2 8 9
M  V30 9 1 9 10
M  V30 10 2 10 11
M  V30 11 1 11 12
M  V30 12 1 12 13
M  V30 13 2 13 14
M  V30 14 1 14 15
M  V30 15 2 15 16
M  V30 16 1 16 17
M  V30 17 2 17 18
M  V30 18 1 18 19
M  V30 19 2 19 20
M  V30 20 1 20 21
M  V30 21 2 21 22
M  V30 22 1 22 23
M  V30 23 1 23 24
M  V30 24 1 24 25
M  V30 25 1 25 26
M  V30 26 1 26 27
M  V30 27 1 27 28
M  V30 28 1 23 29
M  V30 29 2 29 30
M  V30 30 1 11 31
M  V30 31 2 31 32
M  V30 32 1 7 33
M  V30 33 1 33 4
M  V30 34 1 32 8
M  V30 35 1 30 13
M  V30 36 1 29 16
M  V30 37 1 22 17
M  V30 38 1 28 24
M  V30 39 1 1 34
M  V30 40 1 1 35
M  V30 41 1 1 36
M  V30 42 1 3 37
M  V30 43 1 3 38
M  V30 44 1 3 39
M  V30 45 1 4 40 CFG=3
M  V30 46 1 5 41
M  V30 47 1 5 42
M  V30 48 1 6 43
M  V30 49 1 6 44
M  V30 50 1 9 45
M  V30 51 1 10 46
M  V30 52 1 12 47
M  V30 53 1 15 48
M  V30 54 1 18 49
M  V30 55 1 19 50
M  V30 56 1 21 51
M  V30 57 1 24 52
M  V30 58 1 25 53
M  V30 59 1 25 54
M  V30 60 1 26 55
M  V30 61 1 26 56
M  V30 62 1 27 57
M  V30 63 1 27 58
M  V30 64 1 28 59
M  V30 65 1 28 60
M  V30 66 1 32 61
M  V30 67 1 33 62
M  V30 68 1 33 63
M  V30 END BOND
M  V30 END CTAB
M  END
>  <Dataset>  (683) 
ChEMBL_Kinases

>  <Ligand_Instance>  (683) 
nan

>  <PDB_ID>  (683) 
nan

>  <Standardized_SMILES>  (683) 
CN(C)[C@@H]1CCN(c2ccc(Nc3ncc4c5ccncc5n(C5CCCC5)c4n3)nc2)C1

>  <Name>  (683) 
nan

>  <Pocket>  (683) 
nan

>  <ATP_Site>  (683) 
nan

>  <Peripheral>  (683) 
nan

>  <Num_H_Atoms_ProtBoundConf>  (683) 
nan

>  <Num_Resolved_Atoms>  (683) 
nan

>  <Num_Not_Resolved_Atoms>  (683) 
nan

$$$$
CHEMBL3702190
     RDKit          3D

  0  0  0  0  0  0  0  0  0  0999 V3000
M  V30 BEGIN CTAB
M  V30 COUNTS 64 68 0 0 0
M  V30 BEGIN ATOM
M  V30 1 C 4.239927 0.698125 5.231540 0
M  V30 2 N 2.844336 0.658619 5.636189 0
M  V30 3 C 2.617505 -0.392425 6.618230 0
M  V30 4 C 1.969855 0.548950 4.518212 0
M  V30 5 C 1.948359 1.795026 3.623575 0
M  V30 6 C 0.967274 1.525139 2.537190 0
M  V30 7 N 0.793382 2.572046 1.565726 0
M  V30 8 C 0.199621 3.823925 2.002183 0
M  V30 9 C 1.147609 2.396570 0.202531 0
M  V30 10 C 2.129353 2.658680 -0.719669 0
M  V30 11 C 1.951205 2.209540 -2.000938 0
M  V30 12 C 0.847546 1.511142 -2.416578 0
M  V30 13 N 0.640823 1.036903 -3.768377 0
M  V30 14 C -0.564341 0.287594 -3.926020 0
M  V30 15 N -1.561509 0.368983 -4.810632 0
M  V30 16 C -2.630395 -0.483480 -4.744724 0
M  V30 17 C -2.735668 -1.451110 -3.784378 0
M  V30 18 C -3.614517 -2.456536 -3.401448 0
M  V30 19 C -4.804904 -2.815245 -3.962416 0
M  V30 20 C -5.480667 -3.877396 -3.354294 0
M  V30 21 N -4.936725 -4.468189 -2.282916 0
M  V30 22 C -3.758416 -4.113112 -1.727542 0
M  V30 23 C -3.046747 -3.071425 -2.285241 0
M  V30 24 N -1.872597 -2.527340 -1.935072 0
M  V30 25 C -0.956762 -2.833928 -0.883006 0
M  V30 26 C -0.551098 -4.280435 -0.841975 0
M  V30 27 C -0.778796 -4.771831 0.553580 0
M  V30 28 C -1.179763 -3.585136 1.401675 0
M  V30 29 C -1.418067 -2.423373 0.482418 0
M  V30 30 C -1.710835 -1.538518 -2.871880 0
M  V30 31 N -0.699779 -0.670768 -3.000875 0
M  V30 32 N -0.074623 1.289651 -1.461505 0
M  V30 33 N 0.040981 1.700782 -0.201275 0
M  V30 34 H 4.685048 1.686981 5.523582 0
M  V30 35 H 4.797400 -0.148846 5.660712 0
M  V30 36 H 4.264645 0.647031 4.133097 0
M  V30 37 H 3.098128 -1.329658 6.215280 0
M  V30 38 H 1.545541 -0.634444 6.652800 0
M  V30 39 H 3.022212 -0.123961 7.611464 0
M  V30 40 H 2.312928 -0.307097 3.889787 0
M  V30 41 H 0.932521 0.317769 4.836604 0
M  V30 42 H 2.974329 1.977887 3.293489 0
M  V30 43 H 1.637784 2.689442 4.234190 0
M  V30 44 H 1.360114 0.611662 1.990785 0
M  V30 45 H 0.010903 1.181446 2.978515 0
M  V30 46 H 0.080522 3.864718 3.100570 0
M  V30 47 H 0.671130 4.718009 1.569293 0
M  V30 48 H -0.846927 3.798143 1.577946 0
M  V30 49 H 2.894240 3.192819 -0.237483 0
M  V30 50 H 2.724576 2.422626 -2.709619 0
M  V30 51 H 1.348833 1.264520 -4.484068 0
M  V30 52 H -3.424853 -0.402303 -5.462355 0
M  V30 53 H -5.192466 -2.297152 -4.830205 0
M  V30 54 H -6.427888 -4.206663 -3.755793 0
M  V30 55 H -3.368507 -4.633786 -0.850291 0
M  V30 56 H -0.005426 -2.249632 -1.073594 0
M  V30 57 H 0.539345 -4.418476 -1.121179 0
M  V30 58 H -1.125417 -4.820571 -1.619636 0
M  V30 59 H 0.135568 -5.248129 0.973290 0
M  V30 60 H -1.567121 -5.563825 0.519822 0
M  V30 61 H -2.118538 -3.868728 1.934473 0
M  V30 62 H -0.409432 -3.381817 2.181423 0
M  V30 63 H -2.471935 -2.082605 0.511068 0
M  V30 64 H -0.828360 -1.562165 0.897458 0
M  V30 END ATOM
M  V30 BEGIN BOND
M  V30 1 1 1 2
M  V30 2 1 2 3
M  V30 3 1 2 4
M  V30 4 1 4 5
M  V30 5 1 5 6
M  V30 6 1 6 7
M  V30 7 1 7 8
M  V30 8 1 7 9
M  V30 9 2 9 10
M  V30 10 1 10 11
M  V30 11 2 11 12
M  V30 12 1 12 13
M  V30 13 1 13 14
M  V30 14 2 14 15
M  V30 15 1 15 16
M  V30 16 2 16 17
M  V30 17 1 17 18
M  V30 18 2 18 19
M  V30 19 1 19 20
M  V30 20 2 20 21
M  V30 21 1 21 22
M  V30 22 2 22 23
M  V30 23 1 23 24
M  V30 24 1 24 25
M  V30 25 1 25 26
M  V30 26 1 26 27
M  V30 27 1 27 28
M  V30 28 1 28 29
M  V30 29 1 24 30
M  V30 30 2 30 31
M  V30 31 1 12 32
M  V30 32 2 32 33
M  V30 33 1 33 9
M  V30 34 1 31 14
M  V30 35 1 30 17
M  V30 36 1 23 18
M  V30 37 1 29 25
M  V30 38 1 1 34
M  V30 39 1 1 35
M  V30 40 1 1 36
M  V30 41 1 3 37
M  V30 42 1 3 38
M  V30 43 1 3 39
M  V30 44 1 4 40
M  V30 45 1 4 41
M  V30 46 1 5 42
M  V30 47 1 5 43
M  V30 48 1 6 44
M  V30 49 1 6 45
M  V30 50 1 8 46
M  V30 51 1 8 47
M  V30 52 1 8 48
M  V30 53 1 10 49
M  V30 54 1 11 50
M  V30 55 1 13 51
M  V30 56 1 16 52
M  V30 57 1 19 53
M  V30 58 1 20 54
M  V30 59 1 22 55
M  V30 60 1 25 56
M  V30 61 1 26 57
M  V30 62 1 26 58
M  V30 63 1 27 59
M  V30 64 1 27 60
M  V30 65 1 28 61
M  V30 66 1 28 62
M  V30 67 1 29 63
M  V30 68 1 29 64
M  V30 END BOND
M  V30 END CTAB
M  END
>  <Dataset>  (684) 
ChEMBL_Kinases

>  <Ligand_Instance>  (684) 
nan

>  <PDB_ID>  (684) 
nan

>  <Standardized_SMILES>  (684) 
CN(C)CCCN(C)c1ccc(Nc2ncc3c4ccncc4n(C4CCCC4)c3n2)nn1

>  <Name>  (684) 
nan

>  <Pocket>  (684) 
nan

>  <ATP_Site>  (684) 
nan

>  <Peripheral>  (684) 
nan

>  <Num_H_Atoms_ProtBoundConf>  (684) 
nan

>  <Num_Resolved_Atoms>  (684) 
nan

>  <Num_Not_Resolved_Atoms>  (684) 
nan

$$$$
CHEMBL4553926
     RDKit          3D

  0  0  0  0  0  0  0  0  0  0999 V3000
M  V30 BEGIN CTAB
M  V30 COUNTS 58 60 0 0 0
M  V30 BEGIN ATOM
M  V30 1 C 0.948043 3.039726 3.271926 0
M  V30 2 O 1.619538 2.602905 4.438357 0
M  V30 3 C 2.186132 1.337838 4.451615 0
M  V30 4 C 2.802935 1.053721 5.652622 0
M  V30 5 C 3.443426 -0.167289 5.894326 0
M  V30 6 C 3.411362 -1.066020 4.840133 0
M  V30 7 C 2.800310 -0.803707 3.629579 0
M  V30 8 C 2.804468 -1.821638 2.546666 0 CFG=1
M  V30 9 C 3.234537 -3.177449 3.057510 0
M  V30 10 N 1.478608 -1.850819 1.982250 0
M  V30 11 C 1.130103 -1.555934 0.642242 0
M  V30 12 O 2.204476 -1.275729 0.087960 0
M  V30 13 C -0.252733 -1.624057 0.202900 0
M  V30 14 C -1.222354 -1.963206 1.114411 0
M  V30 15 C -2.541285 -2.029499 0.715257 0
M  V30 16 C -2.929686 -1.760899 -0.597395 0
M  V30 17 C -4.342993 -1.839978 -0.981355 0
M  V30 18 C -4.935814 -1.082090 -1.950138 0
M  V30 19 C -6.272508 -1.192301 -2.275315 0
M  V30 20 N -7.040665 -2.085652 -1.613745 0
M  V30 21 C -6.448481 -2.832862 -0.656022 0
M  V30 22 C -5.121940 -2.755334 -0.300844 0
M  V30 23 C -1.965365 -1.417632 -1.529142 0
M  V30 24 C -0.637474 -1.360028 -1.089737 0
M  V30 25 N 0.322266 -0.998193 -2.103616 0
M  V30 26 C -0.074425 -0.721185 -3.462745 0
M  V30 27 C 1.040233 -0.368159 -4.384297 0
M  V30 28 C 1.735992 0.874294 -3.880026 0
M  V30 29 N 0.862429 2.003934 -3.798531 0
M  V30 30 C 2.185113 0.416491 3.448732 0
M  V30 31 H -0.125625 2.747521 3.263499 0
M  V30 32 H 1.462445 2.707515 2.349211 0
M  V30 33 H 0.958411 4.166296 3.261005 0
M  V30 34 H 2.862875 1.722606 6.526246 0
M  V30 35 H 3.934547 -0.407185 6.835333 0
M  V30 36 H 3.900884 -2.036561 4.986706 0
M  V30 37 H 3.573324 -1.516623 1.810029 0
M  V30 38 H 3.177174 -3.858192 2.161012 0
M  V30 39 H 4.315996 -3.106245 3.293924 0
M  V30 40 H 2.631956 -3.562822 3.887188 0
M  V30 41 H 0.807902 -2.132928 2.746326 0
M  V30 42 H -1.091134 -2.195353 2.147817 0
M  V30 43 H -3.348399 -2.290084 1.383600 0
M  V30 44 H -4.332211 -0.371866 -2.477899 0
M  V30 45 H -6.665716 -0.554943 -3.055467 0
M  V30 46 H -7.128786 -3.536180 -0.160587 0
M  V30 47 H -4.802216 -3.424302 0.487152 0
M  V30 48 H -2.251172 -1.212026 -2.530900 0
M  V30 49 H 1.348439 -0.900806 -1.982186 0
M  V30 50 H -0.735018 -1.525730 -3.870383 0
M  V30 51 H -0.752044 0.180440 -3.419178 0
M  V30 52 H 0.608306 -0.175271 -5.378646 0
M  V30 53 H 1.774540 -1.191133 -4.523757 0
M  V30 54 H 2.601643 1.101036 -4.568243 0
M  V30 55 H 2.184435 0.723786 -2.878343 0
M  V30 56 H 0.625907 2.302439 -2.825835 0
M  V30 57 H 0.093087 2.036354 -4.474831 0
M  V30 58 H 1.690810 0.693157 2.540892 0
M  V30 END ATOM
M  V30 BEGIN BOND
M  V30 1 1 1 2
M  V30 2 1 2 3
M  V30 3 2 3 4
M  V30 4 1 4 5
M  V30 5 2 5 6
M  V30 6 1 6 7
M  V30 7 1 7 8
M  V30 8 1 8 9
M  V30 9 1 8 10
M  V30 10 1 10 11
M  V30 11 2 11 12
M  V30 12 1 11 13
M  V30 13 2 13 14
M  V30 14 1 14 15
M  V30 15 2 15 16
M  V30 16 1 16 17
M  V30 17 2 17 18
M  V30 18 1 18 19
M  V30 19 2 19 20
M  V30 20 1 20 21
M  V30 21 2 21 22
M  V30 22 1 16 23
M  V30 23 2 23 24
M  V30 24 1 24 25
M  V30 25 1 25 26
M  V30 26 1 26 27
M  V30 27 1 27 28
M  V30 28 1 28 29
M  V30 29 2 7 30
M  V30 30 1 30 3
M  V30 31 1 24 13
M  V30 32 1 22 17
M  V30 33 1 1 31
M  V30 34 1 1 32
M  V30 35 1 1 33
M  V30 36 1 4 34
M  V30 37 1 5 35
M  V30 38 1 6 36
M  V30 39 1 8 37 CFG=3
M  V30 40 1 9 38
M  V30 41 1 9 39
M  V30 42 1 9 40
M  V30 43 1 10 41
M  V30 44 1 14 42
M  V30 45 1 15 43
M  V30 46 1 18 44
M  V30 47 1 19 45
M  V30 48 1 21 46
M  V30 49 1 22 47
M  V30 50 1 23 48
M  V30 51 1 25 49
M  V30 52 1 26 50
M  V30 53 1 26 51
M  V30 54 1 27 52
M  V30 55 1 27 53
M  V30 56 1 28 54
M  V30 57 1 28 55
M  V30 58 1 29 56
M  V30 59 1 29 57
M  V30 60 1 30 58
M  V30 END BOND
M  V30 END CTAB
M  END
>  <Dataset>  (685) 
ChEMBL_Kinases

>  <Ligand_Instance>  (685) 
nan

>  <PDB_ID>  (685) 
nan

>  <Standardized_SMILES>  (685) 
COc1cccc([C@@H](C)NC(=O)c2ccc(-c3ccncc3)cc2NCCCN)c1

>  <Name>  (685) 
nan

>  <Pocket>  (685) 
nan

>  <ATP_Site>  (685) 
nan

>  <Peripheral>  (685) 
nan

>  <Num_H_Atoms_ProtBoundConf>  (685) 
nan

>  <Num_Resolved_Atoms>  (685) 
nan

>  <Num_Not_Resolved_Atoms>  (685) 
nan

$$$$
CHEMBL221595
     RDKit          3D

  0  0  0  0  0  0  0  0  0  0999 V3000
M  V30 BEGIN CTAB
M  V30 COUNTS 56 60 0 0 0
M  V30 BEGIN ATOM
M  V30 1 O 1.658114 3.389261 3.503861 0
M  V30 2 C 2.001003 2.276062 2.974355 0
M  V30 3 C 2.841989 1.279171 3.620929 0
M  V30 4 C 3.428409 1.309279 4.873024 0
M  V30 5 C 4.189114 0.217471 5.235642 0
M  V30 6 C 4.358867 -0.856965 4.389812 0
M  V30 7 C 3.768754 -0.884869 3.132779 0
M  V30 8 C 3.007464 0.208559 2.770497 0
M  V30 9 C 2.260406 0.528303 1.562314 0
M  V30 10 O 2.123538 -0.154177 0.512022 0
M  V30 11 N 1.642735 1.802229 1.691593 0
M  V30 12 C 0.819665 2.582428 0.794089 0
M  V30 13 C -0.634132 2.370492 0.892347 0
M  V30 14 C -1.198125 1.034603 0.631428 0
M  V30 15 N -0.982352 0.435778 -0.641499 0
M  V30 16 C -1.684646 -0.804763 -0.653275 0
M  V30 17 C -2.878960 -0.537979 -1.337884 0
M  V30 18 C -3.879869 -1.491226 -1.571362 0
M  V30 19 C -3.671373 -2.788241 -1.090540 0
M  V30 20 O -4.496396 -3.723145 -1.240884 0
M  V30 21 N -2.496717 -2.980228 -0.437689 0
M  V30 22 C -2.232511 -4.277392 0.069105 0
M  V30 23 C -1.230274 -5.169853 -0.249056 0
M  V30 24 C -1.170587 -6.398599 0.368460 0
M  V30 25 C -2.107222 -6.766680 1.316657 0
M  V30 26 C -3.127593 -5.880245 1.653219 0
M  V30 27 C -3.175678 -4.632589 1.016004 0
M  V30 28 Cl -4.534011 -3.678167 1.593159 0
M  V30 29 N -1.551942 -2.084961 -0.216110 0
M  V30 30 C -0.331883 0.725726 -1.872237 0
M  V30 31 C -0.372427 1.972220 -2.495575 0
M  V30 32 C 0.211525 2.315697 -3.682334 0
M  V30 33 C 0.909423 1.305884 -4.312555 0
M  V30 34 F 1.504034 1.612153 -5.492188 0
M  V30 35 C 0.987057 0.067251 -3.757745 0
M  V30 36 C 0.382890 -0.232738 -2.560049 0
M  V30 37 Cl 0.605790 -1.856059 -2.011206 0
M  V30 38 H 3.346534 2.106290 5.591553 0
M  V30 39 H 4.669017 0.205580 6.220050 0
M  V30 40 H 4.961934 -1.702500 4.697506 0
M  V30 41 H 3.863037 -1.684514 2.434842 0
M  V30 42 H 1.254872 2.490053 -0.242424 0
M  V30 43 H 0.979496 3.692960 0.997009 0
M  V30 44 H -0.920721 2.617175 1.967892 0
M  V30 45 H -1.153130 3.159355 0.314354 0
M  V30 46 H -2.322453 1.148451 0.753899 0
M  V30 47 H -0.959398 0.294202 1.458994 0
M  V30 48 H -3.254109 0.395073 -1.797138 0
M  V30 49 H -4.812048 -1.371535 -2.079768 0
M  V30 50 H -0.555021 -4.782071 -0.998831 0
M  V30 51 H -0.337120 -6.998520 0.025748 0
M  V30 52 H -2.001602 -7.756975 1.767666 0
M  V30 53 H -3.817838 -6.247180 2.402814 0
M  V30 54 H -0.930421 2.734043 -1.978495 0
M  V30 55 H 0.103803 3.319484 -4.053115 0
M  V30 56 H 1.564593 -0.658925 -4.338819 0
M  V30 END ATOM
M  V30 BEGIN BOND
M  V30 1 2 1 2
M  V30 2 1 2 3
M  V30 3 2 3 4
M  V30 4 1 4 5
M  V30 5 2 5 6
M  V30 6 1 6 7
M  V30 7 2 7 8
M  V30 8 1 8 9
M  V30 9 2 9 10
M  V30 10 1 9 11
M  V30 11 1 11 12
M  V30 12 1 12 13
M  V30 13 1 13 14
M  V30 14 1 14 15
M  V30 15 1 15 16
M  V30 16 1 16 17
M  V30 17 2 17 18
M  V30 18 1 18 19
M  V30 19 2 19 20
M  V30 20 1 19 21
M  V30 21 1 21 22
M  V30 22 2 22 23
M  V30 23 1 23 24
M  V30 24 2 24 25
M  V30 25 1 25 26
M  V30 26 2 26 27
M  V30 27 1 27 28
M  V30 28 1 21 29
M  V30 29 1 15 30
M  V30 30 2 30 31
M  V30 31 1 31 32
M  V30 32 2 32 33
M  V30 33 1 33 34
M  V30 34 1 33 35
M  V30 35 2 35 36
M  V30 36 1 36 37
M  V30 37 1 11 2
M  V30 38 2 29 16
M  V30 39 1 36 30
M  V30 40 1 8 3
M  V30 41 1 27 22
M  V30 42 1 4 38
M  V30 43 1 5 39
M  V30 44 1 6 40
M  V30 45 1 7 41
M  V30 46 1 12 42
M  V30 47 1 12 43
M  V30 48 1 13 44
M  V30 49 1 13 45
M  V30 50 1 14 46
M  V30 51 1 14 47
M  V30 52 1 17 48
M  V30 53 1 18 49
M  V30 54 1 23 50
M  V30 55 1 24 51
M  V30 56 1 25 52
M  V30 57 1 26 53
M  V30 58 1 31 54
M  V30 59 1 32 55
M  V30 60 1 35 56
M  V30 END BOND
M  V30 END CTAB
M  END
>  <Dataset>  (686) 
ChEMBL_Kinases

>  <Ligand_Instance>  (686) 
nan

>  <PDB_ID>  (686) 
nan

>  <Standardized_SMILES>  (686) 
O=C1c2ccccc2C(=O)N1CCCN(c1ccc(=O)n(-c2ccccc2Cl)n1)c1ccc(F)cc1Cl

>  <Name>  (686) 
nan

>  <Pocket>  (686) 
nan

>  <ATP_Site>  (686) 
nan

>  <Peripheral>  (686) 
nan

>  <Num_H_Atoms_ProtBoundConf>  (686) 
nan

>  <Num_Resolved_Atoms>  (686) 
nan

>  <Num_Not_Resolved_Atoms>  (686) 
nan

$$$$
CHEMBL221633
     RDKit          3D

  0  0  0  0  0  0  0  0  0  0999 V3000
M  V30 BEGIN CTAB
M  V30 COUNTS 51 55 0 0 0
M  V30 BEGIN ATOM
M  V30 1 C 5.278412 -7.537903 3.163695 0
M  V30 2 O 4.577433 -6.504908 2.524947 0
M  V30 3 C 4.327276 -6.474060 1.160874 0
M  V30 4 O 4.774381 -7.449583 0.503222 0
M  V30 5 C 3.585682 -5.340158 0.623286 0
M  V30 6 C 3.134715 -4.314652 1.426123 0
M  V30 7 C 2.436313 -3.253714 0.896689 0
M  V30 8 C 2.155402 -3.160356 -0.437171 0
M  V30 9 C 1.486864 -2.211247 -1.167361 0
M  V30 10 C 0.837976 -0.970646 -0.802149 0
M  V30 11 C 0.631795 -0.267145 0.353775 0
M  V30 12 C -0.074444 0.899361 0.133502 0
M  V30 13 C -0.501781 1.899574 0.989916 0
M  V30 14 C -1.207000 2.986477 0.507989 0
M  V30 15 C -1.681705 4.069851 1.366001 0
M  V30 16 N -2.979415 3.922741 1.929429 0
M  V30 17 C -3.180629 2.795084 2.764004 0
M  V30 18 C -3.852321 1.615866 2.106725 0
M  V30 19 O -4.561143 1.912590 0.972777 0
M  V30 20 C -5.124228 3.176518 0.976340 0
M  V30 21 C -4.086073 4.267885 1.107323 0
M  V30 22 C -1.451838 3.005682 -0.863411 0
M  V30 23 C -1.016258 1.997364 -1.698724 0
M  V30 24 C -0.311020 0.907550 -1.226495 0
M  V30 25 N 0.240776 -0.207099 -1.737674 0
M  V30 26 N 1.554126 -2.700119 -2.416560 0
M  V30 27 N 2.202687 -3.846244 -2.465970 0
M  V30 28 C 2.612569 -4.194726 -1.233454 0
M  V30 29 C 3.314148 -5.268101 -0.727206 0
M  V30 30 H 5.200709 -7.325801 4.266896 0
M  V30 31 H 4.741933 -8.522464 3.032907 0
M  V30 32 H 6.339611 -7.610140 2.914020 0
M  V30 33 H 3.371117 -4.413563 2.480289 0
M  V30 34 H 2.116166 -2.498160 1.559186 0
M  V30 35 H 0.963175 -0.560568 1.310820 0
M  V30 36 H -0.280624 1.825238 2.037040 0
M  V30 37 H -0.953784 4.219318 2.192708 0
M  V30 38 H -1.680811 5.004022 0.760513 0
M  V30 39 H -2.240875 2.519078 3.270556 0
M  V30 40 H -3.862473 3.105870 3.600742 0
M  V30 41 H -4.558088 1.096356 2.806381 0
M  V30 42 H -3.070291 0.873101 1.886459 0
M  V30 43 H -5.887152 3.201072 1.775891 0
M  V30 44 H -5.637061 3.322005 0.007945 0
M  V30 45 H -3.733327 4.641861 0.128843 0
M  V30 46 H -4.614840 5.125867 1.579765 0
M  V30 47 H -1.999884 3.824557 -1.324674 0
M  V30 48 H -1.217911 2.033782 -2.758964 0
M  V30 49 H 0.138644 -0.333713 -2.762349 0
M  V30 50 H 2.346451 -4.363082 -3.360485 0
M  V30 51 H 3.644317 -6.047228 -1.410271 0
M  V30 END ATOM
M  V30 BEGIN BOND
M  V30 1 1 1 2
M  V30 2 1 2 3
M  V30 3 2 3 4
M  V30 4 1 3 5
M  V30 5 2 5 6
M  V30 6 1 6 7
M  V30 7 2 7 8
M  V30 8 1 8 9
M  V30 9 1 9 10
M  V30 10 2 10 11
M  V30 11 1 11 12
M  V30 12 2 12 13
M  V30 13 1 13 14
M  V30 14 1 14 15
M  V30 15 1 15 16
M  V30 16 1 16 17
M  V30 17 1 17 18
M  V30 18 1 18 19
M  V30 19 1 19 20
M  V30 20 1 20 21
M  V30 21 2 14 22
M  V30 22 1 22 23
M  V30 23 2 23 24
M  V30 24 1 24 25
M  V30 25 2 9 26
M  V30 26 1 26 27
M  V30 27 1 27 28
M  V30 28 2 28 29
M  V30 29 1 29 5
M  V30 30 1 28 8
M  V30 31 1 25 10
M  V30 32 1 24 12
M  V30 33 1 21 16
M  V30 34 1 1 30
M  V30 35 1 1 31
M  V30 36 1 1 32
M  V30 37 1 6 33
M  V30 38 1 7 34
M  V30 39 1 11 35
M  V30 40 1 13 36
M  V30 41 1 15 37
M  V30 42 1 15 38
M  V30 43 1 17 39
M  V30 44 1 17 40
M  V30 45 1 18 41
M  V30 46 1 18 42
M  V30 47 1 20 43
M  V30 48 1 20 44
M  V30 49 1 21 45
M  V30 50 1 21 46
M  V30 51 1 22 47
M  V30 52 1 23 48
M  V30 53 1 25 49
M  V30 54 1 27 50
M  V30 55 1 29 51
M  V30 END BOND
M  V30 END CTAB
M  END
>  <Dataset>  (687) 
ChEMBL_Kinases

>  <Ligand_Instance>  (687) 
nan

>  <PDB_ID>  (687) 
nan

>  <Standardized_SMILES>  (687) 
COC(=O)c1ccc2c(-c3cc4cc(CN5CCOCC5)ccc4[nH]3)n[nH]c2c1

>  <Name>  (687) 
nan

>  <Pocket>  (687) 
nan

>  <ATP_Site>  (687) 
nan

>  <Peripheral>  (687) 
nan

>  <Num_H_Atoms_ProtBoundConf>  (687) 
nan

>  <Num_Resolved_Atoms>  (687) 
nan

>  <Num_Not_Resolved_Atoms>  (687) 
nan

$$$$
CHEMBL221648
     RDKit          3D

  0  0  0  0  0  0  0  0  0  0999 V3000
M  V30 BEGIN CTAB
M  V30 COUNTS 61 64 0 0 0
M  V30 BEGIN ATOM
M  V30 1 O -2.069579 -2.672359 3.325353 0
M  V30 2 C -1.827252 -2.294358 2.118310 0
M  V30 3 N -0.576494 -1.690403 1.940406 0
M  V30 4 C 0.173464 -1.630216 3.158540 0
M  V30 5 C 1.500243 -0.975591 3.094619 0
M  V30 6 C 2.499435 -1.513789 2.153573 0
M  V30 7 N 2.233603 -1.442805 0.758904 0
M  V30 8 C 2.103441 -0.078481 0.291657 0
M  V30 9 C 3.121544 0.461508 -0.501495 0
M  V30 10 C 3.048393 1.776349 -0.971982 0
M  V30 11 C 1.962972 2.564320 -0.656792 0
M  V30 12 O 1.747829 3.760465 -0.998028 0
M  V30 13 N 1.033083 1.995021 0.098720 0
M  V30 14 C -0.191436 2.582518 0.583467 0
M  V30 15 C -0.190596 2.794821 1.964945 0
M  V30 16 C -1.249607 3.343516 2.656444 0
M  V30 17 C -2.378193 3.704495 1.941365 0
M  V30 18 C -2.383698 3.497096 0.580953 0
M  V30 19 C -1.325298 2.949991 -0.104349 0
M  V30 20 Cl -1.236376 2.647907 -1.820456 0
M  V30 21 N 1.096420 0.763497 0.542165 0
M  V30 22 C 2.077756 -2.374317 -0.274396 0
M  V30 23 C 1.115480 -2.486312 -1.240731 0
M  V30 24 C 1.047583 -3.426738 -2.237128 0
M  V30 25 C 2.064438 -4.370907 -2.276148 0
M  V30 26 C 3.093355 -4.337613 -1.331303 0
M  V30 27 C 3.081025 -3.353570 -0.361550 0
M  V30 28 Cl 4.436789 -3.426273 0.769362 0
M  V30 29 C -2.865537 -2.532183 1.082307 0
M  V30 30 C -2.265787 -3.478768 0.070835 0
M  V30 31 C -2.674367 -3.183417 -1.331933 0
M  V30 32 N -2.402718 -1.840473 -1.713485 0
M  V30 33 C -2.695593 -0.816014 -0.782376 0
M  V30 34 C -3.397242 -1.314903 0.429848 0
M  V30 35 H -0.458008 -1.424648 0.965717 0
M  V30 36 H 0.305975 -2.664093 3.599001 0
M  V30 37 H -0.507537 -1.131025 3.909147 0
M  V30 38 H 1.387957 0.143592 3.029080 0
M  V30 39 H 1.952631 -1.098817 4.130395 0
M  V30 40 H 3.462672 -0.947279 2.342277 0
M  V30 41 H 2.741481 -2.551835 2.497660 0
M  V30 42 H 4.003641 -0.101771 -0.782172 0
M  V30 43 H 3.810696 2.247521 -1.590433 0
M  V30 44 H 0.657805 2.540892 2.612068 0
M  V30 45 H -1.233836 3.498310 3.720121 0
M  V30 46 H -3.224971 4.131756 2.438251 0
M  V30 47 H -3.246220 3.760986 -0.040905 0
M  V30 48 H 0.333980 -1.745732 -1.211330 0
M  V30 49 H 0.250198 -3.425843 -2.941313 0
M  V30 50 H 2.029192 -5.116785 -3.055119 0
M  V30 51 H 3.859427 -5.082524 -1.390460 0
M  V30 52 H -3.746254 -3.041302 1.574896 0
M  V30 53 H -2.611939 -4.516837 0.311173 0
M  V30 54 H -1.156791 -3.531150 0.165348 0
M  V30 55 H -3.721111 -3.442194 -1.556651 0
M  V30 56 H -2.005924 -3.824610 -1.983007 0
M  V30 57 H -2.511361 -1.629727 -2.708246 0
M  V30 58 H -3.355688 -0.023066 -1.242903 0
M  V30 59 H -1.742247 -0.262706 -0.585835 0
M  V30 60 H -4.457722 -1.543030 0.092505 0
M  V30 61 H -3.550945 -0.480715 1.176542 0
M  V30 END ATOM
M  V30 BEGIN BOND
M  V30 1 2 1 2
M  V30 2 1 2 3
M  V30 3 1 3 4
M  V30 4 1 4 5
M  V30 5 1 5 6
M  V30 6 1 6 7
M  V30 7 1 7 8
M  V30 8 1 8 9
M  V30 9 2 9 10
M  V30 10 1 10 11
M  V30 11 2 11 12
M  V30 12 1 11 13
M  V30 13 1 13 14
M  V30 14 2 14 15
M  V30 15 1 15 16
M  V30 16 2 16 17
M  V30 17 1 17 18
M  V30 18 2 18 19
M  V30 19 1 19 20
M  V30 20 1 13 21
M  V30 21 1 7 22
M  V30 22 2 22 23
M  V30 23 1 23 24
M  V30 24 2 24 25
M  V30 25 1 25 26
M  V30 26 2 26 27
M  V30 27 1 27 28
M  V30 28 1 2 29
M  V30 29 1 29 30
M  V30 30 1 30 31
M  V30 31 1 31 32
M  V30 32 1 32 33
M  V30 33 1 33 34
M  V30 34 2 21 8
M  V30 35 1 27 22
M  V30 36 1 34 29
M  V30 37 1 19 14
M  V30 38 1 3 35
M  V30 39 1 4 36
M  V30 40 1 4 37
M  V30 41 1 5 38
M  V30 42 1 5 39
M  V30 43 1 6 40
M  V30 44 1 6 41
M  V30 45 1 9 42
M  V30 46 1 10 43
M  V30 47 1 15 44
M  V30 48 1 16 45
M  V30 49 1 17 46
M  V30 50 1 18 47
M  V30 51 1 23 48
M  V30 52 1 24 49
M  V30 53 1 25 50
M  V30 54 1 26 51
M  V30 55 1 29 52
M  V30 56 1 30 53
M  V30 57 1 30 54
M  V30 58 1 31 55
M  V30 59 1 31 56
M  V30 60 1 32 57
M  V30 61 1 33 58
M  V30 62 1 33 59
M  V30 63 1 34 60
M  V30 64 1 34 61
M  V30 END BOND
M  V30 END CTAB
M  END
>  <Dataset>  (688) 
ChEMBL_Kinases

>  <Ligand_Instance>  (688) 
nan

>  <PDB_ID>  (688) 
nan

>  <Standardized_SMILES>  (688) 
O=C(NCCCN(c1ccc(=O)n(-c2ccccc2Cl)n1)c1ccccc1Cl)C1CCNCC1

>  <Name>  (688) 
nan

>  <Pocket>  (688) 
nan

>  <ATP_Site>  (688) 
nan

>  <Peripheral>  (688) 
nan

>  <Num_H_Atoms_ProtBoundConf>  (688) 
nan

>  <Num_Resolved_Atoms>  (688) 
nan

>  <Num_Not_Resolved_Atoms>  (688) 
nan

$$$$
CHEMBL3702191
     RDKit          3D

  0  0  0  0  0  0  0  0  0  0999 V3000
M  V30 BEGIN CTAB
M  V30 COUNTS 54 58 0 0 0
M  V30 BEGIN ATOM
M  V30 1 C 1.363351 -2.394506 4.835945 0
M  V30 2 N 2.705464 -2.103322 4.394462 0
M  V30 3 C 3.770360 -2.194080 5.365697 0
M  V30 4 C 5.131376 -1.877320 4.810028 0
M  V30 5 O 5.153123 -0.569719 4.306908 0
M  V30 6 C 2.731982 -1.763464 3.034956 0
M  V30 7 C 1.865425 -0.760276 2.577172 0
M  V30 8 C 1.751998 -0.306308 1.257756 0
M  V30 9 C 2.602407 -0.943132 0.344766 0
M  V30 10 N 2.576844 -0.594825 -1.054452 0
M  V30 11 C 1.611133 0.407758 -1.345690 0
M  V30 12 N 1.672714 1.746246 -1.564100 0
M  V30 13 C 0.523036 2.432440 -1.803048 0
M  V30 14 C -0.708210 1.816700 -1.831957 0
M  V30 15 C -1.992143 2.225892 -2.035978 0
M  V30 16 C -2.533568 3.476471 -2.307427 0
M  V30 17 C -3.885755 3.565633 -2.466493 0
M  V30 18 N -4.667041 2.471640 -2.361267 0
M  V30 19 C -4.126197 1.248796 -2.094677 0
M  V30 20 C -2.768070 1.080864 -1.922760 0
M  V30 21 N -2.063091 -0.016576 -1.664115 0
M  V30 22 C -2.399456 -1.371564 -1.474205 0
M  V30 23 C -3.178343 -1.746803 -0.246120 0
M  V30 24 C -3.054839 -3.274379 -0.416211 0
M  V30 25 C -3.478060 -3.414563 -1.873946 0
M  V30 26 C -3.134950 -2.082339 -2.551668 0
M  V30 27 C -0.775798 0.477975 -1.613699 0
M  V30 28 N 0.402512 -0.141360 -1.383467 0
M  V30 29 N 3.417478 -1.896130 0.812593 0
M  V30 30 N 3.495447 -2.295720 2.066559 0
M  V30 31 H 0.695120 -1.510652 4.892866 0
M  V30 32 H 0.872847 -3.126997 4.161365 0
M  V30 33 H 1.359241 -2.882213 5.836495 0
M  V30 34 H 3.583578 -1.454759 6.196669 0
M  V30 35 H 3.766839 -3.234353 5.781546 0
M  V30 36 H 5.452956 -2.578073 4.033372 0
M  V30 37 H 5.844396 -1.895736 5.670714 0
M  V30 38 H 5.025278 0.119996 4.997474 0
M  V30 39 H 1.184597 -0.238025 3.269310 0
M  V30 40 H 1.080467 0.465707 0.955733 0
M  V30 41 H 3.230789 -1.085694 -1.681049 0
M  V30 42 H 0.618353 3.492022 -1.972963 0
M  V30 43 H -1.882483 4.336041 -2.384412 0
M  V30 44 H -4.246958 4.561332 -2.676660 0
M  V30 45 H -4.778207 0.394803 -2.010328 0
M  V30 46 H -1.443156 -1.979747 -1.351865 0
M  V30 47 H -4.245162 -1.542769 -0.268372 0
M  V30 48 H -2.716059 -1.437159 0.709355 0
M  V30 49 H -3.669059 -3.834298 0.281994 0
M  V30 50 H -1.959352 -3.538077 -0.320703 0
M  V30 51 H -4.573929 -3.574240 -1.852933 0
M  V30 52 H -2.907528 -4.254832 -2.318601 0
M  V30 53 H -4.016797 -1.606484 -2.965289 0
M  V30 54 H -2.393940 -2.323275 -3.370582 0
M  V30 END ATOM
M  V30 BEGIN BOND
M  V30 1 1 1 2
M  V30 2 1 2 3
M  V30 3 1 3 4
M  V30 4 1 4 5
M  V30 5 1 2 6
M  V30 6 2 6 7
M  V30 7 1 7 8
M  V30 8 2 8 9
M  V30 9 1 9 10
M  V30 10 1 10 11
M  V30 11 2 11 12
M  V30 12 1 12 13
M  V30 13 2 13 14
M  V30 14 1 14 15
M  V30 15 2 15 16
M  V30 16 1 16 17
M  V30 17 2 17 18
M  V30 18 1 18 19
M  V30 19 2 19 20
M  V30 20 1 20 21
M  V30 21 1 21 22
M  V30 22 1 22 23
M  V30 23 1 23 24
M  V30 24 1 24 25
M  V30 25 1 25 26
M  V30 26 1 21 27
M  V30 27 2 27 28
M  V30 28 1 9 29
M  V30 29 2 29 30
M  V30 30 1 30 6
M  V30 31 1 28 11
M  V30 32 1 27 14
M  V30 33 1 20 15
M  V30 34 1 26 22
M  V30 35 1 1 31
M  V30 36 1 1 32
M  V30 37 1 1 33
M  V30 38 1 3 34
M  V30 39 1 3 35
M  V30 40 1 4 36
M  V30 41 1 4 37
M  V30 42 1 5 38
M  V30 43 1 7 39
M  V30 44 1 8 40
M  V30 45 1 10 41
M  V30 46 1 13 42
M  V30 47 1 16 43
M  V30 48 1 17 44
M  V30 49 1 19 45
M  V30 50 1 22 46
M  V30 51 1 23 47
M  V30 52 1 23 48
M  V30 53 1 24 49
M  V30 54 1 24 50
M  V30 55 1 25 51
M  V30 56 1 25 52
M  V30 57 1 26 53
M  V30 58 1 26 54
M  V30 END BOND
M  V30 END CTAB
M  END
>  <Dataset>  (689) 
ChEMBL_Kinases

>  <Ligand_Instance>  (689) 
nan

>  <PDB_ID>  (689) 
nan

>  <Standardized_SMILES>  (689) 
CN(CCO)c1ccc(Nc2ncc3c4ccncc4n(C4CCCC4)c3n2)nn1

>  <Name>  (689) 
nan

>  <Pocket>  (689) 
nan

>  <ATP_Site>  (689) 
nan

>  <Peripheral>  (689) 
nan

>  <Num_H_Atoms_ProtBoundConf>  (689) 
nan

>  <Num_Resolved_Atoms>  (689) 
nan

>  <Num_Not_Resolved_Atoms>  (689) 
nan

$$$$
CHEMBL2216825
     RDKit          3D

  0  0  0  0  0  0  0  0  0  0999 V3000
M  V30 BEGIN CTAB
M  V30 COUNTS 60 64 0 0 0
M  V30 BEGIN ATOM
M  V30 1 C 5.476645 0.512399 0.340630 0
M  V30 2 C 4.704572 0.352737 1.641420 0 CFG=1
M  V30 3 O 5.320162 0.978271 2.706650 0
M  V30 4 C 5.015143 2.280368 2.927532 0 CFG=2
M  V30 5 C 4.161134 2.369968 4.199230 0
M  V30 6 C 3.563188 3.722001 4.047018 0
M  V30 7 O 3.078073 4.430560 4.979717 0
M  V30 8 O 3.633988 4.068140 2.688242 0
M  V30 9 C 4.113458 2.951332 1.943193 0 CFG=2
M  V30 10 C 2.988244 2.025381 1.619418 0
M  V30 11 C 3.276490 0.735776 1.468847 0
M  V30 12 C 2.260382 -0.263591 1.151337 0
M  V30 13 O 2.585733 -1.476861 1.018440 0
M  V30 14 C 0.871407 0.156724 0.990592 0
M  V30 15 C 0.585328 1.508645 1.151077 0
M  V30 16 C -0.730991 1.910663 0.999236 0
M  V30 17 C -1.718567 0.978842 0.696596 0
M  V30 18 C -1.430356 -0.374383 0.536267 0
M  V30 19 C -2.495525 -1.361129 0.212649 0 CFG=1
M  V30 20 C -2.711525 -1.557385 -1.260352 0
M  V30 21 C -3.894075 -2.506770 -1.369965 0 CFG=1
M  V30 22 N -4.402395 -2.569430 -2.713080 0
M  V30 23 C -3.466005 -3.019776 -3.681852 0
M  V30 24 C -5.564402 -3.436228 -2.733134 0
M  V30 25 C -3.347247 -3.804015 -0.848193 0 CFG=2
M  V30 26 O -4.262273 -4.862311 -0.920691 0
M  V30 27 C -2.851683 -3.654998 0.535744 0 CFG=1
M  V30 28 C -1.776875 -4.726521 0.769800 0
M  V30 29 O -2.329880 -2.483977 0.944327 0
M  V30 30 C -0.117366 -0.758289 0.690336 0
M  V30 31 O 0.256337 -2.081182 0.548502 0
M  V30 32 C 1.608526 2.499037 1.468349 0
M  V30 33 O 1.341735 3.717083 1.611412 0
M  V30 34 H 6.052932 1.458307 0.296979 0
M  V30 35 H 4.786353 0.379595 -0.496120 0
M  V30 36 H 6.228849 -0.305771 0.250710 0
M  V30 37 H 4.709994 -0.737225 1.860297 0
M  V30 38 H 5.942875 2.856385 3.107479 0
M  V30 39 H 4.782332 2.299058 5.111390 0
M  V30 40 H 3.337515 1.622074 4.173663 0
M  V30 41 H 4.597909 3.358958 1.047923 0
M  V30 42 H -1.007177 2.942880 1.112329 0
M  V30 43 H -2.773114 1.261607 0.569016 0
M  V30 44 H -3.452007 -0.888170 0.576726 0
M  V30 45 H -1.828060 -1.916651 -1.800944 0
M  V30 46 H -3.019548 -0.595232 -1.711608 0
M  V30 47 H -4.672577 -2.149365 -0.666779 0
M  V30 48 H -2.555397 -2.432799 -3.775143 0
M  V30 49 H -3.975043 -2.946574 -4.681032 0
M  V30 50 H -3.203048 -4.105610 -3.579011 0
M  V30 51 H -5.989982 -3.491968 -1.694974 0
M  V30 52 H -5.253774 -4.469059 -2.997990 0
M  V30 53 H -6.335592 -3.076499 -3.450016 0
M  V30 54 H -2.444215 -4.041752 -1.483408 0
M  V30 55 H -4.210034 -5.401681 -0.097858 0
M  V30 56 H -3.683823 -3.934239 1.221988 0
M  V30 57 H -1.168699 -4.785143 -0.173809 0
M  V30 58 H -2.188628 -5.723390 0.928458 0
M  V30 59 H -1.101478 -4.426076 1.608717 0
M  V30 60 H 0.638731 -2.357706 -0.351406 0
M  V30 END ATOM
M  V30 BEGIN BOND
M  V30 1 1 1 2
M  V30 2 1 2 3
M  V30 3 1 3 4
M  V30 4 1 4 5
M  V30 5 1 5 6
M  V30 6 2 6 7
M  V30 7 1 6 8
M  V30 8 1 8 9
M  V30 9 1 9 10
M  V30 10 2 10 11
M  V30 11 1 11 12
M  V30 12 2 12 13
M  V30 13 1 12 14
M  V30 14 2 14 15
M  V30 15 1 15 16
M  V30 16 2 16 17
M  V30 17 1 17 18
M  V30 18 1 18 19
M  V30 19 1 19 20
M  V30 20 1 20 21
M  V30 21 1 21 22
M  V30 22 1 22 23
M  V30 23 1 22 24
M  V30 24 1 21 25
M  V30 25 1 25 26
M  V30 26 1 25 27
M  V30 27 1 27 28
M  V30 28 1 27 29
M  V30 29 2 18 30
M  V30 30 1 30 31
M  V30 31 1 15 32
M  V30 32 2 32 33
M  V30 33 1 11 2
M  V30 34 1 30 14
M  V30 35 1 9 4
M  V30 36 1 32 10
M  V30 37 1 29 19
M  V30 38 1 1 34
M  V30 39 1 1 35
M  V30 40 1 1 36
M  V30 41 1 2 37 CFG=1
M  V30 42 1 4 38 CFG=1
M  V30 43 1 5 39
M  V30 44 1 5 40
M  V30 45 1 9 41 CFG=3
M  V30 46 1 16 42
M  V30 47 1 17 43
M  V30 48 1 19 44 CFG=1
M  V30 49 1 20 45
M  V30 50 1 20 46
M  V30 51 1 21 47 CFG=1
M  V30 52 1 23 48
M  V30 53 1 23 49
M  V30 54 1 23 50
M  V30 55 1 24 51
M  V30 56 1 24 52
M  V30 57 1 24 53
M  V30 58 1 25 54 CFG=3
M  V30 59 1 26 55
M  V30 60 1 27 56 CFG=1
M  V30 61 1 28 57
M  V30 62 1 28 58
M  V30 63 1 28 59
M  V30 64 1 31 60
M  V30 END BOND
M  V30 END CTAB
M  END
>  <Dataset>  (690) 
ChEMBL_Kinases

>  <Ligand_Instance>  (690) 
nan

>  <PDB_ID>  (690) 
nan

>  <Standardized_SMILES>  (690) 
C[C@H]1O[C@@H]2CC(=O)O[C@@H]2C2=C1C(=O)c1c(ccc([C@H]3C[C@@H](N(C)C)[C@H](O)[C@@H](C)O3)c1O)C2=O

>  <Name>  (690) 
LACTOQUINOMYCIN

>  <Pocket>  (690) 
nan

>  <ATP_Site>  (690) 
nan

>  <Peripheral>  (690) 
nan

>  <Num_H_Atoms_ProtBoundConf>  (690) 
nan

>  <Num_Resolved_Atoms>  (690) 
nan

>  <Num_Not_Resolved_Atoms>  (690) 
nan

$$$$
CHEMBL4555946
     RDKit          3D

  0  0  0  0  0  0  0  0  0  0999 V3000
M  V30 BEGIN CTAB
M  V30 COUNTS 53 56 0 0 0
M  V30 BEGIN ATOM
M  V30 1 O -0.569515 -2.325086 5.041790 0
M  V30 2 C -0.617995 -1.072952 4.794905 0
M  V30 3 C 0.189040 -0.218475 5.650352 0
M  V30 4 O 0.160748 1.145378 5.401868 0
M  V30 5 C 0.538753 1.823276 4.280913 0
M  V30 6 C 1.064959 1.416006 3.053175 0
M  V30 7 C 1.363000 2.336535 2.073428 0
M  V30 8 C 1.149906 3.679765 2.279395 0
M  V30 9 C 1.474524 4.536851 1.247648 0
M  V30 10 O 1.945749 4.123568 0.159901 0
M  V30 11 C 1.267364 5.889833 1.436054 0
M  V30 12 C 0.748017 6.277252 2.651523 0
M  V30 13 O 0.458557 5.415165 3.595798 0
M  V30 14 C 0.632939 4.130280 3.473233 0
M  V30 15 C 0.333955 3.196326 4.458751 0
M  V30 16 N -1.441691 -0.691078 3.735964 0
M  V30 17 C -2.272838 -1.388671 2.824175 0
M  V30 18 C -3.601849 -1.721051 2.937807 0
M  V30 19 C -4.225986 -2.408480 1.917090 0
M  V30 20 C -3.523975 -2.764026 0.783676 0
M  V30 21 C -2.185789 -2.445599 0.636567 0
M  V30 22 N -1.502602 -2.822245 -0.532050 0
M  V30 23 C -0.760361 -3.935743 -0.983489 0
M  V30 24 O -0.643412 -4.880320 -0.162270 0
M  V30 25 C -0.203086 -3.901260 -2.332783 0
M  V30 26 C -0.297729 -2.884257 -3.260143 0
M  V30 27 C 0.293594 -3.019750 -4.500807 0
M  V30 28 C 0.984567 -4.167336 -4.831484 0
M  V30 29 O 1.540179 -4.202085 -6.102074 0
M  V30 30 C 2.869502 -3.726026 -6.347299 0
M  V30 31 F 2.849133 -2.390841 -5.972128 0
M  V30 32 F 3.780880 -4.364333 -5.541868 0
M  V30 33 F 3.185086 -3.766730 -7.669228 0
M  V30 34 C 1.108741 -5.218699 -3.934852 0
M  V30 35 C 0.495832 -5.037860 -2.694608 0
M  V30 36 C -1.562935 -1.747939 1.678732 0
M  V30 37 H 1.256452 -0.585411 5.585303 0
M  V30 38 H -0.152077 -0.419865 6.708931 0
M  V30 39 H 1.174195 0.331628 3.045311 0
M  V30 40 H 1.763733 1.885167 1.173204 0
M  V30 41 H 1.531087 6.538100 0.609671 0
M  V30 42 H 0.592844 7.338718 2.780499 0
M  V30 43 H -0.069645 3.693653 5.355055 0
M  V30 44 H -1.527878 0.317331 3.499593 0
M  V30 45 H -4.044459 -1.384082 3.880624 0
M  V30 46 H -5.271060 -2.637304 2.071873 0
M  V30 47 H -4.058477 -3.300201 0.015401 0
M  V30 48 H -1.700261 -1.954299 -1.075754 0
M  V30 49 H -0.853666 -2.019124 -2.927166 0
M  V30 50 H 0.157389 -2.157415 -5.155126 0
M  V30 51 H 1.646997 -6.102489 -4.204125 0
M  V30 52 H 0.619662 -5.890437 -2.022055 0
M  V30 53 H -0.504035 -1.537343 1.478701 0
M  V30 END ATOM
M  V30 BEGIN BOND
M  V30 1 2 1 2
M  V30 2 1 2 3
M  V30 3 1 3 4
M  V30 4 1 4 5
M  V30 5 2 5 6
M  V30 6 1 6 7
M  V30 7 2 7 8
M  V30 8 1 8 9
M  V30 9 2 9 10
M  V30 10 1 9 11
M  V30 11 2 11 12
M  V30 12 1 12 13
M  V30 13 1 13 14
M  V30 14 2 14 15
M  V30 15 1 2 16
M  V30 16 1 16 17
M  V30 17 2 17 18
M  V30 18 1 18 19
M  V30 19 2 19 20
M  V30 20 1 20 21
M  V30 21 1 21 22
M  V30 22 1 22 23
M  V30 23 2 23 24
M  V30 24 1 23 25
M  V30 25 2 25 26
M  V30 26 1 26 27
M  V30 27 2 27 28
M  V30 28 1 28 29
M  V30 29 1 29 30
M  V30 30 1 30 31
M  V30 31 1 30 32
M  V30 32 1 30 33
M  V30 33 1 28 34
M  V30 34 2 34 35
M  V30 35 2 21 36
M  V30 36 1 15 5
M  V30 37 1 36 17
M  V30 38 1 14 8
M  V30 39 1 35 25
M  V30 40 1 3 37
M  V30 41 1 3 38
M  V30 42 1 6 39
M  V30 43 1 7 40
M  V30 44 1 11 41
M  V30 45 1 12 42
M  V30 46 1 15 43
M  V30 47 1 16 44
M  V30 48 1 18 45
M  V30 49 1 19 46
M  V30 50 1 20 47
M  V30 51 1 22 48
M  V30 52 1 26 49
M  V30 53 1 27 50
M  V30 54 1 34 51
M  V30 55 1 35 52
M  V30 56 1 36 53
M  V30 END BOND
M  V30 END CTAB
M  END
>  <Dataset>  (691) 
ChEMBL_Kinases

>  <Ligand_Instance>  (691) 
nan

>  <PDB_ID>  (691) 
nan

>  <Standardized_SMILES>  (691) 
O=C(COc1ccc2c(=O)ccoc2c1)Nc1cccc(NC(=O)c2ccc(OC(F)(F)F)cc2)c1

>  <Name>  (691) 
nan

>  <Pocket>  (691) 
nan

>  <ATP_Site>  (691) 
nan

>  <Peripheral>  (691) 
nan

>  <Num_H_Atoms_ProtBoundConf>  (691) 
nan

>  <Num_Resolved_Atoms>  (691) 
nan

>  <Num_Not_Resolved_Atoms>  (691) 
nan

$$$$
CHEMBL221745
     RDKit          3D

  0  0  0  0  0  0  0  0  0  0999 V3000
M  V30 BEGIN CTAB
M  V30 COUNTS 48 50 0 0 0
M  V30 BEGIN ATOM
M  V30 1 C 4.264832 -5.458733 1.136325 0
M  V30 2 S 5.264175 -4.479444 0.005429 0
M  V30 3 O 6.595201 -4.257474 0.668746 0
M  V30 4 O 5.487491 -5.203271 -1.268817 0
M  V30 5 C 4.517051 -2.914289 -0.243811 0
M  V30 6 C 3.562439 -2.853554 -1.260304 0
M  V30 7 C 2.927440 -1.631929 -1.516316 0
M  V30 8 C 3.213709 -0.467597 -0.791355 0
M  V30 9 C 2.456174 0.748034 -1.184154 0
M  V30 10 N 1.254080 0.832855 -0.422020 0
M  V30 11 C 1.075758 1.252089 0.916389 0
M  V30 12 O 2.118695 1.609042 1.543469 0
M  V30 13 C -0.244774 1.285052 1.580003 0
M  V30 14 C -0.268314 1.740114 2.897001 0
M  V30 15 C -1.508944 1.764927 3.500230 0
M  V30 16 N -1.565741 2.225480 4.842259 0
M  V30 17 C -2.688951 1.379807 2.900215 0
M  V30 18 C -3.937669 1.443536 3.615808 0
M  V30 19 N -4.947684 1.503829 4.173813 0
M  V30 20 C -2.588177 0.933617 1.575721 0
M  V30 21 C -3.786191 0.516214 0.884579 0
M  V30 22 C -4.763157 -0.317343 1.434341 0
M  V30 23 C -5.906777 -0.704316 0.755886 0
M  V30 24 C -6.125690 -0.259376 -0.539747 0
M  V30 25 C -5.176790 0.569548 -1.117466 0
M  V30 26 O -5.477558 0.962294 -2.405896 0
M  V30 27 C -4.050560 0.933870 -0.411484 0
M  V30 28 N -1.370425 0.900650 0.959099 0
M  V30 29 C 4.163015 -0.576654 0.201750 0
M  V30 30 C 4.800754 -1.769949 0.471232 0
M  V30 31 H 3.185766 -5.401808 0.829180 0
M  V30 32 H 4.559358 -6.519435 1.089772 0
M  V30 33 H 4.350295 -5.079505 2.176365 0
M  V30 34 H 3.297279 -3.726828 -1.859607 0
M  V30 35 H 2.187501 -1.636453 -2.322880 0
M  V30 36 H 2.210781 0.685762 -2.269498 0
M  V30 37 H 3.102935 1.648418 -1.100514 0
M  V30 38 H 0.334681 0.552192 -0.879339 0
M  V30 39 H 0.628137 2.063911 3.441078 0
M  V30 40 H -0.750911 2.432580 5.456282 0
M  V30 41 H -2.410856 2.423934 5.409036 0
M  V30 42 H -4.614599 -0.679302 2.447064 0
M  V30 43 H -6.621034 -1.341970 1.223826 0
M  V30 44 H -7.014686 -0.575400 -1.031364 0
M  V30 45 H -5.576100 0.223277 -3.087861 0
M  V30 46 H -3.342423 1.591042 -0.929584 0
M  V30 47 H 4.382291 0.315960 0.752043 0
M  V30 48 H 5.542199 -1.850617 1.249802 0
M  V30 END ATOM
M  V30 BEGIN BOND
M  V30 1 1 1 2
M  V30 2 2 2 3
M  V30 3 2 2 4
M  V30 4 1 2 5
M  V30 5 2 5 6
M  V30 6 1 6 7
M  V30 7 2 7 8
M  V30 8 1 8 9
M  V30 9 1 9 10
M  V30 10 1 10 11
M  V30 11 2 11 12
M  V30 12 1 11 13
M  V30 13 2 13 14
M  V30 14 1 14 15
M  V30 15 1 15 16
M  V30 16 2 15 17
M  V30 17 1 17 18
M  V30 18 3 18 19
M  V30 19 1 17 20
M  V30 20 1 20 21
M  V30 21 2 21 22
M  V30 22 1 22 23
M  V30 23 2 23 24
M  V30 24 1 24 25
M  V30 25 1 25 26
M  V30 26 2 25 27
M  V30 27 2 20 28
M  V30 28 1 8 29
M  V30 29 2 29 30
M  V30 30 1 30 5
M  V30 31 1 28 13
M  V30 32 1 27 21
M  V30 33 1 1 31
M  V30 34 1 1 32
M  V30 35 1 1 33
M  V30 36 1 6 34
M  V30 37 1 7 35
M  V30 38 1 9 36
M  V30 39 1 9 37
M  V30 40 1 10 38
M  V30 41 1 14 39
M  V30 42 1 16 40
M  V30 43 1 16 41
M  V30 44 1 22 42
M  V30 45 1 23 43
M  V30 46 1 24 44
M  V30 47 1 26 45
M  V30 48 1 27 46
M  V30 49 1 29 47
M  V30 50 1 30 48
M  V30 END BOND
M  V30 END CTAB
M  END
>  <Dataset>  (692) 
ChEMBL_Kinases

>  <Ligand_Instance>  (692) 
nan

>  <PDB_ID>  (692) 
nan

>  <Standardized_SMILES>  (692) 
CS(=O)(=O)c1ccc(CNC(=O)c2cc(N)c(C#N)c(-c3cccc(O)c3)n2)cc1

>  <Name>  (692) 
nan

>  <Pocket>  (692) 
nan

>  <ATP_Site>  (692) 
nan

>  <Peripheral>  (692) 
nan

>  <Num_H_Atoms_ProtBoundConf>  (692) 
nan

>  <Num_Resolved_Atoms>  (692) 
nan

>  <Num_Not_Resolved_Atoms>  (692) 
nan

$$$$
CHEMBL4553389
     RDKit          3D

  0  0  0  0  0  0  0  0  0  0999 V3000
M  V30 BEGIN CTAB
M  V30 COUNTS 50 54 0 0 0
M  V30 BEGIN ATOM
M  V30 1 C 2.750039 0.778852 6.769578 0
M  V30 2 C 2.500124 -0.244199 5.742906 0
M  V30 3 C 1.870162 -1.422268 6.062070 0
M  V30 4 C 1.613907 -2.403491 5.145138 0
M  V30 5 C 1.985075 -2.262160 3.803647 0
M  V30 6 N 1.763538 -3.223656 2.814442 0
M  V30 7 C 2.052779 -3.233027 1.417614 0
M  V30 8 C 1.328745 -2.233654 0.612008 0
M  V30 9 N 1.518329 -0.972598 0.186176 0
M  V30 10 C 0.489728 -0.524429 -0.547112 0
M  V30 11 C 0.355552 0.786654 -1.165838 0
M  V30 12 C 0.273199 0.763164 -2.539732 0
M  V30 13 C 0.143732 1.934280 -3.239310 0
M  V30 14 C 0.098252 3.108306 -2.564350 0
M  V30 15 N -0.035850 4.500732 -3.071960 0
M  V30 16 S -0.033181 5.544812 -1.766634 0
M  V30 17 N 0.139891 4.353580 -0.380760 0
M  V30 18 C 0.178871 3.128440 -1.223001 0
M  V30 19 C 0.307261 1.989882 -0.501325 0
M  V30 20 C -0.419584 -1.527535 -0.611242 0
M  V30 21 C -1.691916 -1.451240 -1.318789 0
M  V30 22 C -2.572859 -0.496170 -0.834005 0
M  V30 23 C -3.806241 -0.339193 -1.431740 0
M  V30 24 C -4.101122 -1.166646 -2.510195 0
M  V30 25 C -3.224295 -2.116639 -2.992102 0
M  V30 26 C -3.548615 -2.997481 -4.148082 0
M  V30 27 N -2.024071 -2.239112 -2.377657 0
M  V30 28 N 0.121731 -2.534133 0.096585 0
M  V30 29 C 2.615547 -1.074113 3.503579 0
M  V30 30 C 2.879829 -0.071569 4.429462 0
M  V30 31 H 2.455436 1.788317 6.398874 0
M  V30 32 H 2.163667 0.582006 7.677052 0
M  V30 33 H 3.843076 0.759362 6.989153 0
M  V30 34 H 1.549381 -1.611498 7.082138 0
M  V30 35 H 1.116737 -3.315479 5.433553 0
M  V30 36 H 1.294213 -4.098813 3.188495 0
M  V30 37 H 1.915023 -4.226323 0.970969 0
M  V30 38 H 3.144296 -2.975605 1.294930 0
M  V30 39 H 0.304706 -0.141347 -3.118922 0
M  V30 40 H 0.069249 2.062981 -4.292548 0
M  V30 41 H 0.383416 1.842719 0.563892 0
M  V30 42 H -2.351269 0.139208 -0.009452 0
M  V30 43 H -4.509667 0.407650 -1.061622 0
M  V30 44 H -5.082252 -1.039228 -2.983428 0
M  V30 45 H -3.904211 -3.957147 -3.708536 0
M  V30 46 H -2.609218 -3.258160 -4.716059 0
M  V30 47 H -4.318087 -2.575700 -4.801966 0
M  V30 48 H -0.436023 -3.436538 0.177228 0
M  V30 49 H 2.972073 -0.802678 2.525179 0
M  V30 50 H 3.372417 0.859449 4.200965 0
M  V30 END ATOM
M  V30 BEGIN BOND
M  V30 1 1 1 2
M  V30 2 2 2 3
M  V30 3 1 3 4
M  V30 4 2 4 5
M  V30 5 1 5 6
M  V30 6 1 6 7
M  V30 7 1 7 8
M  V30 8 2 8 9
M  V30 9 1 9 10
M  V30 10 1 10 11
M  V30 11 1 11 12
M  V30 12 2 12 13
M  V30 13 1 13 14
M  V30 14 2 14 15
M  V30 15 1 15 16
M  V30 16 1 16 17
M  V30 17 2 17 18
M  V30 18 1 18 19
M  V30 19 2 10 20
M  V30 20 1 20 21
M  V30 21 2 21 22
M  V30 22 1 22 23
M  V30 23 2 23 24
M  V30 24 1 24 25
M  V30 25 1 25 26
M  V30 26 2 25 27
M  V30 27 1 20 28
M  V30 28 1 5 29
M  V30 29 2 29 30
M  V30 30 1 30 2
M  V30 31 1 28 8
M  V30 32 2 19 11
M  V30 33 1 27 21
M  V30 34 1 18 14
M  V30 35 1 1 31
M  V30 36 1 1 32
M  V30 37 1 1 33
M  V30 38 1 3 34
M  V30 39 1 4 35
M  V30 40 1 6 36
M  V30 41 1 7 37
M  V30 42 1 7 38
M  V30 43 1 12 39
M  V30 44 1 13 40
M  V30 45 1 19 41
M  V30 46 1 22 42
M  V30 47 1 23 43
M  V30 48 1 24 44
M  V30 49 1 26 45
M  V30 50 1 26 46
M  V30 51 1 26 47
M  V30 52 1 28 48
M  V30 53 1 29 49
M  V30 54 1 30 50
M  V30 END BOND
M  V30 END CTAB
M  END
>  <Dataset>  (693) 
ChEMBL_Kinases

>  <Ligand_Instance>  (693) 
nan

>  <PDB_ID>  (693) 
nan

>  <Standardized_SMILES>  (693) 
Cc1ccc(NCc2nc(-c3ccc4nsnc4c3)c(-c3cccc(C)n3)[nH]2)cc1

>  <Name>  (693) 
nan

>  <Pocket>  (693) 
nan

>  <ATP_Site>  (693) 
nan

>  <Peripheral>  (693) 
nan

>  <Num_H_Atoms_ProtBoundConf>  (693) 
nan

>  <Num_Resolved_Atoms>  (693) 
nan

>  <Num_Not_Resolved_Atoms>  (693) 
nan

$$$$
CHEMBL4553351
     RDKit          3D

  0  0  0  0  0  0  0  0  0  0999 V3000
M  V30 BEGIN CTAB
M  V30 COUNTS 62 68 0 0 0
M  V30 BEGIN ATOM
M  V30 1 C 5.870640 0.559187 0.717083 0
M  V30 2 O 4.606843 1.057621 0.413811 0
M  V30 3 C 4.177217 2.286931 0.826825 0
M  V30 4 C 5.021405 3.075870 1.575886 0
M  V30 5 C 4.609522 4.315836 2.002010 0
M  V30 6 C 3.328784 4.751069 1.661793 0
M  V30 7 C 2.398544 4.022255 0.906466 0
M  V30 8 C 2.928841 2.797326 0.537155 0
M  V30 9 C 1.168043 4.770022 0.757663 0 CFG=1
M  V30 10 C 0.259312 4.788084 -0.373389 0
M  V30 11 C -0.197636 4.282579 0.995575 0 CFG=1
M  V30 12 C -0.638556 2.893332 1.015914 0
M  V30 13 C -0.474616 1.859705 0.091438 0
M  V30 14 C -0.940607 0.588521 0.259420 0
M  V30 15 C -1.624162 0.237247 1.389955 0
M  V30 16 C -2.177392 -0.962975 1.776366 0
M  V30 17 C -2.209009 -2.253470 1.098159 0
M  V30 18 C -3.403992 -2.943720 1.104525 0
M  V30 19 C -3.502680 -4.168989 0.481478 0
M  V30 20 C -2.450668 -4.779756 -0.174656 0
M  V30 21 N -2.559590 -6.048744 -0.811759 0
M  V30 22 C -3.879780 -6.653976 -0.622246 0
M  V30 23 C -3.897177 -8.027318 -1.219197 0
M  V30 24 N -2.586997 -8.560953 -1.510453 0
M  V30 25 C -1.805797 -7.699047 -2.375864 0
M  V30 26 C -1.358970 -6.507609 -1.525929 0
M  V30 27 C -1.266690 -4.039272 -0.151315 0
M  V30 28 C -1.122749 -2.813608 0.457889 0
M  V30 29 N -2.715857 -0.676382 3.000020 0
M  V30 30 N -2.507353 0.586555 3.325911 0
M  V30 31 C -1.827522 1.201544 2.350236 0
M  V30 32 C -1.347360 2.478434 2.157703 0
M  V30 33 C 1.529059 6.064399 1.458119 0
M  V30 34 O 0.701471 7.009828 1.479565 0
M  V30 35 N 2.827002 6.030503 2.028576 0
M  V30 36 H 6.709857 0.991292 0.146749 0
M  V30 37 H 5.855692 -0.531861 0.426823 0
M  V30 38 H 6.129430 0.625897 1.809776 0
M  V30 39 H 5.999209 2.722163 1.826008 0
M  V30 40 H 5.312423 4.885901 2.582763 0
M  V30 41 H 2.337953 2.122201 -0.055577 0
M  V30 42 H -0.210071 5.753126 -0.692120 0
M  V30 43 H 0.447472 4.104099 -1.191323 0
M  V30 44 H -0.814350 4.989108 1.629248 0
M  V30 45 H 0.065401 2.167286 -0.789181 0
M  V30 46 H -0.760907 -0.131656 -0.511529 0
M  V30 47 H -4.276943 -2.521074 1.605163 0
M  V30 48 H -4.448995 -4.652959 0.521526 0
M  V30 49 H -4.641136 -6.033789 -1.135839 0
M  V30 50 H -4.058751 -6.737625 0.474707 0
M  V30 51 H -4.374029 -8.719533 -0.514127 0
M  V30 52 H -4.512251 -8.035227 -2.163086 0
M  V30 53 H -2.754838 -9.467407 -2.006244 0
M  V30 54 H -0.936987 -8.257891 -2.732778 0
M  V30 55 H -2.468925 -7.328965 -3.185262 0
M  V30 56 H -0.574600 -6.842341 -0.828035 0
M  V30 57 H -1.017264 -5.738213 -2.233006 0
M  V30 58 H -0.400280 -4.431388 -0.632438 0
M  V30 59 H -0.187440 -2.275305 0.451681 0
M  V30 60 H -2.835942 1.016607 4.220324 0
M  V30 61 H -1.559542 3.174933 2.977711 0
M  V30 62 H 3.243108 6.809349 2.577038 0
M  V30 END ATOM
M  V30 BEGIN BOND
M  V30 1 1 1 2
M  V30 2 1 2 3
M  V30 3 2 3 4
M  V30 4 1 4 5
M  V30 5 2 5 6
M  V30 6 1 6 7
M  V30 7 2 7 8
M  V30 8 1 7 9
M  V30 9 1 9 10 CFG=3
M  V30 10 1 10 11
M  V30 11 1 11 12
M  V30 12 2 12 13
M  V30 13 1 13 14
M  V30 14 2 14 15
M  V30 15 1 15 16
M  V30 16 1 16 17
M  V30 17 2 17 18
M  V30 18 1 18 19
M  V30 19 2 19 20
M  V30 20 1 20 21
M  V30 21 1 21 22
M  V30 22 1 22 23
M  V30 23 1 23 24
M  V30 24 1 24 25
M  V30 25 1 25 26
M  V30 26 1 20 27
M  V30 27 2 27 28
M  V30 28 2 16 29
M  V30 29 1 29 30
M  V30 30 1 30 31
M  V30 31 2 31 32
M  V30 32 1 9 33
M  V30 33 2 33 34
M  V30 34 1 33 35
M  V30 35 1 8 3
M  V30 36 1 11 9
M  V30 37 1 32 12
M  V30 38 1 35 6
M  V30 39 1 31 15
M  V30 40 1 28 17
M  V30 41 1 26 21
M  V30 42 1 1 36
M  V30 43 1 1 37
M  V30 44 1 1 38
M  V30 45 1 4 39
M  V30 46 1 5 40
M  V30 47 1 8 41
M  V30 48 1 10 42
M  V30 49 1 10 43
M  V30 50 1 11 44 CFG=1
M  V30 51 1 13 45
M  V30 52 1 14 46
M  V30 53 1 18 47
M  V30 54 1 19 48
M  V30 55 1 22 49
M  V30 56 1 22 50
M  V30 57 1 23 51
M  V30 58 1 23 52
M  V30 59 1 24 53
M  V30 60 1 25 54
M  V30 61 1 25 55
M  V30 62 1 26 56
M  V30 63 1 26 57
M  V30 64 1 27 58
M  V30 65 1 28 59
M  V30 66 1 30 60
M  V30 67 1 32 61
M  V30 68 1 35 62
M  V30 END BOND
M  V30 END CTAB
M  END
>  <Dataset>  (694) 
ChEMBL_Kinases

>  <Ligand_Instance>  (694) 
nan

>  <PDB_ID>  (694) 
nan

>  <Standardized_SMILES>  (694) 
COc1ccc2c(c1)[C@]1(C[C@H]1c1ccc3c(-c4ccc(N5CCNCC5)cc4)n[nH]c3c1)C(=O)N2

>  <Name>  (694) 
nan

>  <Pocket>  (694) 
nan

>  <ATP_Site>  (694) 
nan

>  <Peripheral>  (694) 
nan

>  <Num_H_Atoms_ProtBoundConf>  (694) 
nan

>  <Num_Resolved_Atoms>  (694) 
nan

>  <Num_Not_Resolved_Atoms>  (694) 
nan

$$$$
CHEMBL3702192
     RDKit          3D

  0  0  0  0  0  0  0  0  0  0999 V3000
M  V30 BEGIN CTAB
M  V30 COUNTS 51 55 0 0 0
M  V30 BEGIN ATOM
M  V30 1 O 4.707800 -4.945573 6.359224 0
M  V30 2 C 3.458472 -5.297804 5.852344 0
M  V30 3 C 3.044225 -4.208775 4.880708 0
M  V30 4 N 3.984542 -4.071978 3.789896 0
M  V30 5 C 3.734794 -3.088122 2.788532 0
M  V30 6 C 2.607038 -2.298655 2.889703 0
M  V30 7 C 2.271598 -1.307249 1.962222 0
M  V30 8 C 3.198940 -1.208112 0.931949 0
M  V30 9 N 2.964022 -0.232276 -0.073962 0
M  V30 10 C 1.818740 0.611041 -0.024054 0
M  V30 11 N 1.931372 1.794540 0.636849 0
M  V30 12 C 0.899526 2.647029 0.730449 0
M  V30 13 C -0.301782 2.328147 0.149996 0
M  V30 14 C -1.540259 2.927507 0.039534 0
M  V30 15 C -1.965776 4.144201 0.532936 0
M  V30 16 C -3.266985 4.546817 0.297448 0
M  V30 17 N -4.059614 3.723290 -0.407862 0
M  V30 18 C -3.630092 2.534973 -0.884964 0
M  V30 19 C -2.342484 2.074370 -0.684637 0
M  V30 20 N -1.684573 0.957680 -1.045636 0
M  V30 21 C -2.175019 -0.145236 -1.794094 0
M  V30 22 C -2.614450 0.102684 -3.188658 0
M  V30 23 C -3.342981 -1.175736 -3.555580 0
M  V30 24 C -3.404022 -2.008008 -2.287565 0
M  V30 25 C -3.287308 -0.935850 -1.191669 0
M  V30 26 C -0.430259 1.129992 -0.524057 0
M  V30 27 N 0.639917 0.301984 -0.591618 0
M  V30 28 N 4.307477 -1.977895 0.824626 0
M  V30 29 N 4.569940 -2.911249 1.749826 0
M  V30 30 H 5.175109 -4.385944 5.688886 0
M  V30 31 H 3.433288 -6.290618 5.403875 0
M  V30 32 H 2.734149 -5.214382 6.714895 0
M  V30 33 H 2.053292 -4.419999 4.448628 0
M  V30 34 H 2.956550 -3.226139 5.381614 0
M  V30 35 H 4.848722 -4.661357 3.692348 0
M  V30 36 H 1.927105 -2.441905 3.734440 0
M  V30 37 H 1.408159 -0.689073 2.022323 0
M  V30 38 H 3.614580 -0.097793 -0.878792 0
M  V30 39 H 0.950070 3.594089 1.245742 0
M  V30 40 H -1.319230 4.799508 1.099545 0
M  V30 41 H -3.699048 5.477406 0.638192 0
M  V30 42 H -4.316634 1.915020 -1.446781 0
M  V30 43 H -1.334196 -0.896982 -1.896302 0
M  V30 44 H -3.267237 0.949427 -3.375597 0
M  V30 45 H -1.742818 0.209299 -3.866705 0
M  V30 46 H -4.400603 -0.974799 -3.826748 0
M  V30 47 H -2.822444 -1.703325 -4.375880 0
M  V30 48 H -4.310852 -2.612253 -2.191458 0
M  V30 49 H -2.454518 -2.572005 -2.256534 0
M  V30 50 H -4.265972 -0.465036 -1.154192 0
M  V30 51 H -3.012566 -1.431583 -0.238724 0
M  V30 END ATOM
M  V30 BEGIN BOND
M  V30 1 1 1 2
M  V30 2 1 2 3
M  V30 3 1 3 4
M  V30 4 1 4 5
M  V30 5 2 5 6
M  V30 6 1 6 7
M  V30 7 2 7 8
M  V30 8 1 8 9
M  V30 9 1 9 10
M  V30 10 2 10 11
M  V30 11 1 11 12
M  V30 12 2 12 13
M  V30 13 1 13 14
M  V30 14 2 14 15
M  V30 15 1 15 16
M  V30 16 2 16 17
M  V30 17 1 17 18
M  V30 18 2 18 19
M  V30 19 1 19 20
M  V30 20 1 20 21
M  V30 21 1 21 22
M  V30 22 1 22 23
M  V30 23 1 23 24
M  V30 24 1 24 25
M  V30 25 1 20 26
M  V30 26 2 26 27
M  V30 27 1 8 28
M  V30 28 2 28 29
M  V30 29 1 29 5
M  V30 30 1 27 10
M  V30 31 1 26 13
M  V30 32 1 19 14
M  V30 33 1 25 21
M  V30 34 1 1 30
M  V30 35 1 2 31
M  V30 36 1 2 32
M  V30 37 1 3 33
M  V30 38 1 3 34
M  V30 39 1 4 35
M  V30 40 1 6 36
M  V30 41 1 7 37
M  V30 42 1 9 38
M  V30 43 1 12 39
M  V30 44 1 15 40
M  V30 45 1 16 41
M  V30 46 1 18 42
M  V30 47 1 21 43
M  V30 48 1 22 44
M  V30 49 1 22 45
M  V30 50 1 23 46
M  V30 51 1 23 47
M  V30 52 1 24 48
M  V30 53 1 24 49
M  V30 54 1 25 50
M  V30 55 1 25 51
M  V30 END BOND
M  V30 END CTAB
M  END
>  <Dataset>  (695) 
ChEMBL_Kinases

>  <Ligand_Instance>  (695) 
nan

>  <PDB_ID>  (695) 
nan

>  <Standardized_SMILES>  (695) 
OCCNc1ccc(Nc2ncc3c4ccncc4n(C4CCCC4)c3n2)nn1

>  <Name>  (695) 
nan

>  <Pocket>  (695) 
nan

>  <ATP_Site>  (695) 
nan

>  <Peripheral>  (695) 
nan

>  <Num_H_Atoms_ProtBoundConf>  (695) 
nan

>  <Num_Resolved_Atoms>  (695) 
nan

>  <Num_Not_Resolved_Atoms>  (695) 
nan

$$$$
CHEMBL221791
     RDKit          3D

  0  0  0  0  0  0  0  0  0  0999 V3000
M  V30 BEGIN CTAB
M  V30 COUNTS 36 38 0 0 0
M  V30 BEGIN ATOM
M  V30 1 C -1.578242 -3.720451 -0.354198 0
M  V30 2 C -0.310723 -3.922962 0.394404 0
M  V30 3 C -0.040408 -4.874182 1.338873 0
M  V30 4 C 1.183928 -4.960116 1.963260 0
M  V30 5 C 2.162807 -4.058130 1.622373 0
M  V30 6 C 1.905196 -3.077480 0.658135 0
M  V30 7 C 0.654170 -3.007067 0.035567 0
M  V30 8 N 0.662230 -1.929184 -0.887450 0
M  V30 9 C -0.130484 -0.732525 -0.991924 0
M  V30 10 C -1.276290 -0.479376 -1.708943 0
M  V30 11 C -1.833444 0.777378 -1.612921 0
M  V30 12 C -1.274552 1.764587 -0.827669 0
M  V30 13 O -1.824298 2.892714 -0.777069 0
M  V30 14 N -0.142842 1.458826 -0.141459 0
M  V30 15 C 0.460508 2.473524 0.690372 0
M  V30 16 C 0.864295 3.751084 0.365954 0
M  V30 17 C 1.416057 4.537647 1.336843 0
M  V30 18 C 1.570263 4.072709 2.618791 0
M  V30 19 C 1.178992 2.794053 2.994497 0
M  V30 20 C 0.615838 1.994534 1.997985 0
M  V30 21 Cl 0.150976 0.400374 2.554121 0
M  V30 22 N 0.392364 0.250447 -0.234189 0
M  V30 23 H -2.216703 -4.633894 -0.285839 0
M  V30 24 H -2.061004 -2.812030 0.051716 0
M  V30 25 H -1.361903 -3.560409 -1.449292 0
M  V30 26 H -0.880633 -5.540801 1.539304 0
M  V30 27 H 1.313128 -5.755552 2.710263 0
M  V30 28 H 3.093700 -4.178860 2.145818 0
M  V30 29 H 2.778917 -2.451675 0.509704 0
M  V30 30 H 1.346614 -1.911147 -1.689264 0
M  V30 31 H -1.603864 -1.335550 -2.279561 0
M  V30 32 H -2.737609 0.904062 -2.207171 0
M  V30 33 H 0.683103 3.978646 -0.667996 0
M  V30 34 H 1.714537 5.528228 1.032022 0
M  V30 35 H 2.019190 4.765787 3.332705 0
M  V30 36 H 1.319852 2.469920 4.017221 0
M  V30 END ATOM
M  V30 BEGIN BOND
M  V30 1 1 1 2
M  V30 2 2 2 3
M  V30 3 1 3 4
M  V30 4 2 4 5
M  V30 5 1 5 6
M  V30 6 2 6 7
M  V30 7 1 7 8
M  V30 8 1 8 9
M  V30 9 1 9 10
M  V30 10 2 10 11
M  V30 11 1 11 12
M  V30 12 2 12 13
M  V30 13 1 12 14
M  V30 14 1 14 15
M  V30 15 2 15 16
M  V30 16 1 16 17
M  V30 17 2 17 18
M  V30 18 1 18 19
M  V30 19 2 19 20
M  V30 20 1 20 21
M  V30 21 1 14 22
M  V30 22 1 7 2
M  V30 23 2 22 9
M  V30 24 1 20 15
M  V30 25 1 1 23
M  V30 26 1 1 24
M  V30 27 1 1 25
M  V30 28 1 3 26
M  V30 29 1 4 27
M  V30 30 1 5 28
M  V30 31 1 6 29
M  V30 32 1 8 30
M  V30 33 1 10 31
M  V30 34 1 11 32
M  V30 35 1 16 33
M  V30 36 1 17 34
M  V30 37 1 18 35
M  V30 38 1 19 36
M  V30 END BOND
M  V30 END CTAB
M  END
>  <Dataset>  (696) 
ChEMBL_Kinases

>  <Ligand_Instance>  (696) 
nan

>  <PDB_ID>  (696) 
nan

>  <Standardized_SMILES>  (696) 
Cc1ccccc1Nc1ccc(=O)n(-c2ccccc2Cl)n1

>  <Name>  (696) 
nan

>  <Pocket>  (696) 
nan

>  <ATP_Site>  (696) 
nan

>  <Peripheral>  (696) 
nan

>  <Num_H_Atoms_ProtBoundConf>  (696) 
nan

>  <Num_Resolved_Atoms>  (696) 
nan

>  <Num_Not_Resolved_Atoms>  (696) 
nan

$$$$
CHEMBL4553144
     RDKit          3D

  0  0  0  0  0  0  0  0  0  0999 V3000
M  V30 BEGIN CTAB
M  V30 COUNTS 59 63 0 0 0
M  V30 BEGIN ATOM
M  V30 1 C 5.977735 -3.073177 4.389897 0
M  V30 2 O 6.108179 -1.686288 4.087966 0
M  V30 3 C 5.124937 -1.108177 3.284149 0
M  V30 4 C 4.059374 -1.829195 2.789020 0
M  V30 5 C 3.132373 -1.168665 1.998946 0
M  V30 6 C 3.284706 0.176684 1.723156 0
M  V30 7 C 2.259113 0.787237 0.884544 0
M  V30 8 N 0.959018 0.811674 1.294266 0
M  V30 9 N 0.212365 1.405088 0.391331 0
M  V30 10 C -1.195359 1.578858 0.545559 0
M  V30 11 C -1.895316 2.766131 0.626847 0
M  V30 12 C -3.268157 2.734188 0.777702 0
M  V30 13 C -3.983660 1.556981 0.852078 0
M  V30 14 C -3.274776 0.356975 0.769720 0
M  V30 15 N -3.943206 -0.919722 0.839341 0
M  V30 16 C -4.304090 -1.313678 -0.484096 0
M  V30 17 O -3.972790 -0.493457 -1.378830 0
M  V30 18 C -4.996782 -2.545721 -0.836755 0
M  V30 19 C -5.246914 -2.717433 -2.182094 0
M  V30 20 C -5.907400 -3.880832 -2.573256 0
M  V30 21 C -6.278789 -4.798477 -1.619944 0
M  V30 22 C -6.011657 -4.594384 -0.275472 0
M  V30 23 C -6.411075 -5.581310 0.749605 0
M  V30 24 F -5.223433 -6.094092 1.271093 0
M  V30 25 F -7.234066 -5.090176 1.714457 0
M  V30 26 F -7.051811 -6.665913 0.161259 0
M  V30 27 C -5.360446 -3.452803 0.134537 0
M  V30 28 C -1.888199 0.362732 0.617301 0
M  V30 29 C 0.994316 1.786819 -0.634046 0
M  V30 30 C 2.282557 1.409329 -0.345952 0
M  V30 31 C 3.519189 1.572726 -1.101242 0
M  V30 32 C 4.135399 2.741081 -1.507356 0
M  V30 33 C 5.322303 2.657558 -2.225002 0
M  V30 34 N 5.859433 1.459117 -2.517619 0
M  V30 35 C 5.306047 0.303389 -2.150008 0
M  V30 36 C 4.110089 0.346981 -1.425787 0
M  V30 37 C 4.351786 0.888116 2.221950 0
M  V30 38 C 5.276943 0.235661 3.008551 0
M  V30 39 Cl 6.617129 1.196997 3.616115 0
M  V30 40 H 5.846795 -3.642550 3.448009 0
M  V30 41 H 5.078504 -3.239731 5.051162 0
M  V30 42 H 6.839973 -3.382289 4.988883 0
M  V30 43 H 3.973974 -2.887154 3.028347 0
M  V30 44 H 2.318514 -1.813610 1.646913 0
M  V30 45 H -1.293019 3.649345 0.563835 0
M  V30 46 H -3.783669 3.681370 0.838021 0
M  V30 47 H -5.055991 1.525176 0.969832 0
M  V30 48 H -4.195711 -1.565526 1.619058 0
M  V30 49 H -4.958645 -2.000140 -2.944358 0
M  V30 50 H -6.117077 -4.042298 -3.623976 0
M  V30 51 H -6.793928 -5.704347 -1.932261 0
M  V30 52 H -5.158522 -3.305135 1.180680 0
M  V30 53 H -1.391418 -0.615290 0.559035 0
M  V30 54 H 0.687900 2.299979 -1.534516 0
M  V30 55 H 3.603043 3.633219 -1.209052 0
M  V30 56 H 5.757617 3.601962 -2.515345 0
M  V30 57 H 5.768626 -0.659653 -2.403761 0
M  V30 58 H 3.715155 -0.613424 -1.159596 0
M  V30 59 H 4.381685 1.944335 1.946705 0
M  V30 END ATOM
M  V30 BEGIN BOND
M  V30 1 1 1 2
M  V30 2 1 2 3
M  V30 3 2 3 4
M  V30 4 1 4 5
M  V30 5 2 5 6
M  V30 6 1 6 7
M  V30 7 2 7 8
M  V30 8 1 8 9
M  V30 9 1 9 10
M  V30 10 2 10 11
M  V30 11 1 11 12
M  V30 12 2 12 13
M  V30 13 1 13 14
M  V30 14 1 14 15
M  V30 15 1 15 16
M  V30 16 2 16 17
M  V30 17 1 16 18
M  V30 18 2 18 19
M  V30 19 1 19 20
M  V30 20 2 20 21
M  V30 21 1 21 22
M  V30 22 1 22 23
M  V30 23 1 23 24
M  V30 24 1 23 25
M  V30 25 1 23 26
M  V30 26 2 22 27
M  V30 27 2 14 28
M  V30 28 1 9 29
M  V30 29 2 29 30
M  V30 30 1 30 31
M  V30 31 2 31 32
M  V30 32 1 32 33
M  V30 33 2 33 34
M  V30 34 1 34 35
M  V30 35 2 35 36
M  V30 36 1 6 37
M  V30 37 2 37 38
M  V30 38 1 38 39
M  V30 39 1 38 3
M  V30 40 1 30 7
M  V30 41 1 36 31
M  V30 42 1 28 10
M  V30 43 1 27 18
M  V30 44 1 1 40
M  V30 45 1 1 41
M  V30 46 1 1 42
M  V30 47 1 4 43
M  V30 48 1 5 44
M  V30 49 1 11 45
M  V30 50 1 12 46
M  V30 51 1 13 47
M  V30 52 1 15 48
M  V30 53 1 19 49
M  V30 54 1 20 50
M  V30 55 1 21 51
M  V30 56 1 27 52
M  V30 57 1 28 53
M  V30 58 1 29 54
M  V30 59 1 32 55
M  V30 60 1 33 56
M  V30 61 1 35 57
M  V30 62 1 36 58
M  V30 63 1 37 59
M  V30 END BOND
M  V30 END CTAB
M  END
>  <Dataset>  (697) 
ChEMBL_Kinases

>  <Ligand_Instance>  (697) 
nan

>  <PDB_ID>  (697) 
nan

>  <Standardized_SMILES>  (697) 
COc1ccc(-c2nn(-c3cccc(NC(=O)c4cccc(C(F)(F)F)c4)c3)cc2-c2ccncc2)cc1Cl

>  <Name>  (697) 
nan

>  <Pocket>  (697) 
nan

>  <ATP_Site>  (697) 
nan

>  <Peripheral>  (697) 
nan

>  <Num_H_Atoms_ProtBoundConf>  (697) 
nan

>  <Num_Resolved_Atoms>  (697) 
nan

>  <Num_Not_Resolved_Atoms>  (697) 
nan

$$$$
CHEMBL221916
     RDKit          3D

  0  0  0  0  0  0  0  0  0  0999 V3000
M  V30 BEGIN CTAB
M  V30 COUNTS 47 48 0 0 0
M  V30 BEGIN ATOM
M  V30 1 C 0.171828 -7.045391 0.271182 0
M  V30 2 C -0.573754 -5.965943 0.233237 0
M  V30 3 C -0.096707 -4.634418 -0.028791 0
M  V30 4 C 1.213241 -4.276034 -0.261452 0
M  V30 5 N 2.201360 -5.308745 -0.249679 0
M  V30 6 C 1.621688 -2.969311 -0.506909 0
M  V30 7 C 0.688301 -1.955460 -0.524917 0
M  V30 8 C 1.043666 -0.563611 -0.768074 0
M  V30 9 O 2.222649 -0.181043 -0.971338 0
M  V30 10 N 0.035971 0.418958 -0.780393 0
M  V30 11 C 0.214659 1.846538 -1.002030 0
M  V30 12 C 0.758633 2.504589 0.228012 0
M  V30 13 C 2.063895 2.718394 0.593637 0
M  V30 14 C 2.337188 3.346356 1.791557 0
M  V30 15 C 1.381623 3.781841 2.662799 0
M  V30 16 S 1.696527 4.572007 4.178119 0
M  V30 17 C 1.738221 6.328416 3.884106 0
M  V30 18 O 2.937310 4.091728 4.838243 0
M  V30 19 O 0.551492 4.295837 5.109005 0
M  V30 20 C 0.051122 3.573610 2.308101 0
M  V30 21 C -0.231662 2.947401 1.113660 0
M  V30 22 N -0.571829 -2.314286 -0.299493 0
M  V30 23 C -0.990871 -3.569788 -0.060033 0
M  V30 24 O -2.326978 -3.866376 0.166848 0
M  V30 25 C -3.285652 -2.851702 0.150081 0
M  V30 26 C -4.685133 -3.359539 0.418867 0
M  V30 27 H 1.141684 -7.490451 0.183732 0
M  V30 28 H -0.242469 -8.017341 0.494522 0
M  V30 29 H -1.623582 -6.124534 0.417668 0
M  V30 30 H 2.689704 -6.006590 -0.875738 0
M  V30 31 H 2.516764 -5.339735 0.764537 0
M  V30 32 H 2.677484 -2.738000 -0.686243 0
M  V30 33 H -0.955875 0.093483 -0.612435 0
M  V30 34 H -0.720233 2.311957 -1.306945 0
M  V30 35 H 0.950548 1.954754 -1.828003 0
M  V30 36 H 2.776529 2.366033 -0.111931 0
M  V30 37 H 3.378890 3.501202 2.053424 0
M  V30 38 H 0.768355 6.696969 3.513246 0
M  V30 39 H 1.968420 6.806847 4.874438 0
M  V30 40 H 2.540192 6.635804 3.197844 0
M  V30 41 H -0.752621 3.903609 2.970638 0
M  V30 42 H -1.302464 2.819925 0.903292 0
M  V30 43 H -3.053166 -2.102473 0.933713 0
M  V30 44 H -3.299723 -2.407004 -0.871228 0
M  V30 45 H -4.606030 -4.072014 1.278986 0
M  V30 46 H -5.165889 -3.815761 -0.447111 0
M  V30 47 H -5.263218 -2.484980 0.780844 0
M  V30 END ATOM
M  V30 BEGIN BOND
M  V30 1 2 1 2
M  V30 2 1 2 3
M  V30 3 2 3 4
M  V30 4 1 4 5
M  V30 5 1 4 6
M  V30 6 2 6 7
M  V30 7 1 7 8
M  V30 8 2 8 9
M  V30 9 1 8 10
M  V30 10 1 10 11
M  V30 11 1 11 12
M  V30 12 2 12 13
M  V30 13 1 13 14
M  V30 14 2 14 15
M  V30 15 1 15 16
M  V30 16 1 16 17
M  V30 17 2 16 18
M  V30 18 2 16 19
M  V30 19 1 15 20
M  V30 20 2 20 21
M  V30 21 1 7 22
M  V30 22 2 22 23
M  V30 23 1 23 24
M  V30 24 1 24 25
M  V30 25 1 25 26
M  V30 26 1 23 3
M  V30 27 1 21 12
M  V30 28 1 1 27
M  V30 29 1 1 28
M  V30 30 1 2 29
M  V30 31 1 5 30
M  V30 32 1 5 31
M  V30 33 1 6 32
M  V30 34 1 10 33
M  V30 35 1 11 34
M  V30 36 1 11 35
M  V30 37 1 13 36
M  V30 38 1 14 37
M  V30 39 1 17 38
M  V30 40 1 17 39
M  V30 41 1 17 40
M  V30 42 1 20 41
M  V30 43 1 21 42
M  V30 44 1 25 43
M  V30 45 1 25 44
M  V30 46 1 26 45
M  V30 47 1 26 46
M  V30 48 1 26 47
M  V30 END BOND
M  V30 END CTAB
M  END
>  <Dataset>  (698) 
ChEMBL_Kinases

>  <Ligand_Instance>  (698) 
nan

>  <PDB_ID>  (698) 
nan

>  <Standardized_SMILES>  (698) 
C=Cc1c(N)cc(C(=O)NCc2ccc(S(C)(=O)=O)cc2)nc1OCC

>  <Name>  (698) 
nan

>  <Pocket>  (698) 
nan

>  <ATP_Site>  (698) 
nan

>  <Peripheral>  (698) 
nan

>  <Num_H_Atoms_ProtBoundConf>  (698) 
nan

>  <Num_Resolved_Atoms>  (698) 
nan

>  <Num_Not_Resolved_Atoms>  (698) 
nan

$$$$
CHEMBL3702193
     RDKit          3D

  0  0  0  0  0  0  0  0  0  0999 V3000
M  V30 BEGIN CTAB
M  V30 COUNTS 54 58 0 0 0
M  V30 BEGIN ATOM
M  V30 1 C -0.192850 -1.904711 6.697050 0
M  V30 2 C 1.249366 -1.810469 6.281602 0 CFG=1
M  V30 3 O 1.986333 -2.833854 6.872791 0
M  V30 4 C 1.411882 -1.862077 4.779481 0
M  V30 5 N 2.788803 -1.684489 4.397661 0
M  V30 6 C 2.968803 -1.716790 2.981526 0
M  V30 7 C 2.300497 -0.642004 2.393638 0
M  V30 8 C 2.297124 -0.411342 1.010307 0
M  V30 9 C 2.996220 -1.297933 0.185668 0
M  V30 10 N 2.980155 -1.101012 -1.242678 0
M  V30 11 C 2.196096 -0.002295 -1.685584 0
M  V30 12 N 2.466974 1.253540 -2.141379 0
M  V30 13 C 1.455509 2.080481 -2.462979 0
M  V30 14 C 0.155770 1.656060 -2.330075 0
M  V30 15 C -1.064564 2.227222 -2.546857 0
M  V30 16 C -1.473552 3.496466 -3.007490 0
M  V30 17 C -2.824499 3.755072 -3.106722 0
M  V30 18 N -3.769556 2.837336 -2.779084 0
M  V30 19 C -3.403115 1.627969 -2.340814 0
M  V30 20 C -2.063456 1.341609 -2.231811 0
M  V30 21 N -1.509182 0.188509 -1.808542 0
M  V30 22 C -2.020647 -1.081148 -1.350814 0
M  V30 23 C -0.927613 -2.122946 -1.212832 0
M  V30 24 C -1.773087 -3.376495 -1.010638 0
M  V30 25 C -3.145129 -3.070717 -1.537392 0
M  V30 26 C -2.880423 -1.799704 -2.370278 0
M  V30 27 C -0.148006 0.400761 -1.874870 0
M  V30 28 N 0.926324 -0.372537 -1.573155 0
M  V30 29 N 3.619959 -2.311489 0.806735 0
M  V30 30 N 3.587591 -2.479022 2.108644 0
M  V30 31 H -0.354677 -1.353566 7.659443 0
M  V30 32 H -0.797308 -1.443979 5.880339 0
M  V30 33 H -0.493223 -2.978397 6.768583 0
M  V30 34 H 1.642960 -0.821344 6.647963 0
M  V30 35 H 1.489127 -3.163491 7.677968 0
M  V30 36 H 0.752381 -1.087149 4.313531 0
M  V30 37 H 1.073539 -2.841341 4.369674 0
M  V30 38 H 3.615535 -1.544327 5.035815 0
M  V30 39 H 1.719525 0.119997 2.943144 0
M  V30 40 H 1.758304 0.446581 0.591555 0
M  V30 41 H 3.553140 -1.790038 -1.772508 0
M  V30 42 H 1.662803 3.069053 -2.821549 0
M  V30 43 H -0.716654 4.216547 -3.263494 0
M  V30 44 H -3.180465 4.735115 -3.462261 0
M  V30 45 H -4.175059 0.922940 -2.076699 0
M  V30 46 H -2.554679 -1.027820 -0.393814 0
M  V30 47 H -0.409006 -2.246485 -2.175747 0
M  V30 48 H -0.286706 -1.948544 -0.344609 0
M  V30 49 H -1.320664 -4.252467 -1.485924 0
M  V30 50 H -1.864296 -3.532194 0.107712 0
M  V30 51 H -3.796676 -2.713554 -0.684073 0
M  V30 52 H -3.589066 -3.877357 -2.119335 0
M  V30 53 H -3.797314 -1.305224 -2.650809 0
M  V30 54 H -2.232288 -2.090398 -3.237317 0
M  V30 END ATOM
M  V30 BEGIN BOND
M  V30 1 1 1 2
M  V30 2 1 2 3
M  V30 3 1 2 4
M  V30 4 1 4 5
M  V30 5 1 5 6
M  V30 6 2 6 7
M  V30 7 1 7 8
M  V30 8 2 8 9
M  V30 9 1 9 10
M  V30 10 1 10 11
M  V30 11 2 11 12
M  V30 12 1 12 13
M  V30 13 2 13 14
M  V30 14 1 14 15
M  V30 15 2 15 16
M  V30 16 1 16 17
M  V30 17 2 17 18
M  V30 18 1 18 19
M  V30 19 2 19 20
M  V30 20 1 20 21
M  V30 21 1 21 22
M  V30 22 1 22 23
M  V30 23 1 23 24
M  V30 24 1 24 25
M  V30 25 1 25 26
M  V30 26 1 21 27
M  V30 27 2 27 28
M  V30 28 1 9 29
M  V30 29 2 29 30
M  V30 30 1 30 6
M  V30 31 1 28 11
M  V30 32 1 27 14
M  V30 33 1 20 15
M  V30 34 1 26 22
M  V30 35 1 1 31
M  V30 36 1 1 32
M  V30 37 1 1 33
M  V30 38 1 2 34 CFG=1
M  V30 39 1 3 35
M  V30 40 1 4 36
M  V30 41 1 4 37
M  V30 42 1 5 38
M  V30 43 1 7 39
M  V30 44 1 8 40
M  V30 45 1 10 41
M  V30 46 1 13 42
M  V30 47 1 16 43
M  V30 48 1 17 44
M  V30 49 1 19 45
M  V30 50 1 22 46
M  V30 51 1 23 47
M  V30 52 1 23 48
M  V30 53 1 24 49
M  V30 54 1 24 50
M  V30 55 1 25 51
M  V30 56 1 25 52
M  V30 57 1 26 53
M  V30 58 1 26 54
M  V30 END BOND
M  V30 END CTAB
M  END
>  <Dataset>  (699) 
ChEMBL_Kinases

>  <Ligand_Instance>  (699) 
nan

>  <PDB_ID>  (699) 
nan

>  <Standardized_SMILES>  (699) 
C[C@@H](O)CNc1ccc(Nc2ncc3c4ccncc4n(C4CCCC4)c3n2)nn1

>  <Name>  (699) 
nan

>  <Pocket>  (699) 
nan

>  <ATP_Site>  (699) 
nan

>  <Peripheral>  (699) 
nan

>  <Num_H_Atoms_ProtBoundConf>  (699) 
nan

>  <Num_Resolved_Atoms>  (699) 
nan

>  <Num_Not_Resolved_Atoms>  (699) 
nan

$$$$
CHEMBL3702194
     RDKit          3D

  0  0  0  0  0  0  0  0  0  0999 V3000
M  V30 BEGIN CTAB
M  V30 COUNTS 54 58 0 0 0
M  V30 BEGIN ATOM
M  V30 1 C 0.941896 -0.605407 6.482438 0
M  V30 2 C 1.169506 -2.066793 6.090231 0 CFG=2
M  V30 3 O 2.208381 -2.613227 6.848449 0
M  V30 4 C 1.598738 -2.123997 4.633132 0
M  V30 5 N 2.813298 -1.343095 4.426405 0
M  V30 6 C 3.099863 -1.317211 3.032825 0
M  V30 7 C 2.189395 -0.389195 2.474480 0
M  V30 8 C 2.184870 -0.108741 1.095763 0
M  V30 9 C 3.113492 -0.781927 0.294053 0
M  V30 10 N 3.081476 -0.523117 -1.127467 0
M  V30 11 C 2.098778 0.367919 -1.637768 0
M  V30 12 N 2.106428 1.610213 -2.215505 0
M  V30 13 C 0.935333 2.159088 -2.569786 0
M  V30 14 C -0.279796 1.538546 -2.382705 0
M  V30 15 C -1.545753 1.937032 -2.677522 0
M  V30 16 C -2.136429 3.039757 -3.250058 0
M  V30 17 C -3.515894 3.113087 -3.409588 0
M  V30 18 N -4.252133 2.066172 -2.982505 0
M  V30 19 C -3.706540 0.962915 -2.413044 0
M  V30 20 C -2.347823 0.897585 -2.260388 0
M  V30 21 N -1.604462 -0.102801 -1.727191 0
M  V30 22 C -1.914279 -1.382806 -1.129288 0
M  V30 23 C -0.889577 -2.417404 -1.512529 0
M  V30 24 C -1.536335 -3.696575 -1.003377 0
M  V30 25 C -2.987997 -3.488909 -1.265325 0
M  V30 26 C -3.193518 -2.003725 -1.535935 0
M  V30 27 C -0.289561 0.277746 -1.794622 0
M  V30 28 N 0.902976 -0.195543 -1.475073 0
M  V30 29 N 3.942261 -1.642492 0.883314 0
M  V30 30 N 3.950018 -1.907720 2.176762 0
M  V30 31 H 1.922478 -0.139002 6.789094 0
M  V30 32 H 0.553502 -0.088880 5.579585 0
M  V30 33 H 0.260071 -0.568165 7.340747 0
M  V30 34 H 0.243831 -2.640286 6.199207 0
M  V30 35 H 2.079149 -2.501664 7.812365 0
M  V30 36 H 0.795685 -1.686389 4.026070 0
M  V30 37 H 1.763217 -3.207744 4.384242 0
M  V30 38 H 3.597994 -0.778557 4.781088 0
M  V30 39 H 1.414444 0.208928 2.974698 0
M  V30 40 H 1.504576 0.603335 0.641281 0
M  V30 41 H 3.817064 -1.045594 -1.645746 0
M  V30 42 H 1.007561 3.136942 -3.019223 0
M  V30 43 H -1.531848 3.868447 -3.586595 0
M  V30 44 H -4.047058 3.946974 -3.852540 0
M  V30 45 H -4.377539 0.185596 -2.103074 0
M  V30 46 H -1.844595 -1.307326 -0.015368 0
M  V30 47 H -0.758382 -2.496892 -2.611494 0
M  V30 48 H 0.055940 -2.308546 -0.948838 0
M  V30 49 H -1.293624 -3.775518 0.081873 0
M  V30 50 H -1.104545 -4.592849 -1.499403 0
M  V30 51 H -3.551667 -3.836204 -0.368255 0
M  V30 52 H -3.293267 -4.110398 -2.135622 0
M  V30 53 H -4.056723 -1.734043 -0.882014 0
M  V30 54 H -3.401916 -1.914992 -2.601557 0
M  V30 END ATOM
M  V30 BEGIN BOND
M  V30 1 1 1 2
M  V30 2 1 2 3
M  V30 3 1 2 4
M  V30 4 1 4 5
M  V30 5 1 5 6
M  V30 6 2 6 7
M  V30 7 1 7 8
M  V30 8 2 8 9
M  V30 9 1 9 10
M  V30 10 1 10 11
M  V30 11 2 11 12
M  V30 12 1 12 13
M  V30 13 2 13 14
M  V30 14 1 14 15
M  V30 15 2 15 16
M  V30 16 1 16 17
M  V30 17 2 17 18
M  V30 18 1 18 19
M  V30 19 2 19 20
M  V30 20 1 20 21
M  V30 21 1 21 22
M  V30 22 1 22 23
M  V30 23 1 23 24
M  V30 24 1 24 25
M  V30 25 1 25 26
M  V30 26 1 21 27
M  V30 27 2 27 28
M  V30 28 1 9 29
M  V30 29 2 29 30
M  V30 30 1 30 6
M  V30 31 1 28 11
M  V30 32 1 27 14
M  V30 33 1 20 15
M  V30 34 1 26 22
M  V30 35 1 1 31
M  V30 36 1 1 32
M  V30 37 1 1 33
M  V30 38 1 2 34 CFG=3
M  V30 39 1 3 35
M  V30 40 1 4 36
M  V30 41 1 4 37
M  V30 42 1 5 38
M  V30 43 1 7 39
M  V30 44 1 8 40
M  V30 45 1 10 41
M  V30 46 1 13 42
M  V30 47 1 16 43
M  V30 48 1 17 44
M  V30 49 1 19 45
M  V30 50 1 22 46
M  V30 51 1 23 47
M  V30 52 1 23 48
M  V30 53 1 24 49
M  V30 54 1 24 50
M  V30 55 1 25 51
M  V30 56 1 25 52
M  V30 57 1 26 53
M  V30 58 1 26 54
M  V30 END BOND
M  V30 END CTAB
M  END
>  <Dataset>  (700) 
ChEMBL_Kinases

>  <Ligand_Instance>  (700) 
nan

>  <PDB_ID>  (700) 
nan

>  <Standardized_SMILES>  (700) 
C[C@H](O)CNc1ccc(Nc2ncc3c4ccncc4n(C4CCCC4)c3n2)nn1

>  <Name>  (700) 
nan

>  <Pocket>  (700) 
nan

>  <ATP_Site>  (700) 
nan

>  <Peripheral>  (700) 
nan

>  <Num_H_Atoms_ProtBoundConf>  (700) 
nan

>  <Num_Resolved_Atoms>  (700) 
nan

>  <Num_Not_Resolved_Atoms>  (700) 
nan

$$$$
CHEMBL221700
     RDKit          3D

  0  0  0  0  0  0  0  0  0  0999 V3000
M  V30 BEGIN CTAB
M  V30 COUNTS 65 68 0 0 0
M  V30 BEGIN ATOM
M  V30 1 O 0.256465 -1.971040 3.538996 0
M  V30 2 C 0.740142 -0.936256 4.056032 0
M  V30 3 N 1.966594 -0.460844 3.632753 0
M  V30 4 C 3.051100 -0.656833 2.747471 0
M  V30 5 C 2.794725 -0.534832 1.308192 0
M  V30 6 C 1.773704 -1.501597 0.792188 0
M  V30 7 N 1.638106 -1.390789 -0.669750 0
M  V30 8 C 1.158919 -0.275074 -1.409577 0
M  V30 9 C 1.845754 0.848669 -1.704407 0
M  V30 10 C 1.274061 1.859169 -2.450379 0
M  V30 11 C -0.042955 1.626867 -2.863753 0
M  V30 12 O -0.557495 2.557101 -3.545119 0
M  V30 13 N -0.736349 0.517707 -2.578544 0
M  V30 14 C -2.065654 0.403457 -3.067879 0
M  V30 15 C -2.237342 -0.683120 -3.937912 0
M  V30 16 C -3.444887 -0.973291 -4.528885 0
M  V30 17 C -4.555350 -0.187682 -4.281240 0
M  V30 18 C -4.372226 0.873114 -3.426950 0
M  V30 19 C -3.183507 1.178599 -2.829997 0
M  V30 20 Cl -2.882339 2.510509 -1.734585 0
M  V30 21 N -0.116050 -0.387835 -1.866412 0
M  V30 22 C 1.968435 -2.389209 -1.636029 0
M  V30 23 C 2.944580 -2.156586 -2.579392 0
M  V30 24 C 3.212023 -3.192428 -3.483809 0
M  V30 25 C 2.520337 -4.381377 -3.416812 0
M  V30 26 C 1.528861 -4.616951 -2.458148 0
M  V30 27 C 1.293622 -3.569956 -1.583478 0
M  V30 28 Cl 0.060585 -3.847351 -0.391806 0
M  V30 29 C -0.209375 -0.487395 5.045083 0
M  V30 30 C -1.446850 -1.394531 4.993902 0
M  V30 31 C -2.367985 -0.980971 3.874672 0
M  V30 32 C -2.634614 0.491532 3.848208 0
M  V30 33 C -2.274855 1.157713 2.544639 0
M  V30 34 F -2.566699 2.516797 2.643815 0
M  V30 35 F -0.950991 1.062387 2.210372 0
M  V30 36 F -3.012297 0.547490 1.553358 0
M  V30 37 C -2.037377 1.194557 5.037692 0
M  V30 38 C -0.530278 0.938006 5.179826 0
M  V30 39 H 2.094410 0.390937 4.254690 0
M  V30 40 H 3.519945 -1.660897 3.015572 0
M  V30 41 H 3.899504 0.047553 3.028973 0
M  V30 42 H 3.726267 -0.536824 0.683096 0
M  V30 43 H 2.421101 0.531801 1.144779 0
M  V30 44 H 0.804878 -1.083834 1.239258 0
M  V30 45 H 1.825780 -2.520550 1.156836 0
M  V30 46 H 2.852840 0.873144 -1.312364 0
M  V30 47 H 1.885458 2.706647 -2.635302 0
M  V30 48 H -1.441148 -1.362455 -4.201438 0
M  V30 49 H -3.573368 -1.817087 -5.202979 0
M  V30 50 H -5.519516 -0.392459 -4.733035 0
M  V30 51 H -5.215463 1.540275 -3.186996 0
M  V30 52 H 3.467247 -1.210716 -2.602319 0
M  V30 53 H 3.982948 -3.045655 -4.253132 0
M  V30 54 H 2.729176 -5.190199 -4.122965 0
M  V30 55 H 1.045571 -5.562457 -2.474950 0
M  V30 56 H 0.247665 -0.800049 6.041392 0
M  V30 57 H -1.986202 -1.271772 5.949156 0
M  V30 58 H -1.106775 -2.412808 4.809684 0
M  V30 59 H -3.299688 -1.573643 3.999008 0
M  V30 60 H -1.939457 -1.273133 2.896432 0
M  V30 61 H -3.737375 0.637254 3.953683 0
M  V30 62 H -2.207993 2.274929 4.945682 0
M  V30 63 H -2.595846 0.794876 5.932881 0
M  V30 64 H -0.044267 1.652621 4.498748 0
M  V30 65 H -0.319296 1.348969 6.218064 0
M  V30 END ATOM
M  V30 BEGIN BOND
M  V30 1 2 1 2
M  V30 2 1 2 3
M  V30 3 1 3 4
M  V30 4 1 4 5
M  V30 5 1 5 6
M  V30 6 1 6 7
M  V30 7 1 7 8
M  V30 8 1 8 9
M  V30 9 2 9 10
M  V30 10 1 10 11
M  V30 11 2 11 12
M  V30 12 1 11 13
M  V30 13 1 13 14
M  V30 14 2 14 15
M  V30 15 1 15 16
M  V30 16 2 16 17
M  V30 17 1 17 18
M  V30 18 2 18 19
M  V30 19 1 19 20
M  V30 20 1 13 21
M  V30 21 1 7 22
M  V30 22 2 22 23
M  V30 23 1 23 24
M  V30 24 2 24 25
M  V30 25 1 25 26
M  V30 26 2 26 27
M  V30 27 1 27 28
M  V30 28 1 2 29
M  V30 29 1 29 30
M  V30 30 1 30 31
M  V30 31 1 31 32
M  V30 32 1 32 33
M  V30 33 1 33 34
M  V30 34 1 33 35
M  V30 35 1 33 36
M  V30 36 1 32 37
M  V30 37 1 37 38
M  V30 38 2 21 8
M  V30 39 1 27 22
M  V30 40 1 38 29
M  V30 41 1 19 14
M  V30 42 1 3 39
M  V30 43 1 4 40
M  V30 44 1 4 41
M  V30 45 1 5 42
M  V30 46 1 5 43
M  V30 47 1 6 44
M  V30 48 1 6 45
M  V30 49 1 9 46
M  V30 50 1 10 47
M  V30 51 1 15 48
M  V30 52 1 16 49
M  V30 53 1 17 50
M  V30 54 1 18 51
M  V30 55 1 23 52
M  V30 56 1 24 53
M  V30 57 1 25 54
M  V30 58 1 26 55
M  V30 59 1 29 56
M  V30 60 1 30 57
M  V30 61 1 30 58
M  V30 62 1 31 59
M  V30 63 1 31 60
M  V30 64 1 32 61
M  V30 65 1 37 62
M  V30 66 1 37 63
M  V30 67 1 38 64
M  V30 68 1 38 65
M  V30 END BOND
M  V30 END CTAB
M  END
>  <Dataset>  (701) 
ChEMBL_Kinases

>  <Ligand_Instance>  (701) 
nan

>  <PDB_ID>  (701) 
nan

>  <Standardized_SMILES>  (701) 
O=C(NCCCN(c1ccc(=O)n(-c2ccccc2Cl)n1)c1ccccc1Cl)C1CCC(C(F)(F)F)CC1

>  <Name>  (701) 
nan

>  <Pocket>  (701) 
nan

>  <ATP_Site>  (701) 
nan

>  <Peripheral>  (701) 
nan

>  <Num_H_Atoms_ProtBoundConf>  (701) 
nan

>  <Num_Resolved_Atoms>  (701) 
nan

>  <Num_Not_Resolved_Atoms>  (701) 
nan

$$$$
CHEMBL4555766
     RDKit          3D

  0  0  0  0  0  0  0  0  0  0999 V3000
M  V30 BEGIN CTAB
M  V30 COUNTS 52 55 0 0 0
M  V30 BEGIN ATOM
M  V30 1 C 5.443954 -3.124455 2.795709 0
M  V30 2 S 4.825195 -2.657808 1.154067 0
M  V30 3 C 3.864991 -1.159795 1.225194 0
M  V30 4 N 4.520047 0.015104 1.058636 0
M  V30 5 C 3.614364 1.030226 1.146905 0
M  V30 6 C 3.701507 2.480541 1.054814 0
M  V30 7 C 3.474652 3.459943 1.997309 0
M  V30 8 C 3.624649 4.783985 1.651423 0
M  V30 9 C 3.995428 5.211124 0.396083 0
M  V30 10 F 4.124509 6.534990 0.124103 0
M  V30 11 C 4.224312 4.214599 -0.555674 0
M  V30 12 C 4.080089 2.882407 -0.231460 0
M  V30 13 C 2.375479 0.468128 1.372457 0
M  V30 14 C 1.003862 0.886947 1.568411 0
M  V30 15 C 0.470032 1.609476 2.614493 0
M  V30 16 C -0.866414 1.945234 2.672857 0
M  V30 17 N -1.684424 1.557373 1.676876 0
M  V30 18 C -1.234040 0.845555 0.616663 0
M  V30 19 N -2.096221 0.431943 -0.440997 0
M  V30 20 C -2.718048 -0.834718 -0.283749 0
M  V30 21 O -2.708941 -1.738152 0.590052 0
M  V30 22 C -3.638391 -1.345887 -1.347337 0
M  V30 23 C -4.172986 -2.677980 -0.986830 0
M  V30 24 C -5.324921 -2.949728 -0.281197 0
M  V30 25 C -5.674557 -4.282217 -0.032315 0
M  V30 26 C -4.876319 -5.315231 -0.487388 0
M  V30 27 C -5.225202 -6.727015 -0.236560 0
M  V30 28 F -6.224863 -7.178004 -1.092320 0
M  V30 29 F -5.607151 -6.871599 1.090054 0
M  V30 30 F -4.099514 -7.536087 -0.398270 0
M  V30 31 C -3.711433 -5.053820 -1.200591 0
M  V30 32 C -3.378266 -3.733823 -1.439127 0
M  V30 33 C 0.103549 0.512997 0.564506 0
M  V30 34 N 2.552158 -0.876069 1.416851 0
M  V30 35 H 5.647972 -2.191918 3.366768 0
M  V30 36 H 6.409137 -3.663083 2.623619 0
M  V30 37 H 4.777043 -3.793494 3.343431 0
M  V30 38 H 3.193694 3.052817 2.944843 0
M  V30 39 H 3.431850 5.509257 2.436885 0
M  V30 40 H 4.513509 4.581395 -1.529579 0
M  V30 41 H 4.292274 2.230833 -1.075816 0
M  V30 42 H 1.156316 1.888901 3.374806 0
M  V30 43 H -1.238201 2.512561 3.512814 0
M  V30 44 H -2.318992 0.954221 -1.312185 0
M  V30 45 H -3.152237 -1.355904 -2.343524 0
M  V30 46 H -4.486081 -0.619703 -1.389290 0
M  V30 47 H -5.890699 -2.084988 0.037768 0
M  V30 48 H -6.572124 -4.462696 0.516733 0
M  V30 49 H -3.089620 -5.878463 -1.554386 0
M  V30 50 H -2.446204 -3.601684 -2.007587 0
M  V30 51 H 0.439371 -0.057011 -0.294285 0
M  V30 52 H 1.940246 -1.725769 1.559022 0
M  V30 END ATOM
M  V30 BEGIN BOND
M  V30 1 1 1 2
M  V30 2 1 2 3
M  V30 3 2 3 4
M  V30 4 1 4 5
M  V30 5 1 5 6
M  V30 6 2 6 7
M  V30 7 1 7 8
M  V30 8 2 8 9
M  V30 9 1 9 10
M  V30 10 1 9 11
M  V30 11 2 11 12
M  V30 12 2 5 13
M  V30 13 1 13 14
M  V30 14 2 14 15
M  V30 15 1 15 16
M  V30 16 2 16 17
M  V30 17 1 17 18
M  V30 18 1 18 19
M  V30 19 1 19 20
M  V30 20 2 20 21
M  V30 21 1 20 22
M  V30 22 1 22 23
M  V30 23 2 23 24
M  V30 24 1 24 25
M  V30 25 2 25 26
M  V30 26 1 26 27
M  V30 27 1 27 28
M  V30 28 1 27 29
M  V30 29 1 27 30
M  V30 30 1 26 31
M  V30 31 2 31 32
M  V30 32 2 18 33
M  V30 33 1 13 34
M  V30 34 1 34 3
M  V30 35 1 12 6
M  V30 36 1 33 14
M  V30 37 1 32 23
M  V30 38 1 1 35
M  V30 39 1 1 36
M  V30 40 1 1 37
M  V30 41 1 7 38
M  V30 42 1 8 39
M  V30 43 1 11 40
M  V30 44 1 12 41
M  V30 45 1 15 42
M  V30 46 1 16 43
M  V30 47 1 19 44
M  V30 48 1 22 45
M  V30 49 1 22 46
M  V30 50 1 24 47
M  V30 51 1 25 48
M  V30 52 1 31 49
M  V30 53 1 32 50
M  V30 54 1 33 51
M  V30 55 1 34 52
M  V30 END BOND
M  V30 END CTAB
M  END
>  <Dataset>  (702) 
ChEMBL_Kinases

>  <Ligand_Instance>  (702) 
nan

>  <PDB_ID>  (702) 
nan

>  <Standardized_SMILES>  (702) 
CSc1nc(-c2ccc(F)cc2)c(-c2ccnc(NC(=O)Cc3ccc(C(F)(F)F)cc3)c2)[nH]1

>  <Name>  (702) 
nan

>  <Pocket>  (702) 
nan

>  <ATP_Site>  (702) 
nan

>  <Peripheral>  (702) 
nan

>  <Num_H_Atoms_ProtBoundConf>  (702) 
nan

>  <Num_Resolved_Atoms>  (702) 
nan

>  <Num_Not_Resolved_Atoms>  (702) 
nan

$$$$
CHEMBL221126
     RDKit          3D

  0  0  0  0  0  0  0  0  0  0999 V3000
M  V30 BEGIN CTAB
M  V30 COUNTS 44 45 0 0 0
M  V30 BEGIN ATOM
M  V30 1 C -1.059074 -5.909248 2.192281 0
M  V30 2 C -1.051265 -4.716640 1.321704 0
M  V30 3 C -2.150100 -4.424783 0.640267 0
M  V30 4 C -2.117064 -3.243456 -0.211705 0
M  V30 5 N -1.004705 -2.494768 -0.285791 0
M  V30 6 C -0.910764 -1.377505 -1.065324 0
M  V30 7 C 0.337108 -0.588001 -1.111496 0
M  V30 8 O 0.425541 0.428926 -1.824719 0
M  V30 9 N 1.424344 -1.018835 -0.325256 0
M  V30 10 C 2.739851 -0.411730 -0.207671 0
M  V30 11 C 2.698040 0.806877 0.649199 0
M  V30 12 C 2.474641 2.061248 0.086712 0
M  V30 13 C 2.437634 3.183293 0.904629 0
M  V30 14 C 2.619757 3.061474 2.260581 0
M  V30 15 S 2.601294 4.375491 3.414313 0
M  V30 16 C 4.260809 4.983772 3.587195 0
M  V30 17 O 1.710959 5.493802 2.939850 0
M  V30 18 O 2.147642 3.880212 4.765784 0
M  V30 19 C 2.840902 1.796200 2.793317 0
M  V30 20 C 2.884247 0.656067 2.008935 0
M  V30 21 C -1.986505 -0.996653 -1.804302 0
M  V30 22 C -3.165663 -1.731227 -1.769103 0
M  V30 23 N -4.295072 -1.338483 -2.539851 0
M  V30 24 C -3.207374 -2.855287 -0.962204 0
M  V30 25 C -4.387448 -3.654245 -0.880007 0
M  V30 26 N -5.335136 -4.292295 -0.809895 0
M  V30 27 H -0.249959 -6.630280 1.918543 0
M  V30 28 H -2.014137 -6.486727 2.110779 0
M  V30 29 H -0.929737 -5.683359 3.273429 0
M  V30 30 H -0.140481 -4.149368 1.294457 0
M  V30 31 H -3.055887 -5.022149 0.691632 0
M  V30 32 H 1.303572 -1.890458 0.267363 0
M  V30 33 H 2.978107 -0.060661 -1.257284 0
M  V30 34 H 3.509410 -1.133813 0.083030 0
M  V30 35 H 2.328458 2.205388 -0.964075 0
M  V30 36 H 2.266800 4.187474 0.522830 0
M  V30 37 H 4.970904 4.263104 3.149251 0
M  V30 38 H 4.407676 5.985150 3.112777 0
M  V30 39 H 4.544293 5.063532 4.663973 0
M  V30 40 H 2.992282 1.648772 3.872615 0
M  V30 41 H 3.058176 -0.295825 2.466902 0
M  V30 42 H -1.898587 -0.109979 -2.417422 0
M  V30 43 H -4.724845 -1.726490 -3.408120 0
M  V30 44 H -4.880760 -0.509333 -2.270538 0
M  V30 END ATOM
M  V30 BEGIN BOND
M  V30 1 1 1 2
M  V30 2 2 2 3
M  V30 3 1 3 4
M  V30 4 2 4 5
M  V30 5 1 5 6
M  V30 6 1 6 7
M  V30 7 2 7 8
M  V30 8 1 7 9
M  V30 9 1 9 10
M  V30 10 1 10 11
M  V30 11 2 11 12
M  V30 12 1 12 13
M  V30 13 2 13 14
M  V30 14 1 14 15
M  V30 15 1 15 16
M  V30 16 2 15 17
M  V30 17 2 15 18
M  V30 18 1 14 19
M  V30 19 2 19 20
M  V30 20 2 6 21
M  V30 21 1 21 22
M  V30 22 1 22 23
M  V30 23 2 22 24
M  V30 24 1 24 25
M  V30 25 3 25 26
M  V30 26 1 24 4
M  V30 27 1 20 11
M  V30 28 1 1 27
M  V30 29 1 1 28
M  V30 30 1 1 29
M  V30 31 1 2 30
M  V30 32 1 3 31
M  V30 33 1 9 32
M  V30 34 1 10 33
M  V30 35 1 10 34
M  V30 36 1 12 35
M  V30 37 1 13 36
M  V30 38 1 16 37
M  V30 39 1 16 38
M  V30 40 1 16 39
M  V30 41 1 19 40
M  V30 42 1 20 41
M  V30 43 1 21 42
M  V30 44 1 23 43
M  V30 45 1 23 44
M  V30 END BOND
M  V30 END CTAB
M  END
>  <Dataset>  (703) 
ChEMBL_Kinases

>  <Ligand_Instance>  (703) 
nan

>  <PDB_ID>  (703) 
nan

>  <Standardized_SMILES>  (703) 
C/C=C/c1nc(C(=O)NCc2ccc(S(C)(=O)=O)cc2)cc(N)c1C#N

>  <Name>  (703) 
nan

>  <Pocket>  (703) 
nan

>  <ATP_Site>  (703) 
nan

>  <Peripheral>  (703) 
nan

>  <Num_H_Atoms_ProtBoundConf>  (703) 
nan

>  <Num_Resolved_Atoms>  (703) 
nan

>  <Num_Not_Resolved_Atoms>  (703) 
nan

$$$$
CHEMBL221128
     RDKit          3D

  0  0  0  0  0  0  0  0  0  0999 V3000
M  V30 BEGIN CTAB
M  V30 COUNTS 49 50 0 0 0
M  V30 BEGIN ATOM
M  V30 1 C -2.111606 -7.297274 -4.062860 0
M  V30 2 C -1.632271 -6.236163 -3.758885 0
M  V30 3 C -1.078635 -4.968647 -3.416255 0
M  V30 4 C -1.504540 -4.164775 -2.468051 0
M  V30 5 C -1.029853 -2.870572 -2.033059 0
M  V30 6 C 0.009026 -2.126649 -2.503080 0
M  V30 7 N 0.767711 -2.642749 -3.572348 0
M  V30 8 C 0.402880 -0.897308 -2.035835 0
M  V30 9 C -0.319391 -0.361285 -0.991663 0
M  V30 10 C 0.070704 0.952629 -0.465733 0
M  V30 11 O 1.045927 1.578220 -0.956091 0
M  V30 12 N -0.704526 1.461443 0.606796 0
M  V30 13 C -0.482999 2.742838 1.267155 0
M  V30 14 C 0.675657 2.691613 2.196707 0
M  V30 15 C 1.991987 2.974508 1.896842 0
M  V30 16 C 2.960891 2.879572 2.881570 0
M  V30 17 C 2.643178 2.500726 4.188883 0
M  V30 18 S 3.876605 2.380822 5.437888 0
M  V30 19 C 4.520408 0.706743 5.423492 0
M  V30 20 O 4.996466 3.336588 5.235984 0
M  V30 21 O 3.206507 2.579629 6.764036 0
M  V30 22 C 1.311552 2.224299 4.453498 0
M  V30 23 C 0.328579 2.313614 3.482196 0
M  V30 24 N -1.348835 -1.070228 -0.506778 0
M  V30 25 C -1.700381 -2.266349 -0.991123 0
M  V30 26 O -2.790447 -2.862831 -0.373078 0
M  V30 27 C -3.519787 -2.317818 0.684034 0
M  V30 28 C -4.622197 -3.274282 1.066097 0
M  V30 29 H -2.544211 -8.231918 -4.336619 0
M  V30 30 H -0.238380 -4.637600 -3.981180 0
M  V30 31 H -2.357660 -4.611685 -1.970484 0
M  V30 32 H 1.256444 -2.743530 -4.482346 0
M  V30 33 H 1.193737 -2.568432 -4.521659 0
M  V30 34 H 1.226376 -0.363955 -2.446940 0
M  V30 35 H -1.520357 0.897044 0.990023 0
M  V30 36 H -0.238477 3.488328 0.477763 0
M  V30 37 H -1.399931 3.114370 1.747473 0
M  V30 38 H 2.191437 3.260789 0.885731 0
M  V30 39 H 3.981048 3.102981 2.633363 0
M  V30 40 H 3.777775 -0.020328 5.084279 0
M  V30 41 H 5.334013 0.732681 4.647534 0
M  V30 42 H 4.969177 0.465237 6.400207 0
M  V30 43 H 1.117468 1.934923 5.482565 0
M  V30 44 H -0.657144 2.068535 3.838766 0
M  V30 45 H -2.890986 -2.086317 1.574776 0
M  V30 46 H -3.913824 -1.328782 0.327863 0
M  V30 47 H -5.572883 -2.746047 1.290710 0
M  V30 48 H -4.262489 -3.858360 1.950756 0
M  V30 49 H -4.820843 -3.941700 0.202680 0
M  V30 END ATOM
M  V30 BEGIN BOND
M  V30 1 3 1 2
M  V30 2 1 2 3
M  V30 3 2 3 4
M  V30 4 1 4 5
M  V30 5 2 5 6
M  V30 6 1 6 7
M  V30 7 1 6 8
M  V30 8 2 8 9
M  V30 9 1 9 10
M  V30 10 2 10 11
M  V30 11 1 10 12
M  V30 12 1 12 13
M  V30 13 1 13 14
M  V30 14 2 14 15
M  V30 15 1 15 16
M  V30 16 2 16 17
M  V30 17 1 17 18
M  V30 18 1 18 19
M  V30 19 2 18 20
M  V30 20 2 18 21
M  V30 21 1 17 22
M  V30 22 2 22 23
M  V30 23 1 9 24
M  V30 24 2 24 25
M  V30 25 1 25 26
M  V30 26 1 26 27
M  V30 27 1 27 28
M  V30 28 1 25 5
M  V30 29 1 23 14
M  V30 30 1 1 29
M  V30 31 1 3 30
M  V30 32 1 4 31
M  V30 33 1 7 32
M  V30 34 1 7 33
M  V30 35 1 8 34
M  V30 36 1 12 35
M  V30 37 1 13 36
M  V30 38 1 13 37
M  V30 39 1 15 38
M  V30 40 1 16 39
M  V30 41 1 19 40
M  V30 42 1 19 41
M  V30 43 1 19 42
M  V30 44 1 22 43
M  V30 45 1 23 44
M  V30 46 1 27 45
M  V30 47 1 27 46
M  V30 48 1 28 47
M  V30 49 1 28 48
M  V30 50 1 28 49
M  V30 END BOND
M  V30 END CTAB
M  END
>  <Dataset>  (704) 
ChEMBL_Kinases

>  <Ligand_Instance>  (704) 
nan

>  <PDB_ID>  (704) 
nan

>  <Standardized_SMILES>  (704) 
C#C/C=C/c1c(N)cc(C(=O)NCc2ccc(S(C)(=O)=O)cc2)nc1OCC

>  <Name>  (704) 
nan

>  <Pocket>  (704) 
nan

>  <ATP_Site>  (704) 
nan

>  <Peripheral>  (704) 
nan

>  <Num_H_Atoms_ProtBoundConf>  (704) 
nan

>  <Num_Resolved_Atoms>  (704) 
nan

>  <Num_Not_Resolved_Atoms>  (704) 
nan

$$$$
CHEMBL221175
     RDKit          3D

  0  0  0  0  0  0  0  0  0  0999 V3000
M  V30 BEGIN CTAB
M  V30 COUNTS 53 54 0 0 0
M  V30 BEGIN ATOM
M  V30 1 C 0.124159 -2.369651 4.191844 0
M  V30 2 N 1.565864 -2.219081 4.075846 0
M  V30 3 C 1.869482 -0.821479 4.278043 0
M  V30 4 C 1.940848 -2.673104 2.752635 0
M  V30 5 C 3.424328 -2.565598 2.512161 0
M  V30 6 N 3.720009 -3.037304 1.173794 0
M  V30 7 C 3.189895 -2.429594 0.005433 0
M  V30 8 N 2.380598 -1.375366 -0.005334 0
M  V30 9 C 1.899613 -0.825166 -1.156906 0
M  V30 10 C 1.011459 0.340477 -1.084176 0
M  V30 11 O 0.569552 0.844950 -2.147849 0
M  V30 12 N 0.637018 0.915646 0.161092 0
M  V30 13 C -0.229566 2.061576 0.356837 0
M  V30 14 C -1.660914 1.708319 0.167443 0
M  V30 15 C -2.371701 1.269232 1.275844 0
M  V30 16 C -3.704487 0.916628 1.220866 0
M  V30 17 C -4.392549 0.992760 0.022422 0
M  V30 18 S -6.072503 0.597452 -0.263006 0
M  V30 19 C -7.115139 2.014669 -0.051951 0
M  V30 20 O -6.208717 -0.038117 -1.596793 0
M  V30 21 O -6.514983 -0.450145 0.749579 0
M  V30 22 C -3.701936 1.427290 -1.090258 0
M  V30 23 C -2.369437 1.774989 -1.013122 0
M  V30 24 C 2.237156 -1.347333 -2.386975 0
M  V30 25 C 3.074150 -2.442445 -2.447027 0
M  V30 26 N 3.461362 -3.029941 -3.684276 0
M  V30 27 C 3.511257 -2.931445 -1.237111 0
M  V30 28 C 4.387284 -4.077820 -1.307080 0
M  V30 29 N 5.114496 -5.002583 -1.354694 0
M  V30 30 H -0.313001 -1.608927 4.897211 0
M  V30 31 H -0.319449 -2.230602 3.163150 0
M  V30 32 H -0.133398 -3.404091 4.499772 0
M  V30 33 H 1.353649 -0.498392 5.206831 0
M  V30 34 H 2.944948 -0.637432 4.447402 0
M  V30 35 H 1.448897 -0.208652 3.454610 0
M  V30 36 H 1.387108 -2.077810 2.028842 0
M  V30 37 H 1.656734 -3.753224 2.690409 0
M  V30 38 H 3.635575 -1.456415 2.457944 0
M  V30 39 H 4.018547 -3.059865 3.279835 0
M  V30 40 H 4.350890 -3.858398 1.088569 0
M  V30 41 H 1.064280 0.414265 0.997777 0
M  V30 42 H -0.064400 2.412978 1.404801 0
M  V30 43 H -0.003081 2.875868 -0.365850 0
M  V30 44 H -1.970229 1.159840 2.269404 0
M  V30 45 H -4.297656 0.571556 2.049293 0
M  V30 46 H -7.417912 2.166636 1.001519 0
M  V30 47 H -8.029211 1.857542 -0.648229 0
M  V30 48 H -6.559812 2.913996 -0.379055 0
M  V30 49 H -4.162336 1.520654 -2.084260 0
M  V30 50 H -1.840253 2.112973 -1.878357 0
M  V30 51 H 1.869645 -0.930744 -3.322514 0
M  V30 52 H 4.354640 -2.781491 -4.152242 0
M  V30 53 H 2.835294 -3.742065 -4.156541 0
M  V30 END ATOM
M  V30 BEGIN BOND
M  V30 1 1 1 2
M  V30 2 1 2 3
M  V30 3 1 2 4
M  V30 4 1 4 5
M  V30 5 1 5 6
M  V30 6 1 6 7
M  V30 7 2 7 8
M  V30 8 1 8 9
M  V30 9 1 9 10
M  V30 10 2 10 11
M  V30 11 1 10 12
M  V30 12 1 12 13
M  V30 13 1 13 14
M  V30 14 2 14 15
M  V30 15 1 15 16
M  V30 16 2 16 17
M  V30 17 1 17 18
M  V30 18 1 18 19
M  V30 19 2 18 20
M  V30 20 2 18 21
M  V30 21 1 17 22
M  V30 22 2 22 23
M  V30 23 2 9 24
M  V30 24 1 24 25
M  V30 25 1 25 26
M  V30 26 2 25 27
M  V30 27 1 27 28
M  V30 28 3 28 29
M  V30 29 1 27 7
M  V30 30 1 23 14
M  V30 31 1 1 30
M  V30 32 1 1 31
M  V30 33 1 1 32
M  V30 34 1 3 33
M  V30 35 1 3 34
M  V30 36 1 3 35
M  V30 37 1 4 36
M  V30 38 1 4 37
M  V30 39 1 5 38
M  V30 40 1 5 39
M  V30 41 1 6 40
M  V30 42 1 12 41
M  V30 43 1 13 42
M  V30 44 1 13 43
M  V30 45 1 15 44
M  V30 46 1 16 45
M  V30 47 1 19 46
M  V30 48 1 19 47
M  V30 49 1 19 48
M  V30 50 1 22 49
M  V30 51 1 23 50
M  V30 52 1 24 51
M  V30 53 1 26 52
M  V30 54 1 26 53
M  V30 END BOND
M  V30 END CTAB
M  END
>  <Dataset>  (705) 
ChEMBL_Kinases

>  <Ligand_Instance>  (705) 
nan

>  <PDB_ID>  (705) 
nan

>  <Standardized_SMILES>  (705) 
CN(C)CCNc1nc(C(=O)NCc2ccc(S(C)(=O)=O)cc2)cc(N)c1C#N

>  <Name>  (705) 
nan

>  <Pocket>  (705) 
nan

>  <ATP_Site>  (705) 
nan

>  <Peripheral>  (705) 
nan

>  <Num_H_Atoms_ProtBoundConf>  (705) 
nan

>  <Num_Resolved_Atoms>  (705) 
nan

>  <Num_Not_Resolved_Atoms>  (705) 
nan

$$$$
CHEMBL221179
     RDKit          3D

  0  0  0  0  0  0  0  0  0  0999 V3000
M  V30 BEGIN CTAB
M  V30 COUNTS 47 48 0 0 0
M  V30 BEGIN ATOM
M  V30 1 C 1.095210 -4.875010 0.261384 0
M  V30 2 C -0.275694 -4.852937 -0.342558 0
M  V30 3 O -1.222601 -4.795810 0.707630 0
M  V30 4 C -1.172332 -3.709566 1.569216 0
M  V30 5 N -0.291944 -2.701203 1.486131 0
M  V30 6 C -0.281523 -1.666960 2.346048 0
M  V30 7 C 0.677596 -0.574265 2.247843 0
M  V30 8 O 0.626595 0.358362 3.089243 0
M  V30 9 N 1.646882 -0.579385 1.211551 0
M  V30 10 C 2.668001 0.425913 0.970792 0
M  V30 11 C 2.118471 1.652902 0.342944 0
M  V30 12 C 1.663707 2.718162 1.092366 0
M  V30 13 C 1.161298 3.823699 0.398920 0
M  V30 14 C 1.094860 3.909094 -0.992379 0
M  V30 15 S 0.436002 5.361479 -1.713835 0
M  V30 16 C 1.737150 6.515846 -1.987173 0
M  V30 17 O -0.331396 5.050946 -2.964934 0
M  V30 18 O -0.554841 6.002847 -0.753040 0
M  V30 19 C 1.564192 2.813770 -1.686338 0
M  V30 20 C 2.067868 1.703015 -1.041942 0
M  V30 21 C -1.235812 -1.679660 3.345922 0
M  V30 22 C -2.167431 -2.686472 3.484561 0
M  V30 23 N -3.132202 -2.655358 4.532060 0
M  V30 24 C -2.118908 -3.711408 2.569915 0
M  V30 25 C -3.105164 -4.768074 2.724252 0
M  V30 26 N -3.241630 -5.916295 1.900856 0
M  V30 27 O -3.938778 -4.713327 3.653598 0
M  V30 28 H 1.781079 -4.131503 -0.194101 0
M  V30 29 H 1.473750 -5.922308 0.154797 0
M  V30 30 H 1.093406 -4.629212 1.355166 0
M  V30 31 H -0.432751 -3.966233 -1.008638 0
M  V30 32 H -0.456545 -5.751147 -0.993423 0
M  V30 33 H 1.620188 -1.405624 0.544069 0
M  V30 34 H 3.086651 0.651458 1.994006 0
M  V30 35 H 3.503624 -0.018830 0.402965 0
M  V30 36 H 1.691882 2.707725 2.166937 0
M  V30 37 H 0.811080 4.644048 0.989916 0
M  V30 38 H 2.263533 6.376019 -2.947006 0
M  V30 39 H 1.306832 7.557182 -1.915165 0
M  V30 40 H 2.465947 6.436327 -1.150930 0
M  V30 41 H 1.507019 2.892531 -2.778497 0
M  V30 42 H 2.411371 0.894041 -1.704067 0
M  V30 43 H -1.224843 -0.832909 4.047334 0
M  V30 44 H -2.971028 -3.157169 5.437834 0
M  V30 45 H -3.966621 -2.092031 4.270597 0
M  V30 46 H -4.102891 -5.806047 1.293687 0
M  V30 47 H -2.759170 -6.840892 1.703083 0
M  V30 END ATOM
M  V30 BEGIN BOND
M  V30 1 1 1 2
M  V30 2 1 2 3
M  V30 3 1 3 4
M  V30 4 2 4 5
M  V30 5 1 5 6
M  V30 6 1 6 7
M  V30 7 2 7 8
M  V30 8 1 7 9
M  V30 9 1 9 10
M  V30 10 1 10 11
M  V30 11 2 11 12
M  V30 12 1 12 13
M  V30 13 2 13 14
M  V30 14 1 14 15
M  V30 15 1 15 16
M  V30 16 2 15 17
M  V30 17 2 15 18
M  V30 18 1 14 19
M  V30 19 2 19 20
M  V30 20 2 6 21
M  V30 21 1 21 22
M  V30 22 1 22 23
M  V30 23 2 22 24
M  V30 24 1 24 25
M  V30 25 1 25 26
M  V30 26 2 25 27
M  V30 27 1 24 4
M  V30 28 1 20 11
M  V30 29 1 1 28
M  V30 30 1 1 29
M  V30 31 1 1 30
M  V30 32 1 2 31
M  V30 33 1 2 32
M  V30 34 1 9 33
M  V30 35 1 10 34
M  V30 36 1 10 35
M  V30 37 1 12 36
M  V30 38 1 13 37
M  V30 39 1 16 38
M  V30 40 1 16 39
M  V30 41 1 16 40
M  V30 42 1 19 41
M  V30 43 1 20 42
M  V30 44 1 21 43
M  V30 45 1 23 44
M  V30 46 1 23 45
M  V30 47 1 26 46
M  V30 48 1 26 47
M  V30 END BOND
M  V30 END CTAB
M  END
>  <Dataset>  (706) 
ChEMBL_Kinases

>  <Ligand_Instance>  (706) 
nan

>  <PDB_ID>  (706) 
nan

>  <Standardized_SMILES>  (706) 
CCOc1nc(C(=O)NCc2ccc(S(C)(=O)=O)cc2)cc(N)c1C(N)=O

>  <Name>  (706) 
nan

>  <Pocket>  (706) 
nan

>  <ATP_Site>  (706) 
nan

>  <Peripheral>  (706) 
nan

>  <Num_H_Atoms_ProtBoundConf>  (706) 
nan

>  <Num_Resolved_Atoms>  (706) 
nan

>  <Num_Not_Resolved_Atoms>  (706) 
nan

$$$$
CHEMBL4555253
     RDKit          3D

  0  0  0  0  0  0  0  0  0  0999 V3000
M  V30 BEGIN CTAB
M  V30 COUNTS 43 46 0 0 0
M  V30 BEGIN ATOM
M  V30 1 C -1.465404 1.995685 6.113342 0
M  V30 2 S 0.349034 1.939082 5.949858 0
M  V30 3 C 0.823998 1.512337 4.282088 0
M  V30 4 N 1.064986 2.314839 3.214175 0
M  V30 5 C 1.400857 1.585485 2.133568 0
M  V30 6 C 1.728369 2.088322 0.814754 0
M  V30 7 C 0.824380 1.646426 -0.153228 0
M  V30 8 C 0.990569 2.036581 -1.474684 0
M  V30 9 C 2.064857 2.856189 -1.752768 0
M  V30 10 F 2.213439 3.232553 -3.055370 0
M  V30 11 C 2.973580 3.311080 -0.834243 0
M  V30 12 C 2.789077 2.910997 0.473539 0
M  V30 13 C 1.366256 0.280592 2.548928 0
M  V30 14 C 1.659356 -0.915039 1.733999 0
M  V30 15 C 2.931665 -1.138279 1.194835 0
M  V30 16 C 3.211591 -2.251392 0.432427 0
M  V30 17 N 2.240254 -3.160588 0.190502 0
M  V30 18 C 1.004791 -2.953910 0.707459 0
M  V30 19 N -0.091256 -3.867980 0.498104 0
M  V30 20 C -0.715515 -3.402283 -0.694767 0
M  V30 21 O -0.174425 -2.388611 -1.202855 0
M  V30 22 C -1.896862 -3.985570 -1.359515 0
M  V30 23 C -2.388805 -3.433299 -2.518190 0
M  V30 24 C -3.487904 -4.230119 -2.855186 0
M  V30 25 O -3.635122 -5.181165 -1.964110 0
M  V30 26 C -2.688775 -5.052628 -1.055974 0
M  V30 27 C 0.681669 -1.853981 1.476037 0
M  V30 28 N 1.013326 0.235815 3.863182 0
M  V30 29 H -1.721127 1.970134 7.200476 0
M  V30 30 H -1.912633 2.901049 5.685957 0
M  V30 31 H -1.900268 1.064538 5.659358 0
M  V30 32 H -0.028719 1.003168 0.032962 0
M  V30 33 H 0.309687 1.718404 -2.274699 0
M  V30 34 H 3.806227 3.952214 -1.075790 0
M  V30 35 H 3.433505 3.197515 1.299215 0
M  V30 36 H 3.694576 -0.418032 1.388702 0
M  V30 37 H 4.196472 -2.436419 0.009135 0
M  V30 38 H -0.542624 -4.720496 0.928822 0
M  V30 39 H -2.080690 -2.589436 -3.110958 0
M  V30 40 H -4.176462 -4.161059 -3.696385 0
M  V30 41 H -2.509635 -5.666681 -0.176276 0
M  V30 42 H -0.297518 -1.678342 1.894117 0
M  V30 43 H 0.916188 -0.647076 4.418248 0
M  V30 END ATOM
M  V30 BEGIN BOND
M  V30 1 1 1 2
M  V30 2 1 2 3
M  V30 3 2 3 4
M  V30 4 1 4 5
M  V30 5 1 5 6
M  V30 6 2 6 7
M  V30 7 1 7 8
M  V30 8 2 8 9
M  V30 9 1 9 10
M  V30 10 1 9 11
M  V30 11 2 11 12
M  V30 12 2 5 13
M  V30 13 1 13 14
M  V30 14 2 14 15
M  V30 15 1 15 16
M  V30 16 2 16 17
M  V30 17 1 17 18
M  V30 18 1 18 19
M  V30 19 1 19 20
M  V30 20 2 20 21
M  V30 21 1 20 22
M  V30 22 1 22 23
M  V30 23 2 23 24
M  V30 24 1 24 25
M  V30 25 1 25 26
M  V30 26 2 18 27
M  V30 27 1 13 28
M  V30 28 1 28 3
M  V30 29 1 12 6
M  V30 30 1 27 14
M  V30 31 2 26 22
M  V30 32 1 1 29
M  V30 33 1 1 30
M  V30 34 1 1 31
M  V30 35 1 7 32
M  V30 36 1 8 33
M  V30 37 1 11 34
M  V30 38 1 12 35
M  V30 39 1 15 36
M  V30 40 1 16 37
M  V30 41 1 19 38
M  V30 42 1 23 39
M  V30 43 1 24 40
M  V30 44 1 26 41
M  V30 45 1 27 42
M  V30 46 1 28 43
M  V30 END BOND
M  V30 END CTAB
M  END
>  <Dataset>  (707) 
ChEMBL_Kinases

>  <Ligand_Instance>  (707) 
nan

>  <PDB_ID>  (707) 
nan

>  <Standardized_SMILES>  (707) 
CSc1nc(-c2ccc(F)cc2)c(-c2ccnc(NC(=O)c3ccoc3)c2)[nH]1

>  <Name>  (707) 
nan

>  <Pocket>  (707) 
nan

>  <ATP_Site>  (707) 
nan

>  <Peripheral>  (707) 
nan

>  <Num_H_Atoms_ProtBoundConf>  (707) 
nan

>  <Num_Resolved_Atoms>  (707) 
nan

>  <Num_Not_Resolved_Atoms>  (707) 
nan

$$$$
CHEMBL4555093
     RDKit          3D

  0  0  0  0  0  0  0  0  0  0999 V3000
M  V30 BEGIN CTAB
M  V30 COUNTS 61 63 0 0 0
M  V30 BEGIN ATOM
M  V30 1 C 5.653050 1.043952 5.909662 0
M  V30 2 O 4.493804 0.266663 5.661922 0
M  V30 3 C 3.383822 0.800254 5.040425 0
M  V30 4 C 3.394057 2.122401 4.647056 0
M  V30 5 C 2.278064 2.678073 4.016551 0
M  V30 6 C 1.201888 1.833267 3.823780 0
M  V30 7 C 1.155053 0.508610 4.202661 0
M  V30 8 C -0.042806 -0.342091 3.961887 0 CFG=1
M  V30 9 C -1.091162 -0.129352 5.034276 0
M  V30 10 N -0.589547 -0.192000 2.633029 0
M  V30 11 C -0.738917 -1.116195 1.571320 0
M  V30 12 O -0.258568 -2.145776 2.088892 0
M  V30 13 C -1.330458 -0.697773 0.319123 0
M  V30 14 C -1.735460 0.602387 0.178521 0
M  V30 15 C -2.300972 1.045853 -0.994400 0
M  V30 16 C -2.461296 0.162207 -2.044595 0
M  V30 17 C -3.074406 0.688890 -3.283777 0
M  V30 18 C -3.844767 -0.072728 -4.129928 0
M  V30 19 C -4.381454 0.502218 -5.271606 0
M  V30 20 N -4.156804 1.798008 -5.561156 0
M  V30 21 C -3.400538 2.589611 -4.752553 0
M  V30 22 C -2.867088 2.012584 -3.614936 0
M  V30 23 C -2.048187 -1.146480 -1.887844 0
M  V30 24 C -1.479813 -1.594706 -0.712150 0
M  V30 25 N -1.117219 -2.959126 -0.662285 0
M  V30 26 C -1.208445 -3.981430 -1.680254 0
M  V30 27 C -0.239982 -3.808206 -2.816177 0
M  V30 28 C 1.191610 -3.823995 -2.372263 0
M  V30 29 C 1.555631 -5.139341 -1.690790 0
M  V30 30 N 1.342301 -6.217967 -2.634775 0
M  V30 31 C 2.288887 -0.018460 4.831948 0
M  V30 32 H 5.330226 2.025582 6.364221 0
M  V30 33 H 6.359687 0.549165 6.575222 0
M  V30 34 H 6.145434 1.309067 4.948916 0
M  V30 35 H 4.247943 2.774123 4.805410 0
M  V30 36 H 2.269971 3.713073 3.701692 0
M  V30 37 H 0.361706 2.302734 3.333897 0
M  V30 38 H 0.285258 -1.394507 4.073284 0
M  V30 39 H -0.730509 0.388154 5.923549 0
M  V30 40 H -1.978102 0.448687 4.654532 0
M  V30 41 H -1.542885 -1.102985 5.379057 0
M  V30 42 H -0.870455 0.835947 2.639939 0
M  V30 43 H -1.660569 1.373659 0.924883 0
M  V30 44 H -2.626986 2.085618 -1.113010 0
M  V30 45 H -4.015150 -1.095322 -3.890241 0
M  V30 46 H -4.993041 -0.059474 -5.965168 0
M  V30 47 H -3.253052 3.626714 -5.036019 0
M  V30 48 H -2.280141 2.702909 -3.025520 0
M  V30 49 H -2.243799 -1.711435 -2.772720 0
M  V30 50 H -0.723468 -3.277022 0.245645 0
M  V30 51 H -1.022240 -4.962280 -1.203770 0
M  V30 52 H -2.250130 -4.065096 -2.080856 0
M  V30 53 H -0.371639 -4.725351 -3.464959 0
M  V30 54 H -0.422214 -2.963451 -3.478737 0
M  V30 55 H 1.489094 -2.965264 -1.763235 0
M  V30 56 H 1.810308 -3.786991 -3.316272 0
M  V30 57 H 2.614207 -5.117129 -1.344397 0
M  V30 58 H 0.942389 -5.252247 -0.774179 0
M  V30 59 H 1.873527 -7.050630 -2.242650 0
M  V30 60 H 0.331763 -6.484474 -2.632341 0
M  V30 61 H 2.324779 -1.051741 5.157693 0
M  V30 END ATOM
M  V30 BEGIN BOND
M  V30 1 1 1 2
M  V30 2 1 2 3
M  V30 3 2 3 4
M  V30 4 1 4 5
M  V30 5 2 5 6
M  V30 6 1 6 7
M  V30 7 1 7 8
M  V30 8 1 8 9
M  V30 9 1 8 10
M  V30 10 1 10 11
M  V30 11 2 11 12
M  V30 12 1 11 13
M  V30 13 2 13 14
M  V30 14 1 14 15
M  V30 15 2 15 16
M  V30 16 1 16 17
M  V30 17 2 17 18
M  V30 18 1 18 19
M  V30 19 2 19 20
M  V30 20 1 20 21
M  V30 21 2 21 22
M  V30 22 1 16 23
M  V30 23 2 23 24
M  V30 24 1 24 25
M  V30 25 1 25 26
M  V30 26 1 26 27
M  V30 27 1 27 28
M  V30 28 1 28 29
M  V30 29 1 29 30
M  V30 30 2 7 31
M  V30 31 1 31 3
M  V30 32 1 24 13
M  V30 33 1 22 17
M  V30 34 1 1 32
M  V30 35 1 1 33
M  V30 36 1 1 34
M  V30 37 1 4 35
M  V30 38 1 5 36
M  V30 39 1 6 37
M  V30 40 1 8 38 CFG=3
M  V30 41 1 9 39
M  V30 42 1 9 40
M  V30 43 1 9 41
M  V30 44 1 10 42
M  V30 45 1 14 43
M  V30 46 1 15 44
M  V30 47 1 18 45
M  V30 48 1 19 46
M  V30 49 1 21 47
M  V30 50 1 22 48
M  V30 51 1 23 49
M  V30 52 1 25 50
M  V30 53 1 26 51
M  V30 54 1 26 52
M  V30 55 1 27 53
M  V30 56 1 27 54
M  V30 57 1 28 55
M  V30 58 1 28 56
M  V30 59 1 29 57
M  V30 60 1 29 58
M  V30 61 1 30 59
M  V30 62 1 30 60
M  V30 63 1 31 61
M  V30 END BOND
M  V30 END CTAB
M  END
>  <Dataset>  (708) 
ChEMBL_Kinases

>  <Ligand_Instance>  (708) 
nan

>  <PDB_ID>  (708) 
nan

>  <Standardized_SMILES>  (708) 
COc1cccc([C@@H](C)NC(=O)c2ccc(-c3ccncc3)cc2NCCCCN)c1

>  <Name>  (708) 
nan

>  <Pocket>  (708) 
nan

>  <ATP_Site>  (708) 
nan

>  <Peripheral>  (708) 
nan

>  <Num_H_Atoms_ProtBoundConf>  (708) 
nan

>  <Num_Resolved_Atoms>  (708) 
nan

>  <Num_Not_Resolved_Atoms>  (708) 
nan

$$$$
CHEMBL221227
     RDKit          3D

  0  0  0  0  0  0  0  0  0  0999 V3000
M  V30 BEGIN CTAB
M  V30 COUNTS 49 50 0 0 0
M  V30 BEGIN ATOM
M  V30 1 C 3.518179 -2.655401 2.469312 0
M  V30 2 C 2.665127 -3.804133 2.012170 0 CFG=1
M  V30 3 C 1.239783 -3.731688 2.503168 0
M  V30 4 O 0.501715 -2.704440 1.968541 0
M  V30 5 N 2.788824 -3.984867 0.596280 0
M  V30 6 C 2.461331 -2.948499 -0.348127 0
M  V30 7 N 2.025131 -1.747993 -0.001050 0
M  V30 8 C 1.710976 -0.755682 -0.831677 0
M  V30 9 C 1.234598 0.539655 -0.317528 0
M  V30 10 O 0.941305 1.461253 -1.110754 0
M  V30 11 N 1.116949 0.716710 1.082102 0
M  V30 12 C 0.662696 1.929296 1.749821 0
M  V30 13 C -0.806649 2.111973 1.678819 0
M  V30 14 C -1.514010 1.539482 2.727483 0
M  V30 15 C -2.896316 1.628639 2.797503 0
M  V30 16 C -3.569277 2.305788 1.793129 0
M  V30 17 S -5.315413 2.529340 1.700114 0
M  V30 18 C -6.082862 1.189341 0.797168 0
M  V30 19 O -5.835151 2.499699 3.102092 0
M  V30 20 O -5.650577 3.868003 1.110199 0
M  V30 21 C -2.881616 2.892058 0.724963 0
M  V30 22 C -1.507164 2.779709 0.694244 0
M  V30 23 C 1.830793 -0.937180 -2.187790 0
M  V30 24 C 2.277804 -2.154599 -2.650634 0
M  V30 25 N 2.432362 -2.430681 -4.040480 0
M  V30 26 C 2.578345 -3.119982 -1.714525 0
M  V30 27 C 3.049232 -4.398064 -2.224410 0
M  V30 28 N 3.423735 -5.418195 -2.619955 0
M  V30 29 H 4.222647 -2.959581 3.271519 0
M  V30 30 H 2.893744 -1.787941 2.772783 0
M  V30 31 H 4.159365 -2.335229 1.625006 0
M  V30 32 H 3.086474 -4.737461 2.481240 0
M  V30 33 H 1.267097 -3.573825 3.600180 0
M  V30 34 H 0.787402 -4.741243 2.325018 0
M  V30 35 H -0.240625 -2.411027 2.535460 0
M  V30 36 H 3.129304 -4.892515 0.155980 0
M  V30 37 H 1.373918 -0.080637 1.701163 0
M  V30 38 H 1.199265 2.758175 1.200493 0
M  V30 39 H 1.052794 1.983229 2.774613 0
M  V30 40 H -1.107494 0.985879 3.571018 0
M  V30 41 H -3.524013 1.220449 3.564823 0
M  V30 42 H -6.608476 0.479960 1.449410 0
M  V30 43 H -5.239125 0.670276 0.258791 0
M  V30 44 H -6.714841 1.627745 -0.005856 0
M  V30 45 H -3.351867 3.430885 -0.085816 0
M  V30 46 H -0.919931 3.208779 -0.099463 0
M  V30 47 H 1.585474 -0.160029 -2.886368 0
M  V30 48 H 1.581507 -2.996748 -4.237522 0
M  V30 49 H 1.560429 -2.996133 -4.187050 0
M  V30 END ATOM
M  V30 BEGIN BOND
M  V30 1 1 1 2
M  V30 2 1 2 3
M  V30 3 1 3 4
M  V30 4 1 2 5
M  V30 5 1 5 6
M  V30 6 2 6 7
M  V30 7 1 7 8
M  V30 8 1 8 9
M  V30 9 2 9 10
M  V30 10 1 9 11
M  V30 11 1 11 12
M  V30 12 1 12 13
M  V30 13 2 13 14
M  V30 14 1 14 15
M  V30 15 2 15 16
M  V30 16 1 16 17
M  V30 17 1 17 18
M  V30 18 2 17 19
M  V30 19 2 17 20
M  V30 20 1 16 21
M  V30 21 2 21 22
M  V30 22 2 8 23
M  V30 23 1 23 24
M  V30 24 1 24 25
M  V30 25 2 24 26
M  V30 26 1 26 27
M  V30 27 3 27 28
M  V30 28 1 26 6
M  V30 29 1 22 13
M  V30 30 1 1 29
M  V30 31 1 1 30
M  V30 32 1 1 31
M  V30 33 1 2 32 CFG=1
M  V30 34 1 3 33
M  V30 35 1 3 34
M  V30 36 1 4 35
M  V30 37 1 5 36
M  V30 38 1 11 37
M  V30 39 1 12 38
M  V30 40 1 12 39
M  V30 41 1 14 40
M  V30 42 1 15 41
M  V30 43 1 18 42
M  V30 44 1 18 43
M  V30 45 1 18 44
M  V30 46 1 21 45
M  V30 47 1 22 46
M  V30 48 1 23 47
M  V30 49 1 25 48
M  V30 50 1 25 49
M  V30 END BOND
M  V30 END CTAB
M  END
>  <Dataset>  (709) 
ChEMBL_Kinases

>  <Ligand_Instance>  (709) 
nan

>  <PDB_ID>  (709) 
nan

>  <Standardized_SMILES>  (709) 
C[C@@H](CO)Nc1nc(C(=O)NCc2ccc(S(C)(=O)=O)cc2)cc(N)c1C#N

>  <Name>  (709) 
nan

>  <Pocket>  (709) 
nan

>  <ATP_Site>  (709) 
nan

>  <Peripheral>  (709) 
nan

>  <Num_H_Atoms_ProtBoundConf>  (709) 
nan

>  <Num_Resolved_Atoms>  (709) 
nan

>  <Num_Not_Resolved_Atoms>  (709) 
nan

$$$$
CHEMBL221229
     RDKit          3D

  0  0  0  0  0  0  0  0  0  0999 V3000
M  V30 BEGIN CTAB
M  V30 COUNTS 49 51 0 0 0
M  V30 BEGIN ATOM
M  V30 1 C 5.386131 -4.123320 2.555304 0
M  V30 2 S 5.884346 -3.972055 0.845637 0
M  V30 3 O 7.285153 -3.408472 0.815017 0
M  V30 4 O 5.917960 -5.322555 0.182962 0
M  V30 5 C 4.794303 -2.930667 -0.022842 0
M  V30 6 C 4.992652 -1.565812 -0.124131 0
M  V30 7 C 4.143914 -0.723953 -0.805666 0
M  V30 8 C 3.026928 -1.214581 -1.435560 0
M  V30 9 C 1.981282 -0.506847 -2.218073 0
M  V30 10 N 0.935360 -0.125198 -1.309004 0
M  V30 11 C 0.948571 0.945227 -0.395946 0
M  V30 12 O 1.957024 1.692865 -0.315677 0
M  V30 13 C -0.186233 1.229904 0.481859 0
M  V30 14 C -0.157016 2.286141 1.367557 0
M  V30 15 C -1.268506 2.466296 2.144734 0
M  V30 16 N -1.236598 3.557925 3.059858 0
M  V30 17 C -2.343051 1.617861 2.022466 0
M  V30 18 C -3.445591 1.899637 2.877521 0
M  V30 19 N -4.346042 2.148976 3.569218 0
M  V30 20 C -2.376200 0.569310 1.145629 0
M  V30 21 N -3.471776 -0.323812 1.010801 0
M  V30 22 C -4.726813 -0.411735 1.666912 0
M  V30 23 C -5.539909 -1.599066 1.139005 0
M  V30 24 C -6.368184 -0.636156 0.326536 0
M  V30 25 C -5.834182 0.489300 1.188176 0
M  V30 26 N -1.263054 0.440421 0.411068 0
M  V30 27 C 2.832139 -2.591739 -1.329836 0
M  V30 28 C 3.671408 -3.437591 -0.653895 0
M  V30 29 H 6.199311 -4.534532 3.176228 0
M  V30 30 H 5.029348 -3.152774 2.938382 0
M  V30 31 H 4.540556 -4.867851 2.549636 0
M  V30 32 H 5.865576 -1.100451 0.355074 0
M  V30 33 H 4.263506 0.344369 -0.910032 0
M  V30 34 H 2.480252 0.363197 -2.694712 0
M  V30 35 H 1.623992 -1.141914 -3.046708 0
M  V30 36 H 0.053988 -0.717319 -1.329374 0
M  V30 37 H 0.740951 2.874022 1.364926 0
M  V30 38 H -1.828092 4.304641 3.486065 0
M  V30 39 H -0.426483 3.895289 3.603984 0
M  V30 40 H -3.298192 -1.050910 0.278998 0
M  V30 41 H -4.646799 -0.455387 2.776202 0
M  V30 42 H -4.960711 -2.315592 0.546907 0
M  V30 43 H -6.063363 -2.116732 1.954887 0
M  V30 44 H -6.081652 -0.525473 -0.720783 0
M  V30 45 H -7.451406 -0.843984 0.438218 0
M  V30 46 H -6.583902 0.687299 1.998800 0
M  V30 47 H -5.559718 1.390749 0.640693 0
M  V30 48 H 1.980141 -3.097578 -1.788594 0
M  V30 49 H 3.521583 -4.496824 -0.572831 0
M  V30 END ATOM
M  V30 BEGIN BOND
M  V30 1 1 1 2
M  V30 2 2 2 3
M  V30 3 2 2 4
M  V30 4 1 2 5
M  V30 5 2 5 6
M  V30 6 1 6 7
M  V30 7 2 7 8
M  V30 8 1 8 9
M  V30 9 1 9 10
M  V30 10 1 10 11
M  V30 11 2 11 12
M  V30 12 1 11 13
M  V30 13 2 13 14
M  V30 14 1 14 15
M  V30 15 1 15 16
M  V30 16 2 15 17
M  V30 17 1 17 18
M  V30 18 3 18 19
M  V30 19 1 17 20
M  V30 20 1 20 21
M  V30 21 1 21 22
M  V30 22 1 22 23
M  V30 23 1 23 24
M  V30 24 1 24 25
M  V30 25 2 20 26
M  V30 26 1 8 27
M  V30 27 2 27 28
M  V30 28 1 28 5
M  V30 29 1 26 13
M  V30 30 1 25 22
M  V30 31 1 1 29
M  V30 32 1 1 30
M  V30 33 1 1 31
M  V30 34 1 6 32
M  V30 35 1 7 33
M  V30 36 1 9 34
M  V30 37 1 9 35
M  V30 38 1 10 36
M  V30 39 1 14 37
M  V30 40 1 16 38
M  V30 41 1 16 39
M  V30 42 1 21 40
M  V30 43 1 22 41
M  V30 44 1 23 42
M  V30 45 1 23 43
M  V30 46 1 24 44
M  V30 47 1 24 45
M  V30 48 1 25 46
M  V30 49 1 25 47
M  V30 50 1 27 48
M  V30 51 1 28 49
M  V30 END BOND
M  V30 END CTAB
M  END
>  <Dataset>  (710) 
ChEMBL_Kinases

>  <Ligand_Instance>  (710) 
nan

>  <PDB_ID>  (710) 
nan

>  <Standardized_SMILES>  (710) 
CS(=O)(=O)c1ccc(CNC(=O)c2cc(N)c(C#N)c(NC3CCC3)n2)cc1

>  <Name>  (710) 
nan

>  <Pocket>  (710) 
nan

>  <ATP_Site>  (710) 
nan

>  <Peripheral>  (710) 
nan

>  <Num_H_Atoms_ProtBoundConf>  (710) 
nan

>  <Num_Resolved_Atoms>  (710) 
nan

>  <Num_Not_Resolved_Atoms>  (710) 
nan

$$$$
CHEMBL221547
     RDKit          3D

  0  0  0  0  0  0  0  0  0  0999 V3000
M  V30 BEGIN CTAB
M  V30 COUNTS 56 60 0 0 0
M  V30 BEGIN ATOM
M  V30 1 O 1.247338 -1.092268 1.366410 0
M  V30 2 C 1.997556 -0.290565 1.934360 0
M  V30 3 C 2.677753 -0.534815 3.196664 0
M  V30 4 C 2.631782 -1.673806 3.999735 0
M  V30 5 C 3.365033 -1.698127 5.179813 0
M  V30 6 C 4.086981 -0.551007 5.439592 0
M  V30 7 C 4.153637 0.584344 4.670660 0
M  V30 8 C 3.417657 0.583240 3.506917 0
M  V30 9 C 3.186423 1.519833 2.422085 0
M  V30 10 O 3.726014 2.657302 2.402159 0
M  V30 11 N 2.290759 0.994426 1.410635 0
M  V30 12 C 1.924721 1.774877 0.224580 0
M  V30 13 C 0.660311 2.566225 0.511331 0
M  V30 14 C -0.524272 1.696142 0.775912 0
M  V30 15 N -0.946100 0.932580 -0.372283 0
M  V30 16 C -1.982162 -0.056957 -0.176017 0
M  V30 17 C -3.305346 0.278559 0.013413 0
M  V30 18 C -4.233236 -0.757609 0.173149 0
M  V30 19 C -3.861776 -2.093079 0.146239 0
M  V30 20 O -4.695615 -3.003001 0.289154 0
M  V30 21 N -2.544920 -2.347919 -0.043631 0
M  V30 22 C -2.181301 -3.745556 -0.083669 0
M  V30 23 C -1.930419 -4.226314 -1.367925 0
M  V30 24 C -1.592554 -5.553527 -1.382176 0
M  V30 25 C -1.472492 -6.445823 -0.329085 0
M  V30 26 C -1.749513 -5.841638 0.908707 0
M  V30 27 C -2.099305 -4.518043 1.050040 0
M  V30 28 Cl -2.428247 -3.825127 2.611730 0
M  V30 29 N -1.679305 -1.356491 -0.193180 0
M  V30 30 C -0.707791 0.766525 -1.758001 0
M  V30 31 C -1.415436 1.826594 -2.352180 0
M  V30 32 C -1.402930 2.040744 -3.738846 0
M  V30 33 C -0.676196 1.190823 -4.557925 0
M  V30 34 C 0.009817 0.158685 -3.964628 0
M  V30 35 C -0.014223 -0.035490 -2.612211 0
M  V30 36 Cl 0.795386 -1.342759 -1.809164 0
M  V30 37 H 2.030737 -2.549884 3.724548 0
M  V30 38 H 3.357372 -2.557625 5.832466 0
M  V30 39 H 4.660422 -0.591232 6.379613 0
M  V30 40 H 4.729876 1.448544 4.920907 0
M  V30 41 H 1.885989 1.155399 -0.662030 0
M  V30 42 H 2.716739 2.524438 0.067435 0
M  V30 43 H 0.455764 3.166088 -0.404776 0
M  V30 44 H 0.861304 3.211754 1.386387 0
M  V30 45 H -1.383104 2.389240 1.027204 0
M  V30 46 H -0.412123 1.061684 1.672400 0
M  V30 47 H -3.562991 1.327595 0.029969 0
M  V30 48 H -5.280544 -0.487988 0.325858 0
M  V30 49 H -1.980167 -3.666711 -2.273333 0
M  V30 50 H -1.383699 -5.989141 -2.372883 0
M  V30 51 H -1.195177 -7.479355 -0.460785 0
M  V30 52 H -1.682450 -6.458245 1.795939 0
M  V30 53 H -2.048600 2.617093 -1.935425 0
M  V30 54 H -1.900516 2.813731 -4.305587 0
M  V30 55 H -0.584246 1.249431 -5.633009 0
M  V30 56 H 0.610890 -0.571659 -4.484418 0
M  V30 END ATOM
M  V30 BEGIN BOND
M  V30 1 2 1 2
M  V30 2 1 2 3
M  V30 3 2 3 4
M  V30 4 1 4 5
M  V30 5 2 5 6
M  V30 6 1 6 7
M  V30 7 2 7 8
M  V30 8 1 8 9
M  V30 9 2 9 10
M  V30 10 1 9 11
M  V30 11 1 11 12
M  V30 12 1 12 13
M  V30 13 1 13 14
M  V30 14 1 14 15
M  V30 15 1 15 16
M  V30 16 1 16 17
M  V30 17 2 17 18
M  V30 18 1 18 19
M  V30 19 2 19 20
M  V30 20 1 19 21
M  V30 21 1 21 22
M  V30 22 2 22 23
M  V30 23 1 23 24
M  V30 24 2 24 25
M  V30 25 1 25 26
M  V30 26 2 26 27
M  V30 27 1 27 28
M  V30 28 1 21 29
M  V30 29 1 15 30
M  V30 30 2 30 31
M  V30 31 1 31 32
M  V30 32 2 32 33
M  V30 33 1 33 34
M  V30 34 2 34 35
M  V30 35 1 35 36
M  V30 36 1 11 2
M  V30 37 2 29 16
M  V30 38 1 35 30
M  V30 39 1 8 3
M  V30 40 1 27 22
M  V30 41 1 4 37
M  V30 42 1 5 38
M  V30 43 1 6 39
M  V30 44 1 7 40
M  V30 45 1 12 41
M  V30 46 1 12 42
M  V30 47 1 13 43
M  V30 48 1 13 44
M  V30 49 1 14 45
M  V30 50 1 14 46
M  V30 51 1 17 47
M  V30 52 1 18 48
M  V30 53 1 23 49
M  V30 54 1 24 50
M  V30 55 1 25 51
M  V30 56 1 26 52
M  V30 57 1 31 53
M  V30 58 1 32 54
M  V30 59 1 33 55
M  V30 60 1 34 56
M  V30 END BOND
M  V30 END CTAB
M  END
>  <Dataset>  (711) 
ChEMBL_Kinases

>  <Ligand_Instance>  (711) 
nan

>  <PDB_ID>  (711) 
nan

>  <Standardized_SMILES>  (711) 
O=C1c2ccccc2C(=O)N1CCCN(c1ccc(=O)n(-c2ccccc2Cl)n1)c1ccccc1Cl

>  <Name>  (711) 
nan

>  <Pocket>  (711) 
nan

>  <ATP_Site>  (711) 
nan

>  <Peripheral>  (711) 
nan

>  <Num_H_Atoms_ProtBoundConf>  (711) 
nan

>  <Num_Resolved_Atoms>  (711) 
nan

>  <Num_Not_Resolved_Atoms>  (711) 
nan

$$$$
CHEMBL221252
     RDKit          3D

  0  0  0  0  0  0  0  0  0  0999 V3000
M  V30 BEGIN CTAB
M  V30 COUNTS 51 53 0 0 0
M  V30 BEGIN ATOM
M  V30 1 C -0.529648 -6.995405 -1.108798 0
M  V30 2 O 0.593652 -6.864049 -0.258241 0
M  V30 3 C 1.308370 -5.684282 -0.122539 0
M  V30 4 C 2.392786 -5.696118 0.750573 0
M  V30 5 C 3.124663 -4.540520 0.909048 0
M  V30 6 C 2.809602 -3.376511 0.225718 0
M  V30 7 C 1.720201 -3.366559 -0.650575 0
M  V30 8 C 1.422894 -2.118255 -1.347023 0
M  V30 9 N 1.444413 -1.021550 -0.589844 0
M  V30 10 C 1.197255 0.225357 -1.046576 0
M  V30 11 C 1.239447 1.399503 -0.143061 0
M  V30 12 O 1.008808 2.565547 -0.551234 0
M  V30 13 N 1.550715 1.165240 1.207357 0
M  V30 14 C 1.649305 2.148056 2.269633 0
M  V30 15 C 0.323931 2.614061 2.752652 0
M  V30 16 C -0.149148 1.797187 3.785160 0
M  V30 17 C -1.366604 2.047115 4.391522 0
M  V30 18 C -2.116376 3.143186 3.943305 0
M  V30 19 S -3.659032 3.458586 4.706662 0
M  V30 20 C -4.960687 2.625712 3.798940 0
M  V30 21 O -3.864151 4.939754 4.740833 0
M  V30 22 O -3.625256 2.870094 6.089545 0
M  V30 23 C -1.654458 3.968618 2.910911 0
M  V30 24 C -0.435609 3.682624 2.335360 0
M  V30 25 C 0.897918 0.426852 -2.378415 0
M  V30 26 C 0.872227 -0.705716 -3.177342 0
M  V30 27 N 0.572337 -0.621308 -4.580145 0
M  V30 28 C 1.128422 -1.967817 -2.686268 0
M  V30 29 C 1.114746 -3.166997 -3.472903 0
M  V30 30 N 1.084034 -4.129306 -4.109386 0
M  V30 31 C 0.976084 -4.538078 -0.813041 0
M  V30 32 H -0.710303 -8.046158 -1.393131 0
M  V30 33 H -1.427264 -6.656311 -0.542896 0
M  V30 34 H -0.465063 -6.387345 -2.028550 0
M  V30 35 H 2.640378 -6.604284 1.285145 0
M  V30 36 H 3.970832 -4.603243 1.609569 0
M  V30 37 H 3.443726 -2.499495 0.408288 0
M  V30 38 H 1.741985 0.168488 1.525242 0
M  V30 39 H 2.219023 3.002996 1.794721 0
M  V30 40 H 2.300969 1.817520 3.089856 0
M  V30 41 H 0.361234 0.922915 4.201329 0
M  V30 42 H -1.765591 1.427754 5.201371 0
M  V30 43 H -5.620191 2.051882 4.484633 0
M  V30 44 H -4.467130 1.879792 3.147328 0
M  V30 45 H -5.518821 3.317449 3.152024 0
M  V30 46 H -2.216279 4.814850 2.553466 0
M  V30 47 H 0.023387 4.244668 1.535102 0
M  V30 48 H 0.688932 1.402081 -2.808498 0
M  V30 49 H 1.072060 -0.631162 -5.519097 0
M  V30 50 H -0.231138 -0.517290 -5.259258 0
M  V30 51 H 0.136115 -4.516832 -1.493813 0
M  V30 END ATOM
M  V30 BEGIN BOND
M  V30 1 1 1 2
M  V30 2 1 2 3
M  V30 3 2 3 4
M  V30 4 1 4 5
M  V30 5 2 5 6
M  V30 6 1 6 7
M  V30 7 1 7 8
M  V30 8 2 8 9
M  V30 9 1 9 10
M  V30 10 1 10 11
M  V30 11 2 11 12
M  V30 12 1 11 13
M  V30 13 1 13 14
M  V30 14 1 14 15
M  V30 15 2 15 16
M  V30 16 1 16 17
M  V30 17 2 17 18
M  V30 18 1 18 19
M  V30 19 1 19 20
M  V30 20 2 19 21
M  V30 21 2 19 22
M  V30 22 1 18 23
M  V30 23 2 23 24
M  V30 24 2 10 25
M  V30 25 1 25 26
M  V30 26 1 26 27
M  V30 27 2 26 28
M  V30 28 1 28 29
M  V30 29 3 29 30
M  V30 30 2 7 31
M  V30 31 1 31 3
M  V30 32 1 28 8
M  V30 33 1 24 15
M  V30 34 1 1 32
M  V30 35 1 1 33
M  V30 36 1 1 34
M  V30 37 1 4 35
M  V30 38 1 5 36
M  V30 39 1 6 37
M  V30 40 1 13 38
M  V30 41 1 14 39
M  V30 42 1 14 40
M  V30 43 1 16 41
M  V30 44 1 17 42
M  V30 45 1 20 43
M  V30 46 1 20 44
M  V30 47 1 20 45
M  V30 48 1 23 46
M  V30 49 1 24 47
M  V30 50 1 25 48
M  V30 51 1 27 49
M  V30 52 1 27 50
M  V30 53 1 31 51
M  V30 END BOND
M  V30 END CTAB
M  END
>  <Dataset>  (712) 
ChEMBL_Kinases

>  <Ligand_Instance>  (712) 
nan

>  <PDB_ID>  (712) 
nan

>  <Standardized_SMILES>  (712) 
COc1cccc(-c2nc(C(=O)NCc3ccc(S(C)(=O)=O)cc3)cc(N)c2C#N)c1

>  <Name>  (712) 
nan

>  <Pocket>  (712) 
nan

>  <ATP_Site>  (712) 
nan

>  <Peripheral>  (712) 
nan

>  <Num_H_Atoms_ProtBoundConf>  (712) 
nan

>  <Num_Resolved_Atoms>  (712) 
nan

>  <Num_Not_Resolved_Atoms>  (712) 
nan

$$$$
CHEMBL3702188
     RDKit          3D

  0  0  0  0  0  0  0  0  0  0999 V3000
M  V30 BEGIN CTAB
M  V30 COUNTS 63 68 0 0 0
M  V30 BEGIN ATOM
M  V30 1 C 1.797107 6.206303 3.108679 0
M  V30 2 N 2.748991 5.688257 2.144122 0
M  V30 3 C 4.061783 6.116661 2.525222 0
M  V30 4 C 2.369001 6.152112 0.843364 0 CFG=1
M  V30 5 C 3.318226 5.651491 -0.222300 0
M  V30 6 C 2.532909 4.603746 -0.982987 0
M  V30 7 N 1.342860 4.303859 -0.200203 0
M  V30 8 C 0.668448 3.058826 -0.099640 0
M  V30 9 C 1.159724 1.961630 -0.772061 0
M  V30 10 C 0.463143 0.780912 -0.630138 0
M  V30 11 C -0.675884 0.607142 0.122864 0
M  V30 12 N -1.405097 -0.594203 0.293224 0
M  V30 13 C -1.109873 -1.859775 -0.269960 0
M  V30 14 N -0.095175 -2.163558 -1.091283 0
M  V30 15 C 0.159877 -3.378405 -1.601209 0
M  V30 16 C -0.698398 -4.401916 -1.247709 0
M  V30 17 C -0.686158 -5.729781 -1.609581 0
M  V30 18 C 0.147510 -6.502765 -2.423870 0
M  V30 19 C -0.135168 -7.846510 -2.575384 0
M  V30 20 N -1.214652 -8.371316 -1.927187 0
M  V30 21 C -2.003782 -7.603943 -1.146929 0
M  V30 22 C -1.777882 -6.266661 -0.955725 0
M  V30 23 N -2.417433 -5.325921 -0.238920 0
M  V30 24 C -3.547360 -5.385779 0.571353 0
M  V30 25 C -4.310320 -6.543790 0.913856 0
M  V30 26 C -3.586225 -7.288960 1.997286 0
M  V30 27 C -2.689793 -6.203738 2.581389 0
M  V30 28 C -3.205117 -4.893595 1.995633 0
M  V30 29 C -1.760254 -4.150708 -0.406201 0
M  V30 30 N -1.904240 -2.895508 0.033227 0
M  V30 31 N -1.083288 1.729371 0.742873 0
M  V30 32 C -0.469959 2.917876 0.662034 0
M  V30 33 C 1.024279 5.576233 0.449529 0
M  V30 34 H 1.022697 5.429105 3.336765 0
M  V30 35 H 1.309923 7.139836 2.769394 0
M  V30 36 H 2.283279 6.439180 4.090530 0
M  V30 37 H 4.790112 5.313135 2.209260 0
M  V30 38 H 4.193606 6.217019 3.629623 0
M  V30 39 H 4.390802 7.075450 2.086813 0
M  V30 40 H 2.310344 7.254576 0.840487 0
M  V30 41 H 3.511374 6.477760 -0.926105 0
M  V30 42 H 4.279336 5.272659 0.178854 0
M  V30 43 H 3.196047 3.724349 -1.102096 0
M  V30 44 H 2.210015 4.961540 -1.996698 0
M  V30 45 H 2.054379 2.012280 -1.389389 0
M  V30 46 H 0.865281 -0.056162 -1.162498 0
M  V30 47 H -2.257026 -0.527067 0.906552 0
M  V30 48 H 0.971579 -3.587340 -2.249372 0
M  V30 49 H 0.997496 -6.058290 -2.925158 0
M  V30 50 H 0.480687 -8.498776 -3.198004 0
M  V30 51 H -2.821847 -8.068594 -0.674951 0
M  V30 52 H -4.258831 -4.574699 0.216835 0
M  V30 53 H -4.834886 -7.147348 0.165892 0
M  V30 54 H -5.214157 -6.135179 1.487436 0
M  V30 55 H -3.038255 -8.176214 1.701577 0
M  V30 56 H -4.242573 -7.617614 2.846214 0
M  V30 57 H -2.678156 -6.190769 3.679202 0
M  V30 58 H -1.649400 -6.311757 2.164055 0
M  V30 59 H -2.444387 -4.118051 1.983565 0
M  V30 60 H -4.155428 -4.597409 2.515124 0
M  V30 61 H -0.858465 3.776260 1.190508 0
M  V30 62 H 0.524311 6.239909 -0.278401 0
M  V30 63 H 0.388880 5.452057 1.340915 0
M  V30 END ATOM
M  V30 BEGIN BOND
M  V30 1 1 1 2
M  V30 2 1 2 3
M  V30 3 1 2 4
M  V30 4 1 4 5
M  V30 5 1 5 6
M  V30 6 1 6 7
M  V30 7 1 7 8
M  V30 8 2 8 9
M  V30 9 1 9 10
M  V30 10 2 10 11
M  V30 11 1 11 12
M  V30 12 1 12 13
M  V30 13 2 13 14
M  V30 14 1 14 15
M  V30 15 2 15 16
M  V30 16 1 16 17
M  V30 17 2 17 18
M  V30 18 1 18 19
M  V30 19 2 19 20
M  V30 20 1 20 21
M  V30 21 2 21 22
M  V30 22 1 22 23
M  V30 23 1 23 24
M  V30 24 1 24 25
M  V30 25 1 25 26
M  V30 26 1 26 27
M  V30 27 1 27 28
M  V30 28 1 23 29
M  V30 29 2 29 30
M  V30 30 1 11 31
M  V30 31 2 31 32
M  V30 32 1 7 33
M  V30 33 1 33 4
M  V30 34 1 32 8
M  V30 35 1 30 13
M  V30 36 1 29 16
M  V30 37 1 22 17
M  V30 38 1 28 24
M  V30 39 1 1 34
M  V30 40 1 1 35
M  V30 41 1 1 36
M  V30 42 1 3 37
M  V30 43 1 3 38
M  V30 44 1 3 39
M  V30 45 1 4 40 CFG=1
M  V30 46 1 5 41
M  V30 47 1 5 42
M  V30 48 1 6 43
M  V30 49 1 6 44
M  V30 50 1 9 45
M  V30 51 1 10 46
M  V30 52 1 12 47
M  V30 53 1 15 48
M  V30 54 1 18 49
M  V30 55 1 19 50
M  V30 56 1 21 51
M  V30 57 1 24 52
M  V30 58 1 25 53
M  V30 59 1 25 54
M  V30 60 1 26 55
M  V30 61 1 26 56
M  V30 62 1 27 57
M  V30 63 1 27 58
M  V30 64 1 28 59
M  V30 65 1 28 60
M  V30 66 1 32 61
M  V30 67 1 33 62
M  V30 68 1 33 63
M  V30 END BOND
M  V30 END CTAB
M  END
>  <Dataset>  (713) 
ChEMBL_Kinases

>  <Ligand_Instance>  (713) 
nan

>  <PDB_ID>  (713) 
nan

>  <Standardized_SMILES>  (713) 
CN(C)[C@H]1CCN(c2ccc(Nc3ncc4c5ccncc5n(C5CCCC5)c4n3)nc2)C1

>  <Name>  (713) 
nan

>  <Pocket>  (713) 
nan

>  <ATP_Site>  (713) 
nan

>  <Peripheral>  (713) 
nan

>  <Num_H_Atoms_ProtBoundConf>  (713) 
nan

>  <Num_Resolved_Atoms>  (713) 
nan

>  <Num_Not_Resolved_Atoms>  (713) 
nan

$$$$
CHEMBL221312
     RDKit          3D

  0  0  0  0  0  0  0  0  0  0999 V3000
M  V30 BEGIN CTAB
M  V30 COUNTS 40 42 0 0 0
M  V30 BEGIN ATOM
M  V30 1 O -0.391226 -3.525977 3.403128 0
M  V30 2 C 0.172679 -2.866894 2.485180 0
M  V30 3 C 1.442206 -3.084986 1.972545 0
M  V30 4 C 1.879021 -2.254184 0.969726 0
M  V30 5 C 1.149327 -1.216456 0.431095 0
M  V30 6 N 1.729306 -0.433982 -0.602937 0
M  V30 7 C 1.609930 -0.816122 -2.002063 0
M  V30 8 C 0.115509 -0.836744 -2.306863 0
M  V30 9 O -0.409954 0.453460 -2.075541 0
M  V30 10 C 2.431518 0.738702 -0.205131 0
M  V30 11 C 1.583294 1.641178 0.433552 0
M  V30 12 C 2.015584 2.860119 0.913194 0
M  V30 13 C 3.357636 3.167530 0.734681 0
M  V30 14 F 3.867976 4.355338 1.180235 0
M  V30 15 C 4.206799 2.286657 0.106023 0
M  V30 16 C 3.759918 1.071748 -0.367958 0
M  V30 17 Cl 4.700477 -0.158143 -1.185116 0
M  V30 18 N -0.066372 -1.077586 0.985219 0
M  V30 19 N -0.524826 -1.849368 1.947048 0
M  V30 20 C -1.842685 -1.453558 2.322700 0
M  V30 21 C -2.155704 -0.440268 3.203578 0
M  V30 22 C -3.502325 -0.173707 3.467938 0
M  V30 23 C -4.430676 -0.957687 2.816505 0
M  V30 24 C -4.156724 -1.979122 1.929690 0
M  V30 25 C -2.800109 -2.216680 1.690110 0
M  V30 26 Cl -2.468080 -3.518670 0.560836 0
M  V30 27 H 1.998806 -3.901505 2.405759 0
M  V30 28 H 2.892650 -2.521762 0.644381 0
M  V30 29 H 1.955713 -1.868152 -2.097912 0
M  V30 30 H 2.142047 -0.103242 -2.650408 0
M  V30 31 H -0.427011 -1.501024 -1.619514 0
M  V30 32 H -0.106126 -1.152796 -3.336943 0
M  V30 33 H -1.181390 0.537549 -2.694062 0
M  V30 34 H 0.510170 1.489676 0.620687 0
M  V30 35 H 1.383141 3.579884 1.412194 0
M  V30 36 H 5.267708 2.466176 -0.064891 0
M  V30 37 H -1.331559 0.098840 3.646665 0
M  V30 38 H -3.749504 0.608943 4.148284 0
M  V30 39 H -5.477017 -0.746975 3.024416 0
M  V30 40 H -4.946647 -2.548655 1.459797 0
M  V30 END ATOM
M  V30 BEGIN BOND
M  V30 1 2 1 2
M  V30 2 1 2 3
M  V30 3 2 3 4
M  V30 4 1 4 5
M  V30 5 1 5 6
M  V30 6 1 6 7
M  V30 7 1 7 8
M  V30 8 1 8 9
M  V30 9 1 6 10
M  V30 10 2 10 11
M  V30 11 1 11 12
M  V30 12 2 12 13
M  V30 13 1 13 14
M  V30 14 1 13 15
M  V30 15 2 15 16
M  V30 16 1 16 17
M  V30 17 2 5 18
M  V30 18 1 18 19
M  V30 19 1 19 20
M  V30 20 2 20 21
M  V30 21 1 21 22
M  V30 22 2 22 23
M  V30 23 1 23 24
M  V30 24 2 24 25
M  V30 25 1 25 26
M  V30 26 1 19 2
M  V30 27 1 25 20
M  V30 28 1 16 10
M  V30 29 1 3 27
M  V30 30 1 4 28
M  V30 31 1 7 29
M  V30 32 1 7 30
M  V30 33 1 8 31
M  V30 34 1 8 32
M  V30 35 1 9 33
M  V30 36 1 11 34
M  V30 37 1 12 35
M  V30 38 1 15 36
M  V30 39 1 21 37
M  V30 40 1 22 38
M  V30 41 1 23 39
M  V30 42 1 24 40
M  V30 END BOND
M  V30 END CTAB
M  END
>  <Dataset>  (714) 
ChEMBL_Kinases

>  <Ligand_Instance>  (714) 
nan

>  <PDB_ID>  (714) 
nan

>  <Standardized_SMILES>  (714) 
O=c1ccc(N(CCO)c2ccc(F)cc2Cl)nn1-c1ccccc1Cl

>  <Name>  (714) 
nan

>  <Pocket>  (714) 
nan

>  <ATP_Site>  (714) 
nan

>  <Peripheral>  (714) 
nan

>  <Num_H_Atoms_ProtBoundConf>  (714) 
nan

>  <Num_Resolved_Atoms>  (714) 
nan

>  <Num_Not_Resolved_Atoms>  (714) 
nan

$$$$
CHEMBL221315
     RDKit          3D

  0  0  0  0  0  0  0  0  0  0999 V3000
M  V30 BEGIN CTAB
M  V30 COUNTS 49 50 0 0 0
M  V30 BEGIN ATOM
M  V30 1 C -3.384961 -3.775696 -2.979335 0
M  V30 2 S -1.799882 -4.184263 -3.684653 0
M  V30 3 O -1.565780 -5.644442 -3.477426 0
M  V30 4 O -1.795325 -3.848935 -5.163560 0
M  V30 5 C -0.547314 -3.228645 -2.934384 0
M  V30 6 C 0.122977 -3.655060 -1.791668 0
M  V30 7 C 1.102831 -2.872816 -1.225020 0
M  V30 8 C 1.476465 -1.629587 -1.751159 0
M  V30 9 C 2.552812 -0.968861 -0.969304 0
M  V30 10 N 1.920025 -0.172881 0.092459 0
M  V30 11 C 1.298691 1.091937 -0.122011 0
M  V30 12 O 1.246445 1.631573 -1.261131 0
M  V30 13 C 0.697270 1.786650 1.038103 0
M  V30 14 C 0.082447 3.010310 0.834113 0
M  V30 15 C -0.468936 3.638449 1.905700 0
M  V30 16 N -1.096221 4.892489 1.670225 0
M  V30 17 C -0.405989 3.061115 3.136150 0
M  V30 18 C -0.989229 3.733823 4.246403 0
M  V30 19 N -1.447901 4.285581 5.161740 0
M  V30 20 C 0.210790 1.827197 3.358427 0
M  V30 21 N 0.268460 1.240984 4.648517 0
M  V30 22 C 0.883600 -0.018339 4.932152 0
M  V30 23 C 0.252331 -1.179515 4.190529 0
M  V30 24 C 0.913723 -2.449179 4.511980 0
M  V30 25 N 0.302595 -3.525639 3.823712 0
M  V30 26 O 1.538340 -3.473548 4.845932 0
M  V30 27 N 0.743884 1.237399 2.275032 0
M  V30 28 C 0.817939 -1.201095 -2.882117 0
M  V30 29 C -0.155535 -2.002547 -3.425610 0
M  V30 30 H -3.297818 -3.542793 -1.901242 0
M  V30 31 H -3.902248 -2.981843 -3.542286 0
M  V30 32 H -4.022978 -4.700763 -3.031889 0
M  V30 33 H -0.175799 -4.614133 -1.397772 0
M  V30 34 H 1.545698 -3.316530 -0.342263 0
M  V30 35 H 3.245081 -1.698973 -0.539531 0
M  V30 36 H 3.094598 -0.226074 -1.615921 0
M  V30 37 H 1.943610 -0.592383 1.067646 0
M  V30 38 H 0.041857 3.455639 -0.153832 0
M  V30 39 H -0.288312 5.571912 1.532182 0
M  V30 40 H -2.079237 5.237021 1.612477 0
M  V30 41 H -0.181772 1.792969 5.438286 0
M  V30 42 H 1.956273 0.063600 4.705138 0
M  V30 43 H 0.800024 -0.251142 6.003234 0
M  V30 44 H 0.392280 -0.961869 3.095790 0
M  V30 45 H -0.813404 -1.258655 4.413359 0
M  V30 46 H -0.401262 -4.021687 3.231985 0
M  V30 47 H -0.526381 -3.773535 3.217537 0
M  V30 48 H 1.148171 -0.254106 -3.233646 0
M  V30 49 H -0.660035 -1.640566 -4.317446 0
M  V30 END ATOM
M  V30 BEGIN BOND
M  V30 1 1 1 2
M  V30 2 2 2 3
M  V30 3 2 2 4
M  V30 4 1 2 5
M  V30 5 2 5 6
M  V30 6 1 6 7
M  V30 7 2 7 8
M  V30 8 1 8 9
M  V30 9 1 9 10
M  V30 10 1 10 11
M  V30 11 2 11 12
M  V30 12 1 11 13
M  V30 13 2 13 14
M  V30 14 1 14 15
M  V30 15 1 15 16
M  V30 16 2 15 17
M  V30 17 1 17 18
M  V30 18 3 18 19
M  V30 19 1 17 20
M  V30 20 1 20 21
M  V30 21 1 21 22
M  V30 22 1 22 23
M  V30 23 1 23 24
M  V30 24 1 24 25
M  V30 25 2 24 26
M  V30 26 2 20 27
M  V30 27 1 8 28
M  V30 28 2 28 29
M  V30 29 1 29 5
M  V30 30 1 27 13
M  V30 31 1 1 30
M  V30 32 1 1 31
M  V30 33 1 1 32
M  V30 34 1 6 33
M  V30 35 1 7 34
M  V30 36 1 9 35
M  V30 37 1 9 36
M  V30 38 1 10 37
M  V30 39 1 14 38
M  V30 40 1 16 39
M  V30 41 1 16 40
M  V30 42 1 21 41
M  V30 43 1 22 42
M  V30 44 1 22 43
M  V30 45 1 23 44
M  V30 46 1 23 45
M  V30 47 1 25 46
M  V30 48 1 25 47
M  V30 49 1 28 48
M  V30 50 1 29 49
M  V30 END BOND
M  V30 END CTAB
M  END
>  <Dataset>  (715) 
ChEMBL_Kinases

>  <Ligand_Instance>  (715) 
nan

>  <PDB_ID>  (715) 
nan

>  <Standardized_SMILES>  (715) 
CS(=O)(=O)c1ccc(CNC(=O)c2cc(N)c(C#N)c(NCCC(N)=O)n2)cc1

>  <Name>  (715) 
nan

>  <Pocket>  (715) 
nan

>  <ATP_Site>  (715) 
nan

>  <Peripheral>  (715) 
nan

>  <Num_H_Atoms_ProtBoundConf>  (715) 
nan

>  <Num_Resolved_Atoms>  (715) 
nan

>  <Num_Not_Resolved_Atoms>  (715) 
nan

$$$$
CHEMBL4554795
     RDKit          3D

  0  0  0  0  0  0  0  0  0  0999 V3000
M  V30 BEGIN CTAB
M  V30 COUNTS 39 40 0 0 0
M  V30 BEGIN ATOM
M  V30 1 C -2.255186 -0.413406 2.715371 0
M  V30 2 O -2.511808 0.736652 1.924730 0
M  V30 3 C -1.604041 1.188073 0.976788 0
M  V30 4 N -0.426038 0.581422 0.734659 0
M  V30 5 C 0.464444 1.013877 -0.186640 0
M  V30 6 N 1.690627 0.310588 -0.379189 0
M  V30 7 C 1.895931 -0.854771 0.456542 0 CFG=1
M  V30 8 C 0.861797 -1.919222 0.288566 0
M  V30 9 C 1.582463 -3.188358 -0.131297 0
M  V30 10 C 2.497057 -3.622032 1.002765 0 CFG=2
M  V30 11 N 1.628089 -4.150925 2.033661 0
M  V30 12 C 3.359795 -2.476854 1.479824 0
M  V30 13 C 3.307661 -1.383179 0.405880 0
M  V30 14 C 0.176802 2.140433 -0.938189 0
M  V30 15 F 1.045644 2.590458 -1.860344 0
M  V30 16 C -1.025841 2.783951 -0.711029 0
M  V30 17 C -1.909843 2.313197 0.237906 0
M  V30 18 C -3.161357 3.037540 0.429010 0
M  V30 19 N -4.131985 2.626774 1.383080 0
M  V30 20 O -3.596345 4.065109 -0.147415 0
M  V30 21 H -1.434963 -0.109522 3.425606 0
M  V30 22 H -3.174405 -0.697352 3.245337 0
M  V30 23 H -1.882409 -1.257501 2.098848 0
M  V30 24 H 2.364951 0.654115 -1.090163 0
M  V30 25 H 1.772538 -0.465570 1.510070 0
M  V30 26 H 0.318383 -2.164345 1.222374 0
M  V30 27 H 0.096791 -1.684058 -0.477835 0
M  V30 28 H 2.109754 -3.071288 -1.082518 0
M  V30 29 H 0.830520 -3.993651 -0.254409 0
M  V30 30 H 3.161003 -4.430212 0.650937 0
M  V30 31 H 0.724050 -4.492142 1.634972 0
M  V30 32 H 1.502264 -3.513879 2.839474 0
M  V30 33 H 2.826063 -2.042981 2.363676 0
M  V30 34 H 4.388330 -2.765662 1.726787 0
M  V30 35 H 3.972081 -0.539683 0.722874 0
M  V30 36 H 3.597465 -1.755667 -0.589080 0
M  V30 37 H -1.291144 3.669769 -1.277227 0
M  V30 38 H -4.528491 2.858816 2.317204 0
M  V30 39 H -4.653685 1.780683 1.044505 0
M  V30 END ATOM
M  V30 BEGIN BOND
M  V30 1 1 1 2
M  V30 2 1 2 3
M  V30 3 2 3 4
M  V30 4 1 4 5
M  V30 5 1 5 6
M  V30 6 1 6 7
M  V30 7 1 7 8
M  V30 8 1 8 9
M  V30 9 1 9 10
M  V30 10 1 10 11
M  V30 11 1 10 12
M  V30 12 1 12 13
M  V30 13 2 5 14
M  V30 14 1 14 15
M  V30 15 1 14 16
M  V30 16 2 16 17
M  V30 17 1 17 18
M  V30 18 1 18 19
M  V30 19 2 18 20
M  V30 20 1 17 3
M  V30 21 1 13 7
M  V30 22 1 1 21
M  V30 23 1 1 22
M  V30 24 1 1 23
M  V30 25 1 6 24
M  V30 26 1 7 25 CFG=1
M  V30 27 1 8 26
M  V30 28 1 8 27
M  V30 29 1 9 28
M  V30 30 1 9 29
M  V30 31 1 10 30 CFG=3
M  V30 32 1 11 31
M  V30 33 1 11 32
M  V30 34 1 12 33
M  V30 35 1 12 34
M  V30 36 1 13 35
M  V30 37 1 13 36
M  V30 38 1 16 37
M  V30 39 1 19 38
M  V30 40 1 19 39
M  V30 END BOND
M  V30 END CTAB
M  END
>  <Dataset>  (716) 
ChEMBL_Kinases

>  <Ligand_Instance>  (716) 
nan

>  <PDB_ID>  (716) 
nan

>  <Standardized_SMILES>  (716) 
COc1nc(N[C@H]2CC[C@H](N)CC2)c(F)cc1C(N)=O

>  <Name>  (716) 
nan

>  <Pocket>  (716) 
nan

>  <ATP_Site>  (716) 
nan

>  <Peripheral>  (716) 
nan

>  <Num_H_Atoms_ProtBoundConf>  (716) 
nan

>  <Num_Resolved_Atoms>  (716) 
nan

>  <Num_Not_Resolved_Atoms>  (716) 
nan

$$$$
CHEMBL221427
     RDKit          3D

  0  0  0  0  0  0  0  0  0  0999 V3000
M  V30 BEGIN CTAB
M  V30 COUNTS 49 53 0 0 0
M  V30 BEGIN ATOM
M  V30 1 N 0.242491 -9.237492 -0.439390 0
M  V30 2 C 0.982568 -8.114043 -0.007294 0
M  V30 3 O 2.095749 -8.247098 0.513376 0
M  V30 4 C 0.375504 -6.803230 -0.203502 0
M  V30 5 C 1.058904 -5.674721 0.198854 0
M  V30 6 C 0.518403 -4.419217 0.030610 0
M  V30 7 C -0.712847 -4.228346 -0.539008 0
M  V30 8 C -1.428140 -3.088548 -0.798023 0
M  V30 9 C -1.160545 -1.685672 -0.573185 0
M  V30 10 C -0.142714 -0.944881 -0.039646 0
M  V30 11 C -0.402973 0.408734 -0.068112 0
M  V30 12 C 0.327360 1.500835 0.353918 0
M  V30 13 C -0.183548 2.772607 0.201084 0
M  V30 14 C 0.638480 3.910233 0.669627 0
M  V30 15 N 0.395833 4.265934 2.032709 0
M  V30 16 C 1.222285 5.367448 2.413245 0
M  V30 17 C 1.879559 5.127155 3.772133 0
M  V30 18 O 2.690331 4.020715 3.616255 0
M  V30 19 C 1.884242 2.897928 3.453715 0
M  V30 20 C 0.497312 3.209836 2.984548 0
M  V30 21 C -1.429183 2.889838 -0.380228 0
M  V30 22 C -2.142069 1.784179 -0.794955 0
M  V30 23 C -1.649043 0.497916 -0.651605 0
M  V30 24 N -2.047675 -0.737940 -0.926733 0
M  V30 25 N -2.546828 -3.568667 -1.361170 0
M  V30 26 N -2.532885 -4.885624 -1.446555 0
M  V30 27 C -1.384518 -5.366109 -0.936455 0
M  V30 28 C -0.866044 -6.635037 -0.779583 0
M  V30 29 H -0.186795 -9.448034 0.491802 0
M  V30 30 H -0.280872 -10.050599 -0.794912 0
M  V30 31 H 2.013683 -5.869547 0.637164 0
M  V30 32 H 1.086639 -3.590665 0.357503 0
M  V30 33 H 0.761473 -1.348017 0.360033 0
M  V30 34 H 1.283393 1.349717 0.795820 0
M  V30 35 H 1.703704 3.661985 0.490468 0
M  V30 36 H 0.354472 4.779139 0.041907 0
M  V30 37 H 0.570930 6.262187 2.552946 0
M  V30 38 H 2.039774 5.609777 1.712564 0
M  V30 39 H 1.136426 5.019036 4.573491 0
M  V30 40 H 2.492692 6.029253 3.991957 0
M  V30 41 H 1.798719 2.453705 4.484384 0
M  V30 42 H 2.376635 2.184683 2.771412 0
M  V30 43 H 0.022611 2.267866 2.677173 0
M  V30 44 H -0.089384 3.537102 3.891410 0
M  V30 45 H -1.811880 3.889742 -0.491395 0
M  V30 46 H -3.115737 1.894315 -1.248027 0
M  V30 47 H -2.993728 -0.828320 -1.380776 0
M  V30 48 H -3.313902 -5.429319 -1.854287 0
M  V30 49 H -1.435959 -7.498191 -1.109665 0
M  V30 END ATOM
M  V30 BEGIN BOND
M  V30 1 1 1 2
M  V30 2 2 2 3
M  V30 3 1 2 4
M  V30 4 2 4 5
M  V30 5 1 5 6
M  V30 6 2 6 7
M  V30 7 1 7 8
M  V30 8 1 8 9
M  V30 9 2 9 10
M  V30 10 1 10 11
M  V30 11 2 11 12
M  V30 12 1 12 13
M  V30 13 1 13 14
M  V30 14 1 14 15
M  V30 15 1 15 16
M  V30 16 1 16 17
M  V30 17 1 17 18
M  V30 18 1 18 19
M  V30 19 1 19 20
M  V30 20 2 13 21
M  V30 21 1 21 22
M  V30 22 2 22 23
M  V30 23 1 23 24
M  V30 24 2 8 25
M  V30 25 1 25 26
M  V30 26 1 26 27
M  V30 27 2 27 28
M  V30 28 1 28 4
M  V30 29 1 27 7
M  V30 30 1 24 9
M  V30 31 1 23 11
M  V30 32 1 20 15
M  V30 33 1 1 29
M  V30 34 1 1 30
M  V30 35 1 5 31
M  V30 36 1 6 32
M  V30 37 1 10 33
M  V30 38 1 12 34
M  V30 39 1 14 35
M  V30 40 1 14 36
M  V30 41 1 16 37
M  V30 42 1 16 38
M  V30 43 1 17 39
M  V30 44 1 17 40
M  V30 45 1 19 41
M  V30 46 1 19 42
M  V30 47 1 20 43
M  V30 48 1 20 44
M  V30 49 1 21 45
M  V30 50 1 22 46
M  V30 51 1 24 47
M  V30 52 1 26 48
M  V30 53 1 28 49
M  V30 END BOND
M  V30 END CTAB
M  END
>  <Dataset>  (717) 
ChEMBL_Kinases

>  <Ligand_Instance>  (717) 
nan

>  <PDB_ID>  (717) 
nan

>  <Standardized_SMILES>  (717) 
NC(=O)c1ccc2c(-c3cc4cc(CN5CCOCC5)ccc4[nH]3)n[nH]c2c1

>  <Name>  (717) 
nan

>  <Pocket>  (717) 
nan

>  <ATP_Site>  (717) 
nan

>  <Peripheral>  (717) 
nan

>  <Num_H_Atoms_ProtBoundConf>  (717) 
nan

>  <Num_Resolved_Atoms>  (717) 
nan

>  <Num_Not_Resolved_Atoms>  (717) 
nan

$$$$
CHEMBL221428
     RDKit          3D

  0  0  0  0  0  0  0  0  0  0999 V3000
M  V30 BEGIN CTAB
M  V30 COUNTS 52 57 0 0 0
M  V30 BEGIN ATOM
M  V30 1 C -1.707765 -3.186464 -0.970735 0
M  V30 2 C -1.136871 -1.929925 -1.163310 0
M  V30 3 C -0.297795 -1.432583 -0.199491 0
M  V30 4 N 0.402230 -0.295499 -0.063766 0
M  V30 5 C 1.107742 -0.196938 1.041187 0
M  V30 6 C 1.997093 0.761291 1.662586 0
M  V30 7 N 2.628398 0.623013 2.860318 0
M  V30 8 N 3.365007 1.660627 3.149070 0
M  V30 9 C 3.290182 2.581097 2.170842 0
M  V30 10 C 3.848360 3.827075 1.963647 0
M  V30 11 C 3.566032 4.543532 0.821808 0
M  V30 12 C 4.133614 5.861525 0.562680 0
M  V30 13 C 5.377650 6.346843 0.957456 0
M  V30 14 N 5.467479 7.625007 0.487771 0
M  V30 15 N 4.344681 7.919624 -0.162149 0
M  V30 16 C 3.494627 6.878160 -0.147406 0
M  V30 17 C 2.707212 3.989671 -0.121347 0
M  V30 18 C 2.181652 2.742673 0.142053 0
M  V30 19 C 2.428691 1.998786 1.249424 0
M  V30 20 C 0.815475 -1.414211 1.670943 0
M  V30 21 C -0.040447 -2.180659 0.928382 0
M  V30 22 C -0.621226 -3.420703 1.089049 0
M  V30 23 C -1.471232 -3.960941 0.146173 0
M  V30 24 C -2.042489 -5.282193 0.393506 0
M  V30 25 N -3.301997 -5.289874 1.092383 0
M  V30 26 C -3.814207 -6.617683 1.313110 0
M  V30 27 C -4.924589 -6.977101 0.353675 0
M  V30 28 O -4.721408 -6.320840 -0.837000 0
M  V30 29 C -4.972171 -4.961772 -0.675388 0
M  V30 30 C -4.271756 -4.391108 0.530673 0
M  V30 31 H -2.365817 -3.577194 -1.725890 0
M  V30 32 H -1.327074 -1.328673 -2.041542 0
M  V30 33 H 0.365835 0.419899 -0.786439 0
M  V30 34 H 3.920602 1.726173 4.029996 0
M  V30 35 H 4.507107 4.223133 2.713907 0
M  V30 36 H 6.118575 5.799116 1.527897 0
M  V30 37 H 4.034971 8.789165 -0.657303 0
M  V30 38 H 2.505860 6.770231 -0.572485 0
M  V30 39 H 2.475424 4.538785 -1.022504 0
M  V30 40 H 1.525902 2.363045 -0.618134 0
M  V30 41 H 1.176428 -1.792615 2.632735 0
M  V30 42 H -0.402657 -3.980906 1.977523 0
M  V30 43 H -2.115016 -5.819193 -0.590094 0
M  V30 44 H -1.334061 -5.878292 0.993923 0
M  V30 45 H -4.244586 -6.645197 2.334655 0
M  V30 46 H -3.018376 -7.372723 1.259495 0
M  V30 47 H -5.923286 -6.683587 0.741057 0
M  V30 48 H -4.871869 -8.068196 0.159075 0
M  V30 49 H -4.597662 -4.450262 -1.585276 0
M  V30 50 H -6.066206 -4.808267 -0.660200 0
M  V30 51 H -3.789364 -3.423434 0.322350 0
M  V30 52 H -5.042563 -4.197979 1.304797 0
M  V30 END ATOM
M  V30 BEGIN BOND
M  V30 1 2 1 2
M  V30 2 1 2 3
M  V30 3 1 3 4
M  V30 4 1 4 5
M  V30 5 1 5 6
M  V30 6 2 6 7
M  V30 7 1 7 8
M  V30 8 1 8 9
M  V30 9 2 9 10
M  V30 10 1 10 11
M  V30 11 1 11 12
M  V30 12 1 12 13
M  V30 13 2 13 14
M  V30 14 1 14 15
M  V30 15 1 15 16
M  V30 16 2 11 17
M  V30 17 1 17 18
M  V30 18 2 18 19
M  V30 19 2 5 20
M  V30 20 1 20 21
M  V30 21 1 21 22
M  V30 22 2 22 23
M  V30 23 1 23 24
M  V30 24 1 24 25
M  V30 25 1 25 26
M  V30 26 1 26 27
M  V30 27 1 27 28
M  V30 28 1 28 29
M  V30 29 1 29 30
M  V30 30 1 23 1
M  V30 31 1 30 25
M  V30 32 2 21 3
M  V30 33 1 19 6
M  V30 34 1 19 9
M  V30 35 2 16 12
M  V30 36 1 1 31
M  V30 37 1 2 32
M  V30 38 1 4 33
M  V30 39 1 8 34
M  V30 40 1 10 35
M  V30 41 1 13 36
M  V30 42 1 15 37
M  V30 43 1 16 38
M  V30 44 1 17 39
M  V30 45 1 18 40
M  V30 46 1 20 41
M  V30 47 1 22 42
M  V30 48 1 24 43
M  V30 49 1 24 44
M  V30 50 1 26 45
M  V30 51 1 26 46
M  V30 52 1 27 47
M  V30 53 1 27 48
M  V30 54 1 29 49
M  V30 55 1 29 50
M  V30 56 1 30 51
M  V30 57 1 30 52
M  V30 END BOND
M  V30 END CTAB
M  END
>  <Dataset>  (718) 
ChEMBL_Kinases

>  <Ligand_Instance>  (718) 
nan

>  <PDB_ID>  (718) 
nan

>  <Standardized_SMILES>  (718) 
c1cc2[nH]c(-c3n[nH]c4cc(-c5cn[nH]c5)ccc34)cc2cc1CN1CCOCC1

>  <Name>  (718) 
nan

>  <Pocket>  (718) 
nan

>  <ATP_Site>  (718) 
nan

>  <Peripheral>  (718) 
nan

>  <Num_H_Atoms_ProtBoundConf>  (718) 
nan

>  <Num_Resolved_Atoms>  (718) 
nan

>  <Num_Not_Resolved_Atoms>  (718) 
nan

$$$$
CHEMBL221479
     RDKit          3D

  0  0  0  0  0  0  0  0  0  0999 V3000
M  V30 BEGIN CTAB
M  V30 COUNTS 52 57 0 0 0
M  V30 BEGIN ATOM
M  V30 1 C 2.160695 -9.227320 2.771809 0
M  V30 2 C 1.966770 -7.855513 2.645605 0
M  V30 3 C 1.680140 -7.547931 1.322066 0
M  V30 4 C 1.418889 -6.203874 0.818961 0
M  V30 5 C 1.423562 -5.064479 1.596559 0
M  V30 6 C 1.165552 -3.830639 1.037578 0
M  V30 7 C 0.898270 -3.668530 -0.278771 0
M  V30 8 C 0.617691 -2.566041 -1.044892 0
M  V30 9 C 0.504737 -1.161933 -0.719822 0
M  V30 10 C 0.620955 -0.395194 0.405059 0
M  V30 11 C 0.406990 0.942168 0.147604 0
M  V30 12 C 0.420989 2.063764 0.961786 0
M  V30 13 C 0.168185 3.317271 0.441776 0
M  V30 14 C 0.166782 4.540445 1.240824 0
M  V30 15 N -1.080155 4.917391 1.821553 0
M  V30 16 C -1.660394 3.988324 2.713684 0
M  V30 17 C -2.816869 3.196005 2.157515 0
M  V30 18 O -3.699170 4.052296 1.521020 0
M  V30 19 C -3.137244 4.744494 0.474178 0
M  V30 20 C -1.984550 5.594825 0.943091 0
M  V30 21 C -0.094138 3.384410 -0.911211 0
M  V30 22 C -0.105484 2.260654 -1.712652 0
M  V30 23 C 0.145594 1.001128 -1.205866 0
M  V30 24 N 0.212775 -0.255779 -1.677201 0
M  V30 25 N 0.450659 -3.081240 -2.274763 0
M  V30 26 N 0.610826 -4.392321 -2.287754 0
M  V30 27 C 0.896959 -4.821911 -1.047627 0
M  V30 28 C 1.150056 -6.074969 -0.527532 0
M  V30 29 N 1.707073 -8.743818 0.675025 0
M  V30 30 N 1.986284 -9.705631 1.526506 0
M  V30 31 H 2.398381 -9.796031 3.662059 0
M  V30 32 H 2.024933 -7.123260 3.439454 0
M  V30 33 H 1.638366 -5.221612 2.636702 0
M  V30 34 H 1.180658 -2.978574 1.680969 0
M  V30 35 H 0.846348 -0.757071 1.366924 0
M  V30 36 H 0.629945 1.941126 1.994072 0
M  V30 37 H 0.911744 4.462764 2.059606 0
M  V30 38 H 0.522181 5.373912 0.600359 0
M  V30 39 H -2.113240 4.585878 3.559446 0
M  V30 40 H -0.895981 3.367653 3.178226 0
M  V30 41 H -3.384983 2.756019 3.010064 0
M  V30 42 H -2.531291 2.392156 1.481103 0
M  V30 43 H -2.863571 4.046397 -0.351517 0
M  V30 44 H -3.943971 5.440778 0.101384 0
M  V30 45 H -1.420347 6.016417 0.092722 0
M  V30 46 H -2.412895 6.457329 1.496972 0
M  V30 47 H -0.295935 4.348659 -1.350275 0
M  V30 48 H -0.313084 2.335595 -2.768912 0
M  V30 49 H 0.035327 -0.368436 -2.696590 0
M  V30 50 H 0.512252 -4.923925 -3.163903 0
M  V30 51 H 1.120181 -6.894744 -1.228160 0
M  V30 52 H 1.516892 -8.763625 -0.351123 0
M  V30 END ATOM
M  V30 BEGIN BOND
M  V30 1 1 1 2
M  V30 2 2 2 3
M  V30 3 1 3 4
M  V30 4 2 4 5
M  V30 5 1 5 6
M  V30 6 2 6 7
M  V30 7 1 7 8
M  V30 8 1 8 9
M  V30 9 2 9 10
M  V30 10 1 10 11
M  V30 11 2 11 12
M  V30 12 1 12 13
M  V30 13 1 13 14
M  V30 14 1 14 15
M  V30 15 1 15 16
M  V30 16 1 16 17
M  V30 17 1 17 18
M  V30 18 1 18 19
M  V30 19 1 19 20
M  V30 20 2 13 21
M  V30 21 1 21 22
M  V30 22 2 22 23
M  V30 23 1 23 24
M  V30 24 2 8 25
M  V30 25 1 25 26
M  V30 26 1 26 27
M  V30 27 2 27 28
M  V30 28 1 3 29
M  V30 29 1 29 30
M  V30 30 2 30 1
M  V30 31 1 28 4
M  V30 32 1 27 7
M  V30 33 1 24 9
M  V30 34 1 23 11
M  V30 35 1 20 15
M  V30 36 1 1 31
M  V30 37 1 2 32
M  V30 38 1 5 33
M  V30 39 1 6 34
M  V30 40 1 10 35
M  V30 41 1 12 36
M  V30 42 1 14 37
M  V30 43 1 14 38
M  V30 44 1 16 39
M  V30 45 1 16 40
M  V30 46 1 17 41
M  V30 47 1 17 42
M  V30 48 1 19 43
M  V30 49 1 19 44
M  V30 50 1 20 45
M  V30 51 1 20 46
M  V30 52 1 21 47
M  V30 53 1 22 48
M  V30 54 1 24 49
M  V30 55 1 26 50
M  V30 56 1 28 51
M  V30 57 1 29 52
M  V30 END BOND
M  V30 END CTAB
M  END
>  <Dataset>  (719) 
ChEMBL_Kinases

>  <Ligand_Instance>  (719) 
nan

>  <PDB_ID>  (719) 
nan

>  <Standardized_SMILES>  (719) 
c1cc(-c2ccc3c(-c4cc5cc(CN6CCOCC6)ccc5[nH]4)n[nH]c3c2)[nH]n1

>  <Name>  (719) 
nan

>  <Pocket>  (719) 
nan

>  <ATP_Site>  (719) 
nan

>  <Peripheral>  (719) 
nan

>  <Num_H_Atoms_ProtBoundConf>  (719) 
nan

>  <Num_Resolved_Atoms>  (719) 
nan

>  <Num_Not_Resolved_Atoms>  (719) 
nan

$$$$
CHEMBL221546
     RDKit          3D

  0  0  0  0  0  0  0  0  0  0999 V3000
M  V30 BEGIN CTAB
M  V30 COUNTS 44 46 0 0 0
M  V30 BEGIN ATOM
M  V30 1 N -1.113411 -5.705201 1.997140 0
M  V30 2 C -0.306553 -4.529557 1.625711 0
M  V30 3 C -0.340561 -4.391483 0.107374 0
M  V30 4 C 0.479740 -3.206569 -0.314370 0
M  V30 5 N 0.076273 -1.940589 0.192212 0
M  V30 6 C 0.980752 -0.913450 -0.273850 0
M  V30 7 C 2.058885 -1.191233 -1.114102 0
M  V30 8 C 2.963293 -0.237577 -1.591345 0
M  V30 9 C 2.775772 1.066787 -1.204363 0
M  V30 10 O 3.561355 1.949731 -1.608437 0
M  V30 11 N 1.736604 1.325382 -0.396313 0
M  V30 12 C 1.538342 2.678410 0.007689 0
M  V30 13 C 0.654589 3.624414 -0.465241 0
M  V30 14 C 0.651439 4.880105 0.092696 0
M  V30 15 C 1.511191 5.221350 1.116505 0
M  V30 16 C 2.398960 4.290132 1.600119 0
M  V30 17 C 2.408388 3.020446 1.042304 0
M  V30 18 Cl 3.600007 1.937869 1.766132 0
M  V30 19 N 0.918610 0.380188 0.019494 0
M  V30 20 C -0.946134 -1.335653 1.011348 0
M  V30 21 C -0.384926 -0.833929 2.193827 0
M  V30 22 C -1.160178 -0.202902 3.173419 0
M  V30 23 C -2.497547 -0.113153 2.892144 0
M  V30 24 C -3.083309 -0.590872 1.747873 0
M  V30 25 C -2.287675 -1.197655 0.822345 0
M  V30 26 Cl -2.880048 -1.833894 -0.689302 0
M  V30 27 H -0.641239 -6.571201 1.647262 0
M  V30 28 H -1.119079 -5.756592 3.035587 0
M  V30 29 H -0.781445 -3.666957 2.125908 0
M  V30 30 H 0.715563 -4.705586 1.999892 0
M  V30 31 H -1.380926 -4.317641 -0.201823 0
M  V30 32 H 0.139371 -5.309257 -0.312568 0
M  V30 33 H 0.423041 -3.123529 -1.439886 0
M  V30 34 H 1.533148 -3.465686 -0.057360 0
M  V30 35 H 2.260489 -2.189976 -1.454816 0
M  V30 36 H 3.770529 -0.500330 -2.230866 0
M  V30 37 H 0.034774 3.244849 -1.262948 0
M  V30 38 H -0.066003 5.580863 -0.321295 0
M  V30 39 H 1.484913 6.222762 1.537373 0
M  V30 40 H 3.055696 4.603927 2.405867 0
M  V30 41 H 0.680669 -0.880378 2.467498 0
M  V30 42 H -0.753441 0.183486 4.075277 0
M  V30 43 H -3.143524 0.366791 3.618605 0
M  V30 44 H -4.128509 -0.537456 1.494872 0
M  V30 END ATOM
M  V30 BEGIN BOND
M  V30 1 1 1 2
M  V30 2 1 2 3
M  V30 3 1 3 4
M  V30 4 1 4 5
M  V30 5 1 5 6
M  V30 6 1 6 7
M  V30 7 2 7 8
M  V30 8 1 8 9
M  V30 9 2 9 10
M  V30 10 1 9 11
M  V30 11 1 11 12
M  V30 12 2 12 13
M  V30 13 1 13 14
M  V30 14 2 14 15
M  V30 15 1 15 16
M  V30 16 2 16 17
M  V30 17 1 17 18
M  V30 18 1 11 19
M  V30 19 1 5 20
M  V30 20 2 20 21
M  V30 21 1 21 22
M  V30 22 2 22 23
M  V30 23 1 23 24
M  V30 24 2 24 25
M  V30 25 1 25 26
M  V30 26 2 19 6
M  V30 27 1 25 20
M  V30 28 1 17 12
M  V30 29 1 1 27
M  V30 30 1 1 28
M  V30 31 1 2 29
M  V30 32 1 2 30
M  V30 33 1 3 31
M  V30 34 1 3 32
M  V30 35 1 4 33
M  V30 36 1 4 34
M  V30 37 1 7 35
M  V30 38 1 8 36
M  V30 39 1 13 37
M  V30 40 1 14 38
M  V30 41 1 15 39
M  V30 42 1 16 40
M  V30 43 1 21 41
M  V30 44 1 22 42
M  V30 45 1 23 43
M  V30 46 1 24 44
M  V30 END BOND
M  V30 END CTAB
M  END
>  <Dataset>  (720) 
ChEMBL_Kinases

>  <Ligand_Instance>  (720) 
nan

>  <PDB_ID>  (720) 
nan

>  <Standardized_SMILES>  (720) 
NCCCN(c1ccc(=O)n(-c2ccccc2Cl)n1)c1ccccc1Cl

>  <Name>  (720) 
nan

>  <Pocket>  (720) 
nan

>  <ATP_Site>  (720) 
nan

>  <Peripheral>  (720) 
nan

>  <Num_H_Atoms_ProtBoundConf>  (720) 
nan

>  <Num_Resolved_Atoms>  (720) 
nan

>  <Num_Not_Resolved_Atoms>  (720) 
nan

$$$$
CHEMBL221246
     RDKit          3D

  0  0  0  0  0  0  0  0  0  0999 V3000
M  V30 BEGIN CTAB
M  V30 COUNTS 54 56 0 0 0
M  V30 BEGIN ATOM
M  V30 1 C 0.643946 -2.102131 6.200603 0
M  V30 2 N 1.350333 -1.395087 5.138686 0
M  V30 3 C 1.724323 -2.279830 4.067373 0
M  V30 4 C 2.413760 -1.541472 3.010596 0
M  V30 5 O 2.763805 -2.279781 2.020830 0
M  V30 6 N 2.798981 -0.207532 2.790954 0
M  V30 7 C 3.422953 0.574857 1.813680 0
M  V30 8 C 2.850100 0.910173 0.520436 0
M  V30 9 C 2.350332 -0.024371 -0.479308 0
M  V30 10 N 1.197718 -0.802986 -0.251969 0
M  V30 11 C 0.068422 0.087298 -0.069206 0
M  V30 12 C -0.274316 0.839269 1.031598 0
M  V30 13 C -1.402868 1.622410 1.022568 0
M  V30 14 C -2.246141 1.705653 -0.060041 0
M  V30 15 O -3.278913 2.428962 -0.059967 0
M  V30 16 N -1.873220 0.954451 -1.110941 0
M  V30 17 C -2.687250 0.933483 -2.285395 0
M  V30 18 C -3.767397 0.072817 -2.025064 0
M  V30 19 C -4.757855 -0.180424 -2.964780 0
M  V30 20 C -4.675948 0.440000 -4.205392 0
M  V30 21 C -3.608253 1.279813 -4.438453 0
M  V30 22 C -2.627628 1.537044 -3.521902 0
M  V30 23 Cl -1.233492 2.554219 -3.649153 0
M  V30 24 N -0.779654 0.186528 -1.123417 0
M  V30 25 C 0.565034 -2.064486 -0.129768 0
M  V30 26 C -0.193701 -2.554480 0.901945 0
M  V30 27 C -0.684652 -3.832169 0.737139 0
M  V30 28 C -0.443768 -4.581642 -0.376063 0
M  V30 29 C 0.316899 -4.105881 -1.426397 0
M  V30 30 C 0.826632 -2.809926 -1.282078 0
M  V30 31 Cl 1.779761 -2.292942 -2.664214 0
M  V30 32 H -0.421554 -1.734478 6.192377 0
M  V30 33 H 0.622075 -3.186155 6.047775 0
M  V30 34 H 1.082656 -1.804526 7.185102 0
M  V30 35 H 0.770400 -0.601163 4.781330 0
M  V30 36 H 0.802954 -2.736097 3.647650 0
M  V30 37 H 2.359926 -3.089345 4.505405 0
M  V30 38 H 2.487906 0.316284 3.677058 0
M  V30 39 H 4.477524 0.123806 1.575312 0
M  V30 40 H 3.786059 1.573015 2.261102 0
M  V30 41 H 2.094220 1.774743 0.591515 0
M  V30 42 H 3.700175 1.493794 -0.031797 0
M  V30 43 H 2.107726 0.610172 -1.407142 0
M  V30 44 H 3.163684 -0.700755 -0.891894 0
M  V30 45 H 0.388834 0.756721 1.873829 0
M  V30 46 H -1.597886 2.188396 1.932249 0
M  V30 47 H -3.990733 -0.495819 -1.107051 0
M  V30 48 H -5.607734 -0.824675 -2.830194 0
M  V30 49 H -5.417571 0.281923 -4.977549 0
M  V30 50 H -3.458542 1.814433 -5.386907 0
M  V30 51 H -0.310633 -1.863828 1.722937 0
M  V30 52 H -1.286792 -4.187498 1.589330 0
M  V30 53 H -0.884033 -5.570726 -0.384377 0
M  V30 54 H 0.484357 -4.733515 -2.290258 0
M  V30 END ATOM
M  V30 BEGIN BOND
M  V30 1 1 1 2
M  V30 2 1 2 3
M  V30 3 1 3 4
M  V30 4 2 4 5
M  V30 5 1 4 6
M  V30 6 1 6 7
M  V30 7 1 7 8
M  V30 8 1 8 9
M  V30 9 1 9 10
M  V30 10 1 10 11
M  V30 11 1 11 12
M  V30 12 2 12 13
M  V30 13 1 13 14
M  V30 14 2 14 15
M  V30 15 1 14 16
M  V30 16 1 16 17
M  V30 17 2 17 18
M  V30 18 1 18 19
M  V30 19 2 19 20
M  V30 20 1 20 21
M  V30 21 2 21 22
M  V30 22 1 22 23
M  V30 23 1 16 24
M  V30 24 1 10 25
M  V30 25 2 25 26
M  V30 26 1 26 27
M  V30 27 2 27 28
M  V30 28 1 28 29
M  V30 29 2 29 30
M  V30 30 1 30 31
M  V30 31 2 24 11
M  V30 32 1 30 25
M  V30 33 1 22 17
M  V30 34 1 1 32
M  V30 35 1 1 33
M  V30 36 1 1 34
M  V30 37 1 2 35
M  V30 38 1 3 36
M  V30 39 1 3 37
M  V30 40 1 6 38
M  V30 41 1 7 39
M  V30 42 1 7 40
M  V30 43 1 8 41
M  V30 44 1 8 42
M  V30 45 1 9 43
M  V30 46 1 9 44
M  V30 47 1 12 45
M  V30 48 1 13 46
M  V30 49 1 18 47
M  V30 50 1 19 48
M  V30 51 1 20 49
M  V30 52 1 21 50
M  V30 53 1 26 51
M  V30 54 1 27 52
M  V30 55 1 28 53
M  V30 56 1 29 54
M  V30 END BOND
M  V30 END CTAB
M  END
>  <Dataset>  (721) 
ChEMBL_Kinases

>  <Ligand_Instance>  (721) 
nan

>  <PDB_ID>  (721) 
nan

>  <Standardized_SMILES>  (721) 
CNCC(=O)NCCCN(c1ccc(=O)n(-c2ccccc2Cl)n1)c1ccccc1Cl

>  <Name>  (721) 
nan

>  <Pocket>  (721) 
nan

>  <ATP_Site>  (721) 
nan

>  <Peripheral>  (721) 
nan

>  <Num_H_Atoms_ProtBoundConf>  (721) 
nan

>  <Num_Resolved_Atoms>  (721) 
nan

>  <Num_Not_Resolved_Atoms>  (721) 
nan

$$$$
CHEMBL2313891
     RDKit          3D

  0  0  0  0  0  0  0  0  0  0999 V3000
M  V30 BEGIN CTAB
M  V30 COUNTS 35 38 0 0 0
M  V30 BEGIN ATOM
M  V30 1 C 1.835538 -1.518644 4.878355 0
M  V30 2 O 1.813587 -0.088581 4.707862 0
M  V30 3 C 1.143617 0.421211 3.609435 0
M  V30 4 C 1.071473 1.788781 3.370303 0
M  V30 5 C 0.406567 2.334342 2.278653 0
M  V30 6 C -0.213532 1.465295 1.388690 0
M  V30 7 C -0.141803 0.110082 1.625504 0
M  V30 8 C 0.516221 -0.446585 2.706981 0
M  V30 9 O -0.781781 -0.520992 0.676659 0
M  V30 10 C -1.300681 0.283397 -0.210133 0
M  V30 11 C -2.057497 0.105688 -1.380287 0
M  V30 12 N -2.301889 -1.259332 -1.665644 0
M  V30 13 C -1.748079 -2.142008 -2.609672 0
M  V30 14 C -1.091012 -3.183264 -1.945009 0
M  V30 15 C -0.452385 -4.229805 -2.600792 0
M  V30 16 C -0.456600 -4.255464 -4.003222 0
M  V30 17 C -1.106444 -3.225328 -4.647460 0
M  V30 18 C -1.735248 -2.195681 -3.992428 0
M  V30 19 Cl -2.601571 -0.839081 -4.699613 0
M  V30 20 N -2.434133 1.229480 -2.063969 0
M  V30 21 C -2.067978 2.450495 -1.594298 0
M  V30 22 N -1.339042 2.641488 -0.471685 0
M  V30 23 C -0.951097 1.555437 0.224796 0
M  V30 24 H 2.250500 -1.961680 3.950081 0
M  V30 25 H 0.785185 -1.919558 4.936054 0
M  V30 26 H 2.450435 -1.838199 5.717963 0
M  V30 27 H 1.541388 2.495876 4.039284 0
M  V30 28 H 0.340944 3.385332 2.074161 0
M  V30 29 H 0.542880 -1.539052 2.848678 0
M  V30 30 H -3.051082 -1.580158 -0.986679 0
M  V30 31 H -0.978101 -3.339272 -0.854510 0
M  V30 32 H 0.066920 -5.056156 -2.145943 0
M  V30 33 H 0.006769 -5.012380 -4.617044 0
M  V30 34 H -1.163620 -3.153071 -5.746867 0
M  V30 35 H -2.410840 3.274518 -2.208988 0
M  V30 END ATOM
M  V30 BEGIN BOND
M  V30 1 1 1 2
M  V30 2 1 2 3
M  V30 3 2 3 4
M  V30 4 1 4 5
M  V30 5 2 5 6
M  V30 6 1 6 7
M  V30 7 2 7 8
M  V30 8 1 7 9
M  V30 9 1 9 10
M  V30 10 2 10 11
M  V30 11 1 11 12
M  V30 12 1 12 13
M  V30 13 2 13 14
M  V30 14 1 14 15
M  V30 15 2 15 16
M  V30 16 1 16 17
M  V30 17 2 17 18
M  V30 18 1 18 19
M  V30 19 1 11 20
M  V30 20 2 20 21
M  V30 21 1 21 22
M  V30 22 2 22 23
M  V30 23 1 8 3
M  V30 24 1 23 10
M  V30 25 1 23 6
M  V30 26 1 18 13
M  V30 27 1 1 24
M  V30 28 1 1 25
M  V30 29 1 1 26
M  V30 30 1 4 27
M  V30 31 1 5 28
M  V30 32 1 8 29
M  V30 33 1 12 30
M  V30 34 1 14 31
M  V30 35 1 15 32
M  V30 36 1 16 33
M  V30 37 1 17 34
M  V30 38 1 21 35
M  V30 END BOND
M  V30 END CTAB
M  END
>  <Dataset>  (722) 
ChEMBL_Kinases

>  <Ligand_Instance>  (722) 
nan

>  <PDB_ID>  (722) 
nan

>  <Standardized_SMILES>  (722) 
COc1ccc2c(c1)oc1c(Nc3ccccc3Cl)ncnc12

>  <Name>  (722) 
nan

>  <Pocket>  (722) 
nan

>  <ATP_Site>  (722) 
nan

>  <Peripheral>  (722) 
nan

>  <Num_H_Atoms_ProtBoundConf>  (722) 
nan

>  <Num_Resolved_Atoms>  (722) 
nan

>  <Num_Not_Resolved_Atoms>  (722) 
nan

$$$$
CHEMBL2313908
     RDKit          3D

  0  0  0  0  0  0  0  0  0  0999 V3000
M  V30 BEGIN CTAB
M  V30 COUNTS 43 46 0 0 0
M  V30 BEGIN ATOM
M  V30 1 C -1.242435 -7.046417 1.656146 0
M  V30 2 O -0.607933 -5.790980 1.646180 0
M  V30 3 C -1.058340 -4.688151 0.951777 0
M  V30 4 C -2.157529 -4.529946 0.148839 0
M  V30 5 C -2.534466 -3.391477 -0.507369 0
M  V30 6 C -1.770178 -2.250393 -0.388528 0
M  V30 7 C -0.661454 -2.430637 0.429389 0
M  V30 8 C -0.263860 -3.577640 1.102246 0
M  V30 9 S 0.168907 -0.738661 0.394744 0
M  V30 10 C -1.027067 -0.025727 -0.669727 0
M  V30 11 C -1.051057 1.259066 -1.148802 0
M  V30 12 N -0.048039 2.187857 -0.786576 0
M  V30 13 C 1.033433 2.152361 0.124337 0
M  V30 14 C 2.315020 2.376707 -0.387945 0
M  V30 15 C 3.467170 2.374396 0.365334 0
M  V30 16 C 3.318797 2.132917 1.709368 0
M  V30 17 O 4.408290 2.108917 2.549261 0
M  V30 18 C 5.713164 2.325088 2.095647 0
M  V30 19 C 2.071132 1.909480 2.242850 0
M  V30 20 O 1.915732 1.663389 3.606973 0
M  V30 21 C 0.644417 1.448109 4.181985 0
M  V30 22 C 0.923351 1.911739 1.495170 0
M  V30 23 N -2.053097 1.619643 -1.966725 0
M  V30 24 C -2.955552 0.648131 -2.236382 0
M  V30 25 N -2.913417 -0.594628 -1.760290 0
M  V30 26 C -1.929808 -1.008838 -0.935911 0
M  V30 27 H -0.477779 -7.826836 1.912357 0
M  V30 28 H -2.013490 -7.021150 2.460818 0
M  V30 29 H -1.735303 -7.305681 0.718744 0
M  V30 30 H -2.772799 -5.442570 0.051011 0
M  V30 31 H -3.432133 -3.430868 -1.104301 0
M  V30 32 H 0.636063 -3.525998 1.696476 0
M  V30 33 H -0.062796 3.109322 -1.263256 0
M  V30 34 H 2.423834 2.566129 -1.447729 0
M  V30 35 H 4.418671 2.556122 -0.105343 0
M  V30 36 H 5.904423 1.861848 1.097530 0
M  V30 37 H 5.949656 3.411798 2.110018 0
M  V30 38 H 6.464698 1.828003 2.762903 0
M  V30 39 H 0.121731 0.565731 3.746807 0
M  V30 40 H -0.007898 2.337679 4.053099 0
M  V30 41 H 0.725221 1.260841 5.272168 0
M  V30 42 H -0.070265 1.747388 1.917821 0
M  V30 43 H -3.802048 0.884555 -2.902321 0
M  V30 END ATOM
M  V30 BEGIN BOND
M  V30 1 1 1 2
M  V30 2 1 2 3
M  V30 3 2 3 4
M  V30 4 1 4 5
M  V30 5 2 5 6
M  V30 6 1 6 7
M  V30 7 2 7 8
M  V30 8 1 7 9
M  V30 9 1 9 10
M  V30 10 2 10 11
M  V30 11 1 11 12
M  V30 12 1 12 13
M  V30 13 2 13 14
M  V30 14 1 14 15
M  V30 15 2 15 16
M  V30 16 1 16 17
M  V30 17 1 17 18
M  V30 18 1 16 19
M  V30 19 1 19 20
M  V30 20 1 20 21
M  V30 21 2 19 22
M  V30 22 1 11 23
M  V30 23 2 23 24
M  V30 24 1 24 25
M  V30 25 2 25 26
M  V30 26 1 8 3
M  V30 27 1 26 10
M  V30 28 1 26 6
M  V30 29 1 22 13
M  V30 30 1 1 27
M  V30 31 1 1 28
M  V30 32 1 1 29
M  V30 33 1 4 30
M  V30 34 1 5 31
M  V30 35 1 8 32
M  V30 36 1 12 33
M  V30 37 1 14 34
M  V30 38 1 15 35
M  V30 39 1 18 36
M  V30 40 1 18 37
M  V30 41 1 18 38
M  V30 42 1 21 39
M  V30 43 1 21 40
M  V30 44 1 21 41
M  V30 45 1 22 42
M  V30 46 1 24 43
M  V30 END BOND
M  V30 END CTAB
M  END
>  <Dataset>  (723) 
ChEMBL_Kinases

>  <Ligand_Instance>  (723) 
nan

>  <PDB_ID>  (723) 
nan

>  <Standardized_SMILES>  (723) 
COc1ccc2c(c1)sc1c(Nc3ccc(OC)c(OC)c3)ncnc12

>  <Name>  (723) 
nan

>  <Pocket>  (723) 
nan

>  <ATP_Site>  (723) 
nan

>  <Peripheral>  (723) 
nan

>  <Num_H_Atoms_ProtBoundConf>  (723) 
nan

>  <Num_Resolved_Atoms>  (723) 
nan

>  <Num_Not_Resolved_Atoms>  (723) 
nan

$$$$
CHEMBL2313909
     RDKit          3D

  0  0  0  0  0  0  0  0  0  0999 V3000
M  V30 BEGIN CTAB
M  V30 COUNTS 43 46 0 0 0
M  V30 BEGIN ATOM
M  V30 1 C 2.352785 -6.270269 1.273347 0
M  V30 2 O 1.817128 -5.185036 0.579803 0
M  V30 3 C 2.259928 -3.889656 0.623860 0
M  V30 4 C 1.784336 -2.770678 -0.022627 0
M  V30 5 C 2.405384 -1.560078 0.179816 0
M  V30 6 N 1.894652 -0.417696 -0.492214 0
M  V30 7 C 0.719204 -0.092929 -1.213354 0
M  V30 8 N 0.542454 -0.514364 -2.485633 0
M  V30 9 C -0.632430 -0.115671 -3.054474 0
M  V30 10 N -1.524475 0.620849 -2.419293 0
M  V30 11 C -1.413565 1.073763 -1.163826 0
M  V30 12 C -0.237908 0.670412 -0.603420 0
M  V30 13 S -0.247123 1.343985 1.008183 0
M  V30 14 C -1.936901 2.176643 0.807259 0
M  V30 15 C -2.593078 2.935114 1.764319 0
M  V30 16 C -3.813988 3.434525 1.357669 0
M  V30 17 O -4.545814 4.205582 2.241146 0
M  V30 18 C -4.032586 4.462906 3.527903 0
M  V30 19 C -4.216627 3.122324 0.082685 0
M  V30 20 C -3.534348 2.369838 -0.823239 0
M  V30 21 C -2.306729 1.843358 -0.476557 0
M  V30 22 C 3.492719 -1.347654 0.990526 0
M  V30 23 C 3.980239 -2.482027 1.649940 0
M  V30 24 O 5.083968 -2.330274 2.488391 0
M  V30 25 C 5.573067 -3.477052 3.151941 0
M  V30 26 C 3.365967 -3.698265 1.455038 0
M  V30 27 H 3.405371 -6.491629 0.988182 0
M  V30 28 H 2.225516 -6.192173 2.357355 0
M  V30 29 H 1.771722 -7.186692 0.949956 0
M  V30 30 H 0.927354 -2.952904 -0.657917 0
M  V30 31 H 2.419878 0.498947 -0.546436 0
M  V30 32 H -0.834276 -0.425390 -4.087486 0
M  V30 33 H -2.143934 3.090939 2.726128 0
M  V30 34 H -4.800028 5.002374 4.150129 0
M  V30 35 H -3.137263 5.139160 3.430835 0
M  V30 36 H -3.756910 3.560823 4.101009 0
M  V30 37 H -5.194451 3.523567 -0.243488 0
M  V30 38 H -3.955415 2.193396 -1.800199 0
M  V30 39 H 3.927371 -0.364689 1.099006 0
M  V30 40 H 6.387280 -3.192398 3.835818 0
M  V30 41 H 5.890893 -4.203484 2.372162 0
M  V30 42 H 4.780939 -3.974842 3.772026 0
M  V30 43 H 3.824658 -4.512037 2.014524 0
M  V30 END ATOM
M  V30 BEGIN BOND
M  V30 1 1 1 2
M  V30 2 1 2 3
M  V30 3 2 3 4
M  V30 4 1 4 5
M  V30 5 1 5 6
M  V30 6 1 6 7
M  V30 7 2 7 8
M  V30 8 1 8 9
M  V30 9 2 9 10
M  V30 10 1 10 11
M  V30 11 2 11 12
M  V30 12 1 12 13
M  V30 13 1 13 14
M  V30 14 2 14 15
M  V30 15 1 15 16
M  V30 16 1 16 17
M  V30 17 1 17 18
M  V30 18 2 16 19
M  V30 19 1 19 20
M  V30 20 2 20 21
M  V30 21 2 5 22
M  V30 22 1 22 23
M  V30 23 1 23 24
M  V30 24 1 24 25
M  V30 25 2 23 26
M  V30 26 1 26 3
M  V30 27 1 12 7
M  V30 28 1 21 14
M  V30 29 1 21 11
M  V30 30 1 1 27
M  V30 31 1 1 28
M  V30 32 1 1 29
M  V30 33 1 4 30
M  V30 34 1 6 31
M  V30 35 1 9 32
M  V30 36 1 15 33
M  V30 37 1 18 34
M  V30 38 1 18 35
M  V30 39 1 18 36
M  V30 40 1 19 37
M  V30 41 1 20 38
M  V30 42 1 22 39
M  V30 43 1 25 40
M  V30 44 1 25 41
M  V30 45 1 25 42
M  V30 46 1 26 43
M  V30 END BOND
M  V30 END CTAB
M  END
>  <Dataset>  (724) 
ChEMBL_Kinases

>  <Ligand_Instance>  (724) 
nan

>  <PDB_ID>  (724) 
nan

>  <Standardized_SMILES>  (724) 
COc1cc(Nc2ncnc3c2sc2cc(OC)ccc23)cc(OC)c1

>  <Name>  (724) 
nan

>  <Pocket>  (724) 
nan

>  <ATP_Site>  (724) 
nan

>  <Peripheral>  (724) 
nan

>  <Num_H_Atoms_ProtBoundConf>  (724) 
nan

>  <Num_Resolved_Atoms>  (724) 
nan

>  <Num_Not_Resolved_Atoms>  (724) 
nan

$$$$
CHEMBL3699742
     RDKit          3D

  0  0  0  0  0  0  0  0  0  0999 V3000
M  V30 BEGIN CTAB
M  V30 COUNTS 47 51 0 0 0
M  V30 BEGIN ATOM
M  V30 1 N 1.213744 -4.839235 2.876573 0
M  V30 2 C 0.073617 -4.469924 2.056297 0
M  V30 3 C 0.301381 -3.280361 1.221349 0
M  V30 4 C 0.103043 -3.051222 -0.110015 0
M  V30 5 C 0.387340 -1.854783 -0.704370 0
M  V30 6 C 0.896725 -0.830405 0.065664 0
M  V30 7 C 1.205762 0.456172 -0.547928 0
M  V30 8 N 2.030234 0.821391 -1.556375 0
M  V30 9 C 1.942758 2.165023 -1.735991 0
M  V30 10 C 2.582890 3.020961 -2.637902 0
M  V30 11 C 2.236329 4.343876 -2.520256 0
M  V30 12 Cl 3.022423 5.458805 -3.642008 0
M  V30 13 C 1.348310 4.887216 -1.628127 0
M  V30 14 C 0.744700 3.975465 -0.755969 0
M  V30 15 N 1.057505 2.664064 -0.837992 0
M  V30 16 C 0.587168 1.622079 -0.089825 0
M  V30 17 C -0.399225 1.749849 0.999676 0
M  V30 18 C -1.628095 1.134246 0.893531 0
M  V30 19 C -2.513229 1.294938 1.959143 0
M  V30 20 C -2.125970 2.047142 3.048074 0
M  V30 21 C -0.892932 2.658098 3.141648 0
M  V30 22 C 0.003829 2.515203 2.099661 0
M  V30 23 C 1.119442 -0.994551 1.408009 0
M  V30 24 C 0.818785 -2.231066 1.990996 0
M  V30 25 C -0.445653 -5.696675 1.326543 0
M  V30 26 C -1.860693 -5.273285 1.664349 0
M  V30 27 C -1.252660 -4.454425 2.795735 0
M  V30 28 H 2.065246 -4.495398 2.338603 0
M  V30 29 H 1.144984 -4.346433 3.793905 0
M  V30 30 H -0.297462 -3.912747 -0.621505 0
M  V30 31 H 0.195826 -1.770169 -1.761404 0
M  V30 32 H 3.282433 2.634543 -3.349796 0
M  V30 33 H 1.125982 5.940203 -1.594592 0
M  V30 34 H 0.024968 4.340488 -0.016782 0
M  V30 35 H -1.845701 0.565160 0.004926 0
M  V30 36 H -3.496929 0.812811 1.893778 0
M  V30 37 H -2.807464 2.184278 3.893814 0
M  V30 38 H -0.620370 3.248751 4.024190 0
M  V30 39 H 0.985739 2.979947 2.131937 0
M  V30 40 H 1.515278 -0.171371 1.962086 0
M  V30 41 H 1.035125 -2.247659 3.060788 0
M  V30 42 H -0.240158 -5.741970 0.250471 0
M  V30 43 H -0.146144 -6.660598 1.807784 0
M  V30 44 H -2.554706 -6.054865 1.981595 0
M  V30 45 H -2.336819 -4.646189 0.867732 0
M  V30 46 H -1.285101 -4.997468 3.752252 0
M  V30 47 H -1.712168 -3.444182 2.921326 0
M  V30 END ATOM
M  V30 BEGIN BOND
M  V30 1 1 1 2
M  V30 2 1 2 3
M  V30 3 2 3 4
M  V30 4 1 4 5
M  V30 5 2 5 6
M  V30 6 1 6 7
M  V30 7 1 7 8
M  V30 8 2 8 9
M  V30 9 1 9 10
M  V30 10 2 10 11
M  V30 11 1 11 12
M  V30 12 1 11 13
M  V30 13 2 13 14
M  V30 14 1 14 15
M  V30 15 1 15 16
M  V30 16 1 16 17
M  V30 17 2 17 18
M  V30 18 1 18 19
M  V30 19 2 19 20
M  V30 20 1 20 21
M  V30 21 2 21 22
M  V30 22 1 6 23
M  V30 23 2 23 24
M  V30 24 1 2 25
M  V30 25 1 25 26
M  V30 26 1 26 27
M  V30 27 1 27 2
M  V30 28 1 24 3
M  V30 29 2 16 7
M  V30 30 1 22 17
M  V30 31 1 15 9
M  V30 32 1 1 28
M  V30 33 1 1 29
M  V30 34 1 4 30
M  V30 35 1 5 31
M  V30 36 1 10 32
M  V30 37 1 13 33
M  V30 38 1 14 34
M  V30 39 1 18 35
M  V30 40 1 19 36
M  V30 41 1 20 37
M  V30 42 1 21 38
M  V30 43 1 22 39
M  V30 44 1 23 40
M  V30 45 1 24 41
M  V30 46 1 25 42
M  V30 47 1 25 43
M  V30 48 1 26 44
M  V30 49 1 26 45
M  V30 50 1 27 46
M  V30 51 1 27 47
M  V30 END BOND
M  V30 END CTAB
M  END
>  <Dataset>  (725) 
ChEMBL_Kinases

>  <Ligand_Instance>  (725) 
nan

>  <PDB_ID>  (725) 
nan

>  <Standardized_SMILES>  (725) 
NC1(c2ccc(-c3nc4cc(Cl)ccn4c3-c3ccccc3)cc2)CCC1

>  <Name>  (725) 
nan

>  <Pocket>  (725) 
nan

>  <ATP_Site>  (725) 
nan

>  <Peripheral>  (725) 
nan

>  <Num_H_Atoms_ProtBoundConf>  (725) 
nan

>  <Num_Resolved_Atoms>  (725) 
nan

>  <Num_Not_Resolved_Atoms>  (725) 
nan

$$$$
CHEMBL2313912
     RDKit          3D

  0  0  0  0  0  0  0  0  0  0999 V3000
M  V30 BEGIN CTAB
M  V30 COUNTS 41 45 0 0 0
M  V30 BEGIN ATOM
M  V30 1 C 1.466439 -4.407368 5.347463 0
M  V30 2 O 1.636870 -3.224566 4.613949 0
M  V30 3 C 1.370352 -3.139237 3.283439 0
M  V30 4 C 0.907924 -4.129204 2.447350 0
M  V30 5 C 0.642022 -4.044776 1.103375 0
M  V30 6 C 0.855072 -2.811371 0.463050 0
M  V30 7 C 1.309839 -1.881769 1.342452 0
M  V30 8 C 1.602144 -1.878463 2.696221 0
M  V30 9 S 1.519046 -0.353687 0.244858 0
M  V30 10 C 0.978537 -1.158909 -1.216128 0
M  V30 11 C 0.865358 -0.671749 -2.500181 0
M  V30 12 N 1.190523 0.724516 -2.696757 0
M  V30 13 C 0.778554 1.608556 -1.619261 0
M  V30 14 C 1.515494 2.693853 -1.167801 0
M  V30 15 C 0.981969 3.478017 -0.143774 0
M  V30 16 C -0.241958 3.184108 0.403689 0
M  V30 17 C -0.975207 2.100386 -0.051590 0
M  V30 18 C -0.456878 1.318829 -1.061981 0
M  V30 19 O -2.212952 1.884968 0.567891 0
M  V30 20 C -2.410791 2.124587 1.944374 0
M  V30 21 C -1.558231 3.256748 2.457879 0
M  V30 22 O -0.835007 3.928177 1.433905 0
M  V30 23 N 0.441449 -1.486530 -3.488906 0
M  V30 24 C 0.157861 -2.758601 -3.097114 0
M  V30 25 N 0.269515 -3.215105 -1.865290 0
M  V30 26 C 0.684896 -2.453517 -0.841394 0
M  V30 27 H 1.446005 -5.317735 4.722247 0
M  V30 28 H 2.313107 -4.505254 6.094871 0
M  V30 29 H 0.509677 -4.378416 5.909424 0
M  V30 30 H 0.718422 -5.128003 2.887692 0
M  V30 31 H 0.282240 -4.903446 0.561800 0
M  V30 32 H 1.960248 -0.982780 3.176577 0
M  V30 33 H 1.676943 0.931249 -3.569405 0
M  V30 34 H 2.461711 2.871920 -1.635157 0
M  V30 35 H 1.547388 4.329046 0.217782 0
M  V30 36 H -1.053005 0.483098 -1.396312 0
M  V30 37 H -3.462657 2.364030 2.114689 0
M  V30 38 H -2.186704 1.160027 2.486905 0
M  V30 39 H -2.147112 3.970336 3.072689 0
M  V30 40 H -0.799509 2.807970 3.161433 0
M  V30 41 H -0.196759 -3.485988 -3.849871 0
M  V30 END ATOM
M  V30 BEGIN BOND
M  V30 1 1 1 2
M  V30 2 1 2 3
M  V30 3 2 3 4
M  V30 4 1 4 5
M  V30 5 2 5 6
M  V30 6 1 6 7
M  V30 7 2 7 8
M  V30 8 1 7 9
M  V30 9 1 9 10
M  V30 10 2 10 11
M  V30 11 1 11 12
M  V30 12 1 12 13
M  V30 13 2 13 14
M  V30 14 1 14 15
M  V30 15 2 15 16
M  V30 16 1 16 17
M  V30 17 2 17 18
M  V30 18 1 17 19
M  V30 19 1 19 20
M  V30 20 1 20 21
M  V30 21 1 21 22
M  V30 22 1 11 23
M  V30 23 2 23 24
M  V30 24 1 24 25
M  V30 25 2 25 26
M  V30 26 1 8 3
M  V30 27 1 26 10
M  V30 28 1 26 6
M  V30 29 1 18 13
M  V30 30 1 22 16
M  V30 31 1 1 27
M  V30 32 1 1 28
M  V30 33 1 1 29
M  V30 34 1 4 30
M  V30 35 1 5 31
M  V30 36 1 8 32
M  V30 37 1 12 33
M  V30 38 1 14 34
M  V30 39 1 15 35
M  V30 40 1 18 36
M  V30 41 1 20 37
M  V30 42 1 20 38
M  V30 43 1 21 39
M  V30 44 1 21 40
M  V30 45 1 24 41
M  V30 END BOND
M  V30 END CTAB
M  END
>  <Dataset>  (726) 
ChEMBL_Kinases

>  <Ligand_Instance>  (726) 
nan

>  <PDB_ID>  (726) 
nan

>  <Standardized_SMILES>  (726) 
COc1ccc2c(c1)sc1c(Nc3ccc4c(c3)OCCO4)ncnc12

>  <Name>  (726) 
nan

>  <Pocket>  (726) 
nan

>  <ATP_Site>  (726) 
nan

>  <Peripheral>  (726) 
nan

>  <Num_H_Atoms_ProtBoundConf>  (726) 
nan

>  <Num_Resolved_Atoms>  (726) 
nan

>  <Num_Not_Resolved_Atoms>  (726) 
nan

$$$$
CHEMBL2313917
     RDKit          3D

  0  0  0  0  0  0  0  0  0  0999 V3000
M  V30 BEGIN CTAB
M  V30 COUNTS 35 38 0 0 0
M  V30 BEGIN ATOM
M  V30 1 C -0.227671 -5.429213 3.472407 0
M  V30 2 O 1.130251 -4.977377 3.423090 0
M  V30 3 C 1.412607 -3.875892 2.634809 0
M  V30 4 C 2.671355 -3.336837 2.497510 0
M  V30 5 C 3.047630 -2.254471 1.745707 0
M  V30 6 C 2.081489 -1.601066 1.026970 0
M  V30 7 C 0.818592 -2.185906 1.198293 0
M  V30 8 C 0.386739 -3.241775 1.916472 0
M  V30 9 S -0.337199 -1.127906 0.134049 0
M  V30 10 C 1.048786 0.028547 -0.448241 0
M  V30 11 C 0.928490 1.049885 -1.253729 0
M  V30 12 N -0.344606 1.369066 -1.792687 0
M  V30 13 C -1.381502 2.061245 -1.141823 0
M  V30 14 C -1.235556 2.481532 0.145868 0
M  V30 15 C -2.238819 3.158288 0.800371 0
M  V30 16 C -3.393258 3.389319 0.094787 0
M  V30 17 C -3.567698 2.973528 -1.213488 0
M  V30 18 C -2.549350 2.285304 -1.883561 0
M  V30 19 Cl -2.776149 1.767713 -3.529398 0
M  V30 20 N 2.063055 1.736906 -1.527152 0
M  V30 21 C 3.188922 1.274984 -0.927138 0
M  V30 22 N 3.255865 0.221940 -0.108464 0
M  V30 23 C 2.184899 -0.517044 0.219421 0
M  V30 24 H -0.816194 -4.567895 3.885970 0
M  V30 25 H -0.364410 -6.297902 4.114266 0
M  V30 26 H -0.613677 -5.590256 2.429376 0
M  V30 27 H 3.484524 -3.826549 3.058887 0
M  V30 28 H 4.070473 -1.933692 1.725455 0
M  V30 29 H -0.630351 -3.540649 1.920127 0
M  V30 30 H -0.396982 1.002435 -2.771877 0
M  V30 31 H -0.295738 2.263981 0.648620 0
M  V30 32 H -2.131967 3.495237 1.816252 0
M  V30 33 H -4.235433 3.916667 0.538540 0
M  V30 34 H -4.510861 3.186709 -1.731236 0
M  V30 35 H 4.167905 1.769688 -1.089163 0
M  V30 END ATOM
M  V30 BEGIN BOND
M  V30 1 1 1 2
M  V30 2 1 2 3
M  V30 3 2 3 4
M  V30 4 1 4 5
M  V30 5 2 5 6
M  V30 6 1 6 7
M  V30 7 2 7 8
M  V30 8 1 7 9
M  V30 9 1 9 10
M  V30 10 2 10 11
M  V30 11 1 11 12
M  V30 12 1 12 13
M  V30 13 2 13 14
M  V30 14 1 14 15
M  V30 15 2 15 16
M  V30 16 1 16 17
M  V30 17 2 17 18
M  V30 18 1 18 19
M  V30 19 1 11 20
M  V30 20 2 20 21
M  V30 21 1 21 22
M  V30 22 2 22 23
M  V30 23 1 8 3
M  V30 24 1 23 10
M  V30 25 1 23 6
M  V30 26 1 18 13
M  V30 27 1 1 24
M  V30 28 1 1 25
M  V30 29 1 1 26
M  V30 30 1 4 27
M  V30 31 1 5 28
M  V30 32 1 8 29
M  V30 33 1 12 30
M  V30 34 1 14 31
M  V30 35 1 15 32
M  V30 36 1 16 33
M  V30 37 1 17 34
M  V30 38 1 21 35
M  V30 END BOND
M  V30 END CTAB
M  END
>  <Dataset>  (727) 
ChEMBL_Kinases

>  <Ligand_Instance>  (727) 
nan

>  <PDB_ID>  (727) 
nan

>  <Standardized_SMILES>  (727) 
COc1ccc2c(c1)sc1c(Nc3ccccc3Cl)ncnc12

>  <Name>  (727) 
nan

>  <Pocket>  (727) 
nan

>  <ATP_Site>  (727) 
nan

>  <Peripheral>  (727) 
nan

>  <Num_H_Atoms_ProtBoundConf>  (727) 
nan

>  <Num_Resolved_Atoms>  (727) 
nan

>  <Num_Not_Resolved_Atoms>  (727) 
nan

$$$$
CHEMBL2313918
     RDKit          3D

  0  0  0  0  0  0  0  0  0  0999 V3000
M  V30 BEGIN CTAB
M  V30 COUNTS 35 38 0 0 0
M  V30 BEGIN ATOM
M  V30 1 C -0.454652 -5.351510 3.160992 0
M  V30 2 O 0.877167 -4.914345 3.105748 0
M  V30 3 C 1.301648 -3.765310 2.506973 0
M  V30 4 C 2.604970 -3.336705 2.451562 0
M  V30 5 C 3.058130 -2.189103 1.856870 0
M  V30 6 C 2.176492 -1.336375 1.235938 0
M  V30 7 C 0.863657 -1.797241 1.308947 0
M  V30 8 C 0.371130 -2.957154 1.905188 0
M  V30 9 S -0.125661 -0.472164 0.398462 0
M  V30 10 C 1.279015 0.501669 0.042884 0
M  V30 11 C 1.418456 1.715369 -0.648253 0
M  V30 12 N 0.269083 2.352748 -1.155981 0
M  V30 13 C -1.137662 2.241044 -1.079830 0
M  V30 14 C -1.692158 2.133574 0.187616 0
M  V30 15 C -3.053579 1.997106 0.385379 0
M  V30 16 C -3.881585 1.968669 -0.730504 0
M  V30 17 Cl -5.623309 1.799462 -0.593475 0
M  V30 18 C -3.338133 2.075194 -1.985826 0
M  V30 19 Cl -4.381784 2.041098 -3.414427 0
M  V30 20 C -1.977618 2.210980 -2.170302 0
M  V30 21 N 2.626464 2.281140 -0.809014 0
M  V30 22 C 3.663482 1.615558 -0.272729 0
M  V30 23 N 3.532529 0.484161 0.371903 0
M  V30 24 C 2.376129 -0.162816 0.587227 0
M  V30 25 H -1.110564 -4.594813 3.650076 0
M  V30 26 H -0.491947 -6.289514 3.736337 0
M  V30 27 H -0.869232 -5.575364 2.143838 0
M  V30 28 H 3.359926 -3.985533 2.936651 0
M  V30 29 H 4.116862 -1.973770 1.887860 0
M  V30 30 H -0.678493 -3.142397 1.858195 0
M  V30 31 H 0.430456 3.152574 -1.781240 0
M  V30 32 H -1.176091 2.153880 1.152724 0
M  V30 33 H -3.560422 1.906530 1.342162 0
M  V30 34 H -1.528833 2.297179 -3.157568 0
M  V30 35 H 4.650290 2.044724 -0.385096 0
M  V30 END ATOM
M  V30 BEGIN BOND
M  V30 1 1 1 2
M  V30 2 1 2 3
M  V30 3 2 3 4
M  V30 4 1 4 5
M  V30 5 2 5 6
M  V30 6 1 6 7
M  V30 7 2 7 8
M  V30 8 1 7 9
M  V30 9 1 9 10
M  V30 10 2 10 11
M  V30 11 1 11 12
M  V30 12 1 12 13
M  V30 13 2 13 14
M  V30 14 1 14 15
M  V30 15 2 15 16
M  V30 16 1 16 17
M  V30 17 1 16 18
M  V30 18 1 18 19
M  V30 19 2 18 20
M  V30 20 1 11 21
M  V30 21 2 21 22
M  V30 22 1 22 23
M  V30 23 2 23 24
M  V30 24 1 8 3
M  V30 25 1 24 10
M  V30 26 1 24 6
M  V30 27 1 20 13
M  V30 28 1 1 25
M  V30 29 1 1 26
M  V30 30 1 1 27
M  V30 31 1 4 28
M  V30 32 1 5 29
M  V30 33 1 8 30
M  V30 34 1 12 31
M  V30 35 1 14 32
M  V30 36 1 15 33
M  V30 37 1 20 34
M  V30 38 1 22 35
M  V30 END BOND
M  V30 END CTAB
M  END
>  <Dataset>  (728) 
ChEMBL_Kinases

>  <Ligand_Instance>  (728) 
nan

>  <PDB_ID>  (728) 
nan

>  <Standardized_SMILES>  (728) 
COc1ccc2c(c1)sc1c(Nc3ccc(Cl)c(Cl)c3)ncnc12

>  <Name>  (728) 
nan

>  <Pocket>  (728) 
nan

>  <ATP_Site>  (728) 
nan

>  <Peripheral>  (728) 
nan

>  <Num_H_Atoms_ProtBoundConf>  (728) 
nan

>  <Num_Resolved_Atoms>  (728) 
nan

>  <Num_Not_Resolved_Atoms>  (728) 
nan

$$$$
CHEMBL4533967
     RDKit          3D

  0  0  0  0  0  0  0  0  0  0999 V3000
M  V30 BEGIN CTAB
M  V30 COUNTS 48 50 0 0 0
M  V30 BEGIN ATOM
M  V30 1 C -0.539245 -2.540059 2.582367 0
M  V30 2 C 0.711666 -1.923868 3.120083 0
M  V30 3 C 0.293141 -1.099241 4.344563 0
M  V30 4 O 1.487807 -2.961364 3.630710 0
M  V30 5 C 1.451635 -1.011994 2.220753 0
M  V30 6 C 1.960756 -1.561708 0.940548 0
M  V30 7 C 2.690024 -0.404669 0.223946 0
M  V30 8 C 3.012256 -2.620555 1.151226 0
M  V30 9 N 0.865475 -2.024497 0.112349 0
M  V30 10 C -0.133898 -1.136503 -0.365903 0
M  V30 11 N -0.193891 0.165173 -0.138439 0
M  V30 12 C -1.101282 1.027186 -0.565956 0
M  V30 13 C -1.018250 2.442685 -0.219793 0
M  V30 14 C 0.019108 2.899911 0.565372 0
M  V30 15 C 0.171652 4.215269 0.937272 0
M  V30 16 N -0.766137 5.095636 0.493275 0
M  V30 17 C -1.794272 4.670448 -0.279163 0
M  V30 18 C -1.937908 3.350748 -0.646017 0
M  V30 19 N -2.102283 0.583534 -1.324110 0
M  V30 20 C -2.175741 -0.727400 -1.642394 0
M  V30 21 C -3.208156 -1.173866 -2.421984 0
M  V30 22 N -3.286752 -2.497413 -2.746200 0
M  V30 23 C -2.347550 -3.364972 -2.298605 0
M  V30 24 C -1.322920 -2.882302 -1.516767 0
M  V30 25 C -1.180631 -1.572143 -1.152875 0
M  V30 26 H -1.262280 -1.791560 2.193710 0
M  V30 27 H -0.327358 -3.371881 1.909179 0
M  V30 28 H -1.044322 -3.017857 3.482899 0
M  V30 29 H 0.967265 -0.222033 4.480710 0
M  V30 30 H 0.374828 -1.683227 5.284003 0
M  V30 31 H -0.772138 -0.769143 4.261851 0
M  V30 32 H 1.314555 -3.141000 4.579377 0
M  V30 33 H 2.275165 -0.526493 2.811145 0
M  V30 34 H 0.767082 -0.148848 1.984195 0
M  V30 35 H 2.107747 -0.076612 -0.682956 0
M  V30 36 H 2.899731 0.424315 0.918748 0
M  V30 37 H 3.662778 -0.731190 -0.194620 0
M  V30 38 H 3.550219 -2.413876 2.103472 0
M  V30 39 H 2.598629 -3.644956 1.107291 0
M  V30 40 H 3.778297 -2.565528 0.346037 0
M  V30 41 H 0.894479 -3.024297 -0.086719 0
M  V30 42 H 0.761367 2.184127 0.912901 0
M  V30 43 H 0.997855 4.519149 1.550233 0
M  V30 44 H -2.531258 5.369228 -0.626676 0
M  V30 45 H -2.755109 3.030155 -1.256418 0
M  V30 46 H -3.973480 -0.496788 -2.792843 0
M  V30 47 H -2.469218 -4.398996 -2.592045 0
M  V30 48 H -0.625413 -3.617937 -1.203006 0
M  V30 END ATOM
M  V30 BEGIN BOND
M  V30 1 1 1 2
M  V30 2 1 2 3
M  V30 3 1 2 4
M  V30 4 1 2 5
M  V30 5 1 5 6
M  V30 6 1 6 7
M  V30 7 1 6 8
M  V30 8 1 6 9
M  V30 9 1 9 10
M  V30 10 2 10 11
M  V30 11 1 11 12
M  V30 12 1 12 13
M  V30 13 2 13 14
M  V30 14 1 14 15
M  V30 15 2 15 16
M  V30 16 1 16 17
M  V30 17 2 17 18
M  V30 18 2 12 19
M  V30 19 1 19 20
M  V30 20 2 20 21
M  V30 21 1 21 22
M  V30 22 2 22 23
M  V30 23 1 23 24
M  V30 24 2 24 25
M  V30 25 1 25 10
M  V30 26 1 18 13
M  V30 27 1 25 20
M  V30 28 1 1 26
M  V30 29 1 1 27
M  V30 30 1 1 28
M  V30 31 1 3 29
M  V30 32 1 3 30
M  V30 33 1 3 31
M  V30 34 1 4 32
M  V30 35 1 5 33
M  V30 36 1 5 34
M  V30 37 1 7 35
M  V30 38 1 7 36
M  V30 39 1 7 37
M  V30 40 1 8 38
M  V30 41 1 8 39
M  V30 42 1 8 40
M  V30 43 1 9 41
M  V30 44 1 14 42
M  V30 45 1 15 43
M  V30 46 1 17 44
M  V30 47 1 18 45
M  V30 48 1 21 46
M  V30 49 1 23 47
M  V30 50 1 24 48
M  V30 END BOND
M  V30 END CTAB
M  END
>  <Dataset>  (729) 
ChEMBL_Kinases

>  <Ligand_Instance>  (729) 
nan

>  <PDB_ID>  (729) 
nan

>  <Standardized_SMILES>  (729) 
CC(C)(O)CC(C)(C)Nc1nc(-c2ccncc2)nc2cnccc12

>  <Name>  (729) 
nan

>  <Pocket>  (729) 
nan

>  <ATP_Site>  (729) 
nan

>  <Peripheral>  (729) 
nan

>  <Num_H_Atoms_ProtBoundConf>  (729) 
nan

>  <Num_Resolved_Atoms>  (729) 
nan

>  <Num_Not_Resolved_Atoms>  (729) 
nan

$$$$
CHEMBL3702161
     RDKit          3D

  0  0  0  0  0  0  0  0  0  0999 V3000
M  V30 BEGIN CTAB
M  V30 COUNTS 51 56 0 0 0
M  V30 BEGIN ATOM
M  V30 1 C 3.630898 -3.549424 6.183814 0
M  V30 2 C 3.277767 -2.904085 5.021248 0
M  V30 3 C 3.436774 -3.584290 3.813637 0
M  V30 4 C 3.114565 -3.059828 2.494691 0
M  V30 5 C 2.597340 -1.798708 2.301335 0
M  V30 6 C 2.293640 -1.333023 1.040723 0
M  V30 7 C 2.512466 -2.148159 -0.052184 0
M  V30 8 N 2.195338 -1.713502 -1.363590 0
M  V30 9 C 1.654402 -0.406993 -1.489596 0
M  V30 10 N 2.170316 0.739686 -1.999877 0
M  V30 11 C 1.407477 1.852058 -1.965426 0
M  V30 12 C 0.140096 1.815338 -1.424199 0
M  V30 13 C -0.780740 2.837302 -1.296455 0
M  V30 14 C -0.845171 4.176501 -1.613838 0
M  V30 15 C -1.994184 4.927322 -1.321296 0
M  V30 16 N -3.014285 4.266453 -0.719672 0
M  V30 17 C -2.945168 2.965294 -0.414077 0
M  V30 18 C -1.841612 2.208892 -0.686372 0
M  V30 19 N -1.662486 0.908749 -0.428815 0
M  V30 20 C -2.329343 -0.192320 0.144445 0
M  V30 21 C -3.667711 -0.037844 0.730749 0
M  V30 22 C -4.630939 -0.186836 -0.411158 0
M  V30 23 C -4.039616 -1.402834 -1.114645 0
M  V30 24 C -2.546879 -1.254205 -0.940366 0
M  V30 25 C -0.395661 0.659728 -0.902580 0
M  V30 26 N 0.437990 -0.415091 -0.977165 0
M  V30 27 N 3.024040 -3.382371 0.179803 0
M  V30 28 N 3.306454 -3.805146 1.397322 0
M  V30 29 C 3.943032 -4.858804 3.927182 0
M  V30 30 C 4.291580 -5.492261 5.095969 0
M  V30 31 N 4.126123 -4.805491 6.256095 0
M  V30 32 H 3.512131 -3.036298 7.122949 0
M  V30 33 H 2.883117 -1.905017 4.961462 0
M  V30 34 H 2.415793 -1.143423 3.129133 0
M  V30 35 H 1.884927 -0.327829 0.918233 0
M  V30 36 H 2.350874 -2.316275 -2.183613 0
M  V30 37 H 1.786473 2.773102 -2.360928 0
M  V30 38 H 0.021460 4.637145 -2.098764 0
M  V30 39 H -2.028516 5.984727 -1.578988 0
M  V30 40 H -3.829249 2.585626 0.055803 0
M  V30 41 H -1.609607 -0.687251 0.881444 0
M  V30 42 H -3.857547 0.793710 1.408853 0
M  V30 43 H -3.811876 -1.011569 1.355465 0
M  V30 44 H -5.650947 -0.384739 -0.043549 0
M  V30 45 H -4.551146 0.673500 -1.078510 0
M  V30 46 H -4.336051 -2.359545 -0.654626 0
M  V30 47 H -4.375748 -1.326916 -2.162003 0
M  V30 48 H -2.153484 -0.927827 -1.921467 0
M  V30 49 H -2.060810 -2.205391 -0.683696 0
M  V30 50 H 4.105748 -5.474442 3.039576 0
M  V30 51 H 4.685655 -6.494105 5.152181 0
M  V30 END ATOM
M  V30 BEGIN BOND
M  V30 1 2 1 2
M  V30 2 1 2 3
M  V30 3 1 3 4
M  V30 4 2 4 5
M  V30 5 1 5 6
M  V30 6 2 6 7
M  V30 7 1 7 8
M  V30 8 1 8 9
M  V30 9 2 9 10
M  V30 10 1 10 11
M  V30 11 2 11 12
M  V30 12 1 12 13
M  V30 13 2 13 14
M  V30 14 1 14 15
M  V30 15 2 15 16
M  V30 16 1 16 17
M  V30 17 2 17 18
M  V30 18 1 18 19
M  V30 19 1 19 20
M  V30 20 1 20 21
M  V30 21 1 21 22
M  V30 22 1 22 23
M  V30 23 1 23 24
M  V30 24 1 19 25
M  V30 25 2 25 26
M  V30 26 1 7 27
M  V30 27 2 27 28
M  V30 28 2 3 29
M  V30 29 1 29 30
M  V30 30 2 30 31
M  V30 31 1 31 1
M  V30 32 1 28 4
M  V30 33 1 26 9
M  V30 34 1 25 12
M  V30 35 1 18 13
M  V30 36 1 24 20
M  V30 37 1 1 32
M  V30 38 1 2 33
M  V30 39 1 5 34
M  V30 40 1 6 35
M  V30 41 1 8 36
M  V30 42 1 11 37
M  V30 43 1 14 38
M  V30 44 1 15 39
M  V30 45 1 17 40
M  V30 46 1 20 41
M  V30 47 1 21 42
M  V30 48 1 21 43
M  V30 49 1 22 44
M  V30 50 1 22 45
M  V30 51 1 23 46
M  V30 52 1 23 47
M  V30 53 1 24 48
M  V30 54 1 24 49
M  V30 55 1 29 50
M  V30 56 1 30 51
M  V30 END BOND
M  V30 END CTAB
M  END
>  <Dataset>  (730) 
ChEMBL_Kinases

>  <Ligand_Instance>  (730) 
nan

>  <PDB_ID>  (730) 
nan

>  <Standardized_SMILES>  (730) 
c1cc(-c2ccc(Nc3ncc4c5ccncc5n(C5CCCC5)c4n3)nn2)ccn1

>  <Name>  (730) 
nan

>  <Pocket>  (730) 
nan

>  <ATP_Site>  (730) 
nan

>  <Peripheral>  (730) 
nan

>  <Num_H_Atoms_ProtBoundConf>  (730) 
nan

>  <Num_Resolved_Atoms>  (730) 
nan

>  <Num_Not_Resolved_Atoms>  (730) 
nan

$$$$
CHEMBL2313924
     RDKit          3D

  0  0  0  0  0  0  0  0  0  0999 V3000
M  V30 BEGIN CTAB
M  V30 COUNTS 35 38 0 0 0
M  V30 BEGIN ATOM
M  V30 1 C -0.442151 -5.462312 2.986452 0
M  V30 2 O 0.754808 -4.809740 3.343282 0
M  V30 3 C 1.222340 -3.647970 2.758689 0
M  V30 4 C 2.356520 -2.917431 3.010542 0
M  V30 5 C 2.750127 -1.784841 2.396050 0
M  V30 6 C 1.969965 -1.246976 1.393185 0
M  V30 7 C 0.810565 -1.955411 1.105774 0
M  V30 8 C 0.424906 -3.135012 1.762959 0
M  V30 9 S 0.002180 -1.051020 -0.206623 0
M  V30 10 C 1.255231 0.229855 -0.305323 0
M  V30 11 C 1.304630 1.351568 -1.146901 0
M  V30 12 N 0.217201 1.482906 -2.077715 0
M  V30 13 C -1.036710 1.834602 -1.506083 0
M  V30 14 C -1.166885 2.021474 -0.129724 0
M  V30 15 C -2.396558 2.357437 0.448814 0
M  V30 16 C -3.493756 2.503865 -0.366721 0
M  V30 17 Br -5.125290 2.955008 0.488433 0
M  V30 18 C -3.419828 2.329965 -1.745954 0
M  V30 19 C -2.192559 1.999662 -2.281609 0
M  V30 20 F -2.098203 1.823852 -3.639044 0
M  V30 21 N 2.365643 2.181266 -1.013359 0
M  V30 22 C 3.257639 1.845609 -0.092675 0
M  V30 23 N 3.203721 0.774614 0.705931 0
M  V30 24 C 2.198427 -0.119032 0.664109 0
M  V30 25 H -1.253730 -4.714256 3.183521 0
M  V30 26 H -0.592656 -6.296001 3.703731 0
M  V30 27 H -0.463478 -5.850306 1.971541 0
M  V30 28 H 2.980402 -3.349245 3.812437 0
M  V30 29 H 3.681878 -1.341722 2.726092 0
M  V30 30 H -0.497626 -3.577811 1.436640 0
M  V30 31 H 0.231862 1.357893 -3.123694 0
M  V30 32 H -0.328015 1.915492 0.540476 0
M  V30 33 H -2.437769 2.490144 1.531382 0
M  V30 34 H -4.296555 2.451470 -2.370760 0
M  V30 35 H 4.147889 2.480948 0.065433 0
M  V30 END ATOM
M  V30 BEGIN BOND
M  V30 1 1 1 2
M  V30 2 1 2 3
M  V30 3 2 3 4
M  V30 4 1 4 5
M  V30 5 2 5 6
M  V30 6 1 6 7
M  V30 7 2 7 8
M  V30 8 1 7 9
M  V30 9 1 9 10
M  V30 10 2 10 11
M  V30 11 1 11 12
M  V30 12 1 12 13
M  V30 13 2 13 14
M  V30 14 1 14 15
M  V30 15 2 15 16
M  V30 16 1 16 17
M  V30 17 1 16 18
M  V30 18 2 18 19
M  V30 19 1 19 20
M  V30 20 1 11 21
M  V30 21 2 21 22
M  V30 22 1 22 23
M  V30 23 2 23 24
M  V30 24 1 8 3
M  V30 25 1 24 10
M  V30 26 1 24 6
M  V30 27 1 19 13
M  V30 28 1 1 25
M  V30 29 1 1 26
M  V30 30 1 1 27
M  V30 31 1 4 28
M  V30 32 1 5 29
M  V30 33 1 8 30
M  V30 34 1 12 31
M  V30 35 1 14 32
M  V30 36 1 15 33
M  V30 37 1 18 34
M  V30 38 1 22 35
M  V30 END BOND
M  V30 END CTAB
M  END
>  <Dataset>  (731) 
ChEMBL_Kinases

>  <Ligand_Instance>  (731) 
nan

>  <PDB_ID>  (731) 
nan

>  <Standardized_SMILES>  (731) 
COc1ccc2c(c1)sc1c(Nc3ccc(Br)cc3F)ncnc12

>  <Name>  (731) 
nan

>  <Pocket>  (731) 
nan

>  <ATP_Site>  (731) 
nan

>  <Peripheral>  (731) 
nan

>  <Num_H_Atoms_ProtBoundConf>  (731) 
nan

>  <Num_Resolved_Atoms>  (731) 
nan

>  <Num_Not_Resolved_Atoms>  (731) 
nan

$$$$
CHEMBL4533805
     RDKit          3D

  0  0  0  0  0  0  0  0  0  0999 V3000
M  V30 BEGIN CTAB
M  V30 COUNTS 55 58 0 0 0
M  V30 BEGIN ATOM
M  V30 1 C 7.128003 -1.921118 5.586350 0
M  V30 2 O 6.056115 -1.352823 4.821184 0
M  V30 3 C 6.343038 -0.322315 3.919829 0
M  V30 4 O 7.535579 0.098115 3.786454 0
M  V30 5 C 5.242458 0.244231 3.149993 0
M  V30 6 C 3.942145 -0.202316 3.283851 0
M  V30 7 C 2.950733 0.379580 2.523647 0
M  V30 8 C 3.158216 1.397384 1.617408 0
M  V30 9 C 2.130004 2.030016 0.801418 0
M  V30 10 O 2.482754 2.949746 0.021590 0
M  V30 11 N 0.772839 1.682220 0.826963 0
M  V30 12 C -0.320057 2.206248 0.097829 0
M  V30 13 C -0.288599 3.216975 -0.831495 0
M  V30 14 C -1.372868 3.703552 -1.526654 0
M  V30 15 C -2.608422 3.141238 -1.284114 0
M  V30 16 C -2.685087 2.122866 -0.357965 0
M  V30 17 N -3.952732 1.507984 -0.077096 0
M  V30 18 C -4.198847 0.378260 -0.941483 0
M  V30 19 O -3.161606 0.315690 -1.685912 0
M  V30 20 C -5.504512 -0.323622 -0.714305 0
M  V30 21 O -5.667298 -1.410389 -1.592759 0
M  V30 22 C -4.796541 -2.489354 -1.622690 0
M  V30 23 C -5.106667 -3.476472 -2.559299 0
M  V30 24 C -4.317078 -4.621828 -2.701512 0
M  V30 25 C -3.202977 -4.754955 -1.877872 0
M  V30 26 C -2.352369 -5.851039 -1.935802 0
M  V30 27 O -2.599551 -6.754718 -2.763139 0
M  V30 28 C -1.257943 -5.892630 -1.064978 0
M  V30 29 C -1.004946 -4.882807 -0.159555 0
M  V30 30 O -1.831938 -3.866797 -0.137506 0
M  V30 31 C -2.873074 -3.789212 -0.939658 0
M  V30 32 C -3.680142 -2.682594 -0.838594 0
M  V30 33 C -1.575439 1.680010 0.302445 0
M  V30 34 C 4.473796 1.801109 1.526923 0
M  V30 35 C 5.511523 1.260774 2.258353 0
M  V30 36 H 6.822251 -1.931800 6.647432 0
M  V30 37 H 8.060854 -1.363903 5.468827 0
M  V30 38 H 7.218894 -2.991858 5.293458 0
M  V30 39 H 3.715091 -1.002087 3.981940 0
M  V30 40 H 1.953022 -0.000455 2.661708 0
M  V30 41 H 0.581477 0.911543 1.503334 0
M  V30 42 H 0.642087 3.692757 -1.062482 0
M  V30 43 H -1.289869 4.492728 -2.239092 0
M  V30 44 H -3.519395 3.450172 -1.775709 0
M  V30 45 H -4.586398 1.889076 0.689239 0
M  V30 46 H -6.353457 0.371570 -0.907594 0
M  V30 47 H -5.545350 -0.645539 0.326097 0
M  V30 48 H -5.946498 -3.465405 -3.241924 0
M  V30 49 H -4.536646 -5.400160 -3.419384 0
M  V30 50 H -0.610926 -6.751102 -1.125979 0
M  V30 51 H -0.148399 -4.915666 0.521737 0
M  V30 52 H -3.463381 -1.907709 -0.121438 0
M  V30 53 H -1.705754 0.877072 1.016907 0
M  V30 54 H 4.764702 2.605899 0.837851 0
M  V30 55 H 6.524269 1.622921 2.140469 0
M  V30 END ATOM
M  V30 BEGIN BOND
M  V30 1 1 1 2
M  V30 2 1 2 3
M  V30 3 2 3 4
M  V30 4 1 3 5
M  V30 5 2 5 6
M  V30 6 1 6 7
M  V30 7 2 7 8
M  V30 8 1 8 9
M  V30 9 2 9 10
M  V30 10 1 9 11
M  V30 11 1 11 12
M  V30 12 2 12 13
M  V30 13 1 13 14
M  V30 14 2 14 15
M  V30 15 1 15 16
M  V30 16 1 16 17
M  V30 17 1 17 18
M  V30 18 2 18 19
M  V30 19 1 18 20
M  V30 20 1 20 21
M  V30 21 1 21 22
M  V30 22 2 22 23
M  V30 23 1 23 24
M  V30 24 2 24 25
M  V30 25 1 25 26
M  V30 26 2 26 27
M  V30 27 1 26 28
M  V30 28 2 28 29
M  V30 29 1 29 30
M  V30 30 1 30 31
M  V30 31 2 31 32
M  V30 32 2 16 33
M  V30 33 1 8 34
M  V30 34 2 34 35
M  V30 35 1 35 5
M  V30 36 1 33 12
M  V30 37 1 32 22
M  V30 38 1 31 25
M  V30 39 1 1 36
M  V30 40 1 1 37
M  V30 41 1 1 38
M  V30 42 1 6 39
M  V30 43 1 7 40
M  V30 44 1 11 41
M  V30 45 1 13 42
M  V30 46 1 14 43
M  V30 47 1 15 44
M  V30 48 1 17 45
M  V30 49 1 20 46
M  V30 50 1 20 47
M  V30 51 1 23 48
M  V30 52 1 24 49
M  V30 53 1 28 50
M  V30 54 1 29 51
M  V30 55 1 32 52
M  V30 56 1 33 53
M  V30 57 1 34 54
M  V30 58 1 35 55
M  V30 END BOND
M  V30 END CTAB
M  END
>  <Dataset>  (732) 
ChEMBL_Kinases

>  <Ligand_Instance>  (732) 
nan

>  <PDB_ID>  (732) 
nan

>  <Standardized_SMILES>  (732) 
COC(=O)c1ccc(C(=O)Nc2cccc(NC(=O)COc3ccc4c(=O)ccoc4c3)c2)cc1

>  <Name>  (732) 
nan

>  <Pocket>  (732) 
nan

>  <ATP_Site>  (732) 
nan

>  <Peripheral>  (732) 
nan

>  <Num_H_Atoms_ProtBoundConf>  (732) 
nan

>  <Num_Resolved_Atoms>  (732) 
nan

>  <Num_Not_Resolved_Atoms>  (732) 
nan

$$$$
CHEMBL2313926
     RDKit          3D

  0  0  0  0  0  0  0  0  0  0999 V3000
M  V30 BEGIN CTAB
M  V30 COUNTS 36 39 0 0 0
M  V30 BEGIN ATOM
M  V30 1 C -2.548397 -4.157935 3.443703 0
M  V30 2 O -2.201710 -3.147323 4.371272 0
M  V30 3 C -1.489998 -2.012756 4.125692 0
M  V30 4 C -1.041359 -0.918620 4.815299 0
M  V30 5 C -0.319037 0.139829 4.339323 0
M  V30 6 C 0.033805 0.142538 2.951842 0
M  V30 7 C -0.381245 -0.903112 2.246337 0
M  V30 8 C -1.126203 -1.977661 2.773760 0
M  V30 9 S 0.197252 -0.594306 0.650733 0
M  V30 10 C 0.985397 0.952374 0.999734 0
M  V30 11 C 1.694305 1.830621 0.159962 0
M  V30 12 N 1.861346 1.558192 -1.209562 0
M  V30 13 C 1.550671 0.555700 -2.130041 0
M  V30 14 C 0.845014 0.901102 -3.271383 0
M  V30 15 C 0.431521 0.098218 -4.339865 0
M  V30 16 C 0.839990 -1.221676 -4.124212 0
M  V30 17 C 0.506072 -2.190961 -5.118005 0
M  V30 18 N 0.224221 -3.008284 -5.935995 0
M  V30 19 C 1.539185 -1.690098 -3.042740 0
M  V30 20 C 1.878043 -0.779994 -2.067523 0
M  V30 21 N 2.192256 2.951202 0.708126 0
M  V30 22 C 1.947558 3.107910 2.031744 0
M  V30 23 N 1.273430 2.232596 2.735729 0
M  V30 24 C 0.727117 1.084245 2.317974 0
M  V30 25 H -3.274346 -4.860921 3.868315 0
M  V30 26 H -3.084334 -3.629676 2.596147 0
M  V30 27 H -1.684584 -4.636599 2.974008 0
M  V30 28 H -1.356224 -1.013404 5.849723 0
M  V30 29 H -0.080951 0.890419 5.079794 0
M  V30 30 H -1.368208 -2.744212 2.016242 0
M  V30 31 H 2.369330 2.293079 -1.733014 0
M  V30 32 H 0.545145 1.957556 -3.393932 0
M  V30 33 H -0.114158 0.458264 -5.187680 0
M  V30 34 H 1.828161 -2.709719 -2.925786 0
M  V30 35 H 2.434327 -1.120283 -1.209676 0
M  V30 36 H 2.380274 4.036824 2.428940 0
M  V30 END ATOM
M  V30 BEGIN BOND
M  V30 1 1 1 2
M  V30 2 1 2 3
M  V30 3 2 3 4
M  V30 4 1 4 5
M  V30 5 2 5 6
M  V30 6 1 6 7
M  V30 7 2 7 8
M  V30 8 1 7 9
M  V30 9 1 9 10
M  V30 10 2 10 11
M  V30 11 1 11 12
M  V30 12 1 12 13
M  V30 13 2 13 14
M  V30 14 1 14 15
M  V30 15 2 15 16
M  V30 16 1 16 17
M  V30 17 3 17 18
M  V30 18 1 16 19
M  V30 19 2 19 20
M  V30 20 1 11 21
M  V30 21 2 21 22
M  V30 22 1 22 23
M  V30 23 2 23 24
M  V30 24 1 8 3
M  V30 25 1 24 10
M  V30 26 1 24 6
M  V30 27 1 20 13
M  V30 28 1 1 25
M  V30 29 1 1 26
M  V30 30 1 1 27
M  V30 31 1 4 28
M  V30 32 1 5 29
M  V30 33 1 8 30
M  V30 34 1 12 31
M  V30 35 1 14 32
M  V30 36 1 15 33
M  V30 37 1 19 34
M  V30 38 1 20 35
M  V30 39 1 22 36
M  V30 END BOND
M  V30 END CTAB
M  END
>  <Dataset>  (733) 
ChEMBL_Kinases

>  <Ligand_Instance>  (733) 
nan

>  <PDB_ID>  (733) 
nan

>  <Standardized_SMILES>  (733) 
COc1ccc2c(c1)sc1c(Nc3ccc(C#N)cc3)ncnc12

>  <Name>  (733) 
nan

>  <Pocket>  (733) 
nan

>  <ATP_Site>  (733) 
nan

>  <Peripheral>  (733) 
nan

>  <Num_H_Atoms_ProtBoundConf>  (733) 
nan

>  <Num_Resolved_Atoms>  (733) 
nan

>  <Num_Not_Resolved_Atoms>  (733) 
nan

$$$$
CHEMBL2314163
     RDKit          3D

  0  0  0  0  0  0  0  0  0  0999 V3000
M  V30 BEGIN CTAB
M  V30 COUNTS 25 27 0 0 0
M  V30 BEGIN ATOM
M  V30 1 C -2.019264 -3.105619 3.553533 0
M  V30 2 O -1.049055 -2.151492 3.946844 0
M  V30 3 C -0.456667 -1.397883 2.944258 0
M  V30 4 C 0.473034 -0.504274 3.471468 0
M  V30 5 C 1.187918 0.352627 2.643345 0
M  V30 6 C 0.981071 0.325229 1.280491 0
M  V30 7 C 0.054451 -0.567484 0.770000 0
M  V30 8 C -0.655261 -1.416549 1.580306 0
M  V30 9 O -0.002856 -0.446164 -0.544325 0
M  V30 10 C 0.853601 0.495630 -0.920295 0
M  V30 11 C 1.145825 0.973159 -2.183527 0
M  V30 12 N 0.476640 0.433950 -3.318734 0
M  V30 13 N 2.076814 1.952773 -2.271449 0
M  V30 14 C 2.687077 2.433263 -1.154458 0
M  V30 15 N 2.408678 1.971730 0.096911 0
M  V30 16 C 1.493961 1.008009 0.192219 0
M  V30 17 H -2.674098 -2.748834 2.750507 0
M  V30 18 H -2.691092 -3.311336 4.424525 0
M  V30 19 H -1.476359 -4.040150 3.300602 0
M  V30 20 H 0.727953 -0.385724 4.534971 0
M  V30 21 H 1.914308 1.055977 3.017751 0
M  V30 22 H -1.394180 -2.143373 1.281779 0
M  V30 23 H 1.180684 0.116947 -4.043042 0
M  V30 24 H -0.567647 0.481793 -3.160788 0
M  V30 25 H 3.409910 3.213158 -1.362934 0
M  V30 END ATOM
M  V30 BEGIN BOND
M  V30 1 1 1 2
M  V30 2 1 2 3
M  V30 3 2 3 4
M  V30 4 1 4 5
M  V30 5 2 5 6
M  V30 6 1 6 7
M  V30 7 2 7 8
M  V30 8 1 7 9
M  V30 9 1 9 10
M  V30 10 2 10 11
M  V30 11 1 11 12
M  V30 12 1 11 13
M  V30 13 2 13 14
M  V30 14 1 14 15
M  V30 15 2 15 16
M  V30 16 1 8 3
M  V30 17 1 16 10
M  V30 18 1 16 6
M  V30 19 1 1 17
M  V30 20 1 1 18
M  V30 21 1 1 19
M  V30 22 1 4 20
M  V30 23 1 5 21
M  V30 24 1 8 22
M  V30 25 1 12 23
M  V30 26 1 12 24
M  V30 27 1 14 25
M  V30 END BOND
M  V30 END CTAB
M  END
>  <Dataset>  (734) 
ChEMBL_Kinases

>  <Ligand_Instance>  (734) 
nan

>  <PDB_ID>  (734) 
nan

>  <Standardized_SMILES>  (734) 
COc1ccc2c(c1)oc1c(N)ncnc12

>  <Name>  (734) 
nan

>  <Pocket>  (734) 
nan

>  <ATP_Site>  (734) 
nan

>  <Peripheral>  (734) 
nan

>  <Num_H_Atoms_ProtBoundConf>  (734) 
nan

>  <Num_Resolved_Atoms>  (734) 
nan

>  <Num_Not_Resolved_Atoms>  (734) 
nan

$$$$
CHEMBL2314167
     RDKit          3D

  0  0  0  0  0  0  0  0  0  0999 V3000
M  V30 BEGIN CTAB
M  V30 COUNTS 39 42 0 0 0
M  V30 BEGIN ATOM
M  V30 1 C 1.684817 -5.761635 1.523922 0
M  V30 2 O 1.400757 -4.514465 2.091253 0
M  V30 3 C 1.943877 -3.306406 1.744739 0
M  V30 4 C 2.881672 -3.053349 0.772732 0
M  V30 5 C 3.347973 -1.772276 0.522150 0
M  V30 6 C 2.860616 -0.711105 1.267411 0
M  V30 7 N 3.288384 0.630282 1.095931 0
M  V30 8 C 2.417989 1.746896 0.887711 0
M  V30 9 N 2.860682 2.993885 0.883947 0
M  V30 10 C 2.154477 4.107124 0.675927 0
M  V30 11 N 0.836599 3.832978 0.449171 0
M  V30 12 C 0.324216 2.601621 0.438824 0
M  V30 13 C 1.088206 1.480255 0.658549 0
M  V30 14 O 0.270296 0.471324 0.574847 0
M  V30 15 C -0.961021 0.834934 0.319802 0
M  V30 16 C -2.038845 -0.011648 0.175822 0
M  V30 17 C -3.254933 0.578088 -0.093197 0
M  V30 18 O -4.451946 -0.098852 -0.269421 0
M  V30 19 C -4.510220 -1.508306 -0.175110 0
M  V30 20 C -3.339240 1.968434 -0.205003 0
M  V30 21 C -2.208759 2.782378 -0.048785 0
M  V30 22 C -0.983065 2.209067 0.221213 0
M  V30 23 C 1.906841 -0.946284 2.262095 0
M  V30 24 C 1.445703 -2.243582 2.503571 0
M  V30 25 H 1.923260 -6.464444 2.364336 0
M  V30 26 H 0.785467 -6.196562 1.005163 0
M  V30 27 H 2.548785 -5.732433 0.828468 0
M  V30 28 H 3.234920 -3.908961 0.215811 0
M  V30 29 H 4.081023 -1.577636 -0.238696 0
M  V30 30 H 4.320194 0.829386 1.122212 0
M  V30 31 H 2.564782 5.097031 0.681915 0
M  V30 32 H -1.988973 -1.085629 0.260641 0
M  V30 33 H -4.558473 -1.816238 0.896501 0
M  V30 34 H -5.388161 -1.930730 -0.711895 0
M  V30 35 H -3.599799 -1.983550 -0.589265 0
M  V30 36 H -4.267660 2.470619 -0.412588 0
M  V30 37 H -2.241379 3.847909 -0.129390 0
M  V30 38 H 1.500108 -0.140159 2.890513 0
M  V30 39 H 0.707792 -2.358769 3.284285 0
M  V30 END ATOM
M  V30 BEGIN BOND
M  V30 1 1 1 2
M  V30 2 1 2 3
M  V30 3 2 3 4
M  V30 4 1 4 5
M  V30 5 2 5 6
M  V30 6 1 6 7
M  V30 7 1 7 8
M  V30 8 2 8 9
M  V30 9 1 9 10
M  V30 10 2 10 11
M  V30 11 1 11 12
M  V30 12 2 12 13
M  V30 13 1 13 14
M  V30 14 1 14 15
M  V30 15 2 15 16
M  V30 16 1 16 17
M  V30 17 1 17 18
M  V30 18 1 18 19
M  V30 19 2 17 20
M  V30 20 1 20 21
M  V30 21 2 21 22
M  V30 22 1 6 23
M  V30 23 2 23 24
M  V30 24 1 24 3
M  V30 25 1 13 8
M  V30 26 1 22 15
M  V30 27 1 22 12
M  V30 28 1 1 25
M  V30 29 1 1 26
M  V30 30 1 1 27
M  V30 31 1 4 28
M  V30 32 1 5 29
M  V30 33 1 7 30
M  V30 34 1 10 31
M  V30 35 1 16 32
M  V30 36 1 19 33
M  V30 37 1 19 34
M  V30 38 1 19 35
M  V30 39 1 20 36
M  V30 40 1 21 37
M  V30 41 1 23 38
M  V30 42 1 24 39
M  V30 END BOND
M  V30 END CTAB
M  END
>  <Dataset>  (735) 
ChEMBL_Kinases

>  <Ligand_Instance>  (735) 
nan

>  <PDB_ID>  (735) 
nan

>  <Standardized_SMILES>  (735) 
COc1ccc(Nc2ncnc3c2oc2cc(OC)ccc23)cc1

>  <Name>  (735) 
nan

>  <Pocket>  (735) 
nan

>  <ATP_Site>  (735) 
nan

>  <Peripheral>  (735) 
nan

>  <Num_H_Atoms_ProtBoundConf>  (735) 
nan

>  <Num_Resolved_Atoms>  (735) 
nan

>  <Num_Not_Resolved_Atoms>  (735) 
nan

$$$$
CHEMBL4533727
     RDKit          3D

  0  0  0  0  0  0  0  0  0  0999 V3000
M  V30 BEGIN CTAB
M  V30 COUNTS 48 52 0 0 0
M  V30 BEGIN ATOM
M  V30 1 C 1.339385 -5.210385 -1.252526 0
M  V30 2 C 1.580238 -4.078542 -0.320882 0
M  V30 3 C 2.383566 -4.270381 0.790680 0
M  V30 4 C 2.622824 -3.234858 1.670926 0
M  V30 5 C 2.051116 -1.983069 1.439982 0
M  V30 6 C 1.255851 -1.824295 0.323813 0
M  V30 7 C 0.583516 -0.590164 -0.067719 0
M  V30 8 N 1.208262 0.558884 -0.370792 0
M  V30 9 C 0.350833 1.537190 -0.698099 0
M  V30 10 C 0.435302 2.966041 -1.094921 0
M  V30 11 N 0.269404 3.783869 0.079348 0
M  V30 12 C 1.082335 3.965647 1.217767 0
M  V30 13 C 2.299647 3.384212 1.441983 0
M  V30 14 C 3.089489 3.554155 2.557847 0
M  V30 15 C 2.580317 4.394254 3.521645 0
M  V30 16 F 3.305173 4.604243 4.642002 0
M  V30 17 C 1.372769 5.012084 3.371328 0
M  V30 18 C 0.649872 4.789501 2.231701 0
M  V30 19 N -0.870968 0.942578 -0.586665 0
M  V30 20 C -0.762613 -0.332214 -0.210185 0
M  V30 21 C -1.784715 -1.302682 0.021982 0
M  V30 22 C -2.178562 -1.991953 1.101426 0
M  V30 23 C -3.219258 -2.880365 1.021936 0
M  V30 24 C -3.774852 -3.678308 1.996341 0
M  V30 25 N -4.787655 -4.480304 1.721424 0
M  V30 26 C -5.397543 -4.639075 0.537762 0
M  V30 27 C -4.899322 -3.873538 -0.493026 0
M  V30 28 C -3.826507 -3.019151 -0.218373 0
M  V30 29 S -2.922620 -1.880738 -1.301745 0
M  V30 30 N 1.051563 -2.869892 -0.508644 0
M  V30 31 H 0.260907 -5.174747 -1.551671 0
M  V30 32 H 1.937924 -5.057148 -2.161880 0
M  V30 33 H 1.552427 -6.181902 -0.763645 0
M  V30 34 H 2.857783 -5.209916 1.031436 0
M  V30 35 H 3.226010 -3.249815 2.570828 0
M  V30 36 H 2.170095 -1.102152 2.062203 0
M  V30 37 H 2.225642 0.709966 -0.371179 0
M  V30 38 H 1.426241 3.159788 -1.586721 0
M  V30 39 H -0.339332 3.149961 -1.859147 0
M  V30 40 H -0.640403 4.338657 0.054286 0
M  V30 41 H 2.705836 2.732703 0.685523 0
M  V30 42 H 4.051095 3.045008 2.647685 0
M  V30 43 H 1.034349 5.652846 4.157250 0
M  V30 44 H -0.300499 5.303635 2.162497 0
M  V30 45 H -1.626269 -1.796962 2.014643 0
M  V30 46 H -3.402501 -3.678913 3.024255 0
M  V30 47 H -6.224661 -5.297738 0.324905 0
M  V30 48 H -5.257465 -3.863228 -1.512862 0
M  V30 END ATOM
M  V30 BEGIN BOND
M  V30 1 1 1 2
M  V30 2 2 2 3
M  V30 3 1 3 4
M  V30 4 2 4 5
M  V30 5 1 5 6
M  V30 6 1 6 7
M  V30 7 1 7 8
M  V30 8 1 8 9
M  V30 9 1 9 10
M  V30 10 1 10 11
M  V30 11 1 11 12
M  V30 12 2 12 13
M  V30 13 1 13 14
M  V30 14 2 14 15
M  V30 15 1 15 16
M  V30 16 1 15 17
M  V30 17 2 17 18
M  V30 18 2 9 19
M  V30 19 1 19 20
M  V30 20 1 20 21
M  V30 21 2 21 22
M  V30 22 1 22 23
M  V30 23 2 23 24
M  V30 24 1 24 25
M  V30 25 2 25 26
M  V30 26 1 26 27
M  V30 27 2 27 28
M  V30 28 1 28 29
M  V30 29 2 6 30
M  V30 30 1 30 2
M  V30 31 2 20 7
M  V30 32 1 29 21
M  V30 33 1 18 12
M  V30 34 1 28 23
M  V30 35 1 1 31
M  V30 36 1 1 32
M  V30 37 1 1 33
M  V30 38 1 3 34
M  V30 39 1 4 35
M  V30 40 1 5 36
M  V30 41 1 8 37
M  V30 42 1 10 38
M  V30 43 1 10 39
M  V30 44 1 11 40
M  V30 45 1 13 41
M  V30 46 1 14 42
M  V30 47 1 17 43
M  V30 48 1 18 44
M  V30 49 1 22 45
M  V30 50 1 24 46
M  V30 51 1 26 47
M  V30 52 1 27 48
M  V30 END BOND
M  V30 END CTAB
M  END
>  <Dataset>  (736) 
ChEMBL_Kinases

>  <Ligand_Instance>  (736) 
nan

>  <PDB_ID>  (736) 
nan

>  <Standardized_SMILES>  (736) 
Cc1cccc(-c2[nH]c(CNc3ccc(F)cc3)nc2-c2cc3cnccc3s2)n1

>  <Name>  (736) 
nan

>  <Pocket>  (736) 
nan

>  <ATP_Site>  (736) 
nan

>  <Peripheral>  (736) 
nan

>  <Num_H_Atoms_ProtBoundConf>  (736) 
nan

>  <Num_Resolved_Atoms>  (736) 
nan

>  <Num_Not_Resolved_Atoms>  (736) 
nan

$$$$
CHEMBL4533366
     RDKit          3D

  0  0  0  0  0  0  0  0  0  0999 V3000
M  V30 BEGIN CTAB
M  V30 COUNTS 52 54 0 0 0
M  V30 BEGIN ATOM
M  V30 1 C 3.639715 -4.949474 2.484182 0
M  V30 2 C 2.836259 -3.701159 2.161041 0
M  V30 3 C 3.183815 -2.680022 3.238116 0
M  V30 4 C 3.334718 -3.203327 0.812616 0
M  V30 5 C 2.613878 -1.985561 0.403610 0
M  V30 6 C 2.021218 -0.982733 0.087441 0
M  V30 7 C 1.296323 0.224545 -0.271321 0
M  V30 8 C 1.878412 1.354919 -0.830613 0
M  V30 9 Cl 3.575566 1.630642 -1.242548 0
M  V30 10 C 0.847844 2.262696 -1.014380 0
M  V30 11 C 0.812669 3.542757 -1.524744 0
M  V30 12 Cl 2.256855 4.347406 -2.105332 0
M  V30 13 C -0.425596 4.164584 -1.556329 0
M  V30 14 C -1.603908 3.594752 -1.117619 0
M  V30 15 C -2.871698 4.314593 -1.183547 0
M  V30 16 N -4.019792 3.625506 -0.702075 0
M  V30 17 O -2.946191 5.493730 -1.646221 0
M  V30 18 N -1.485921 2.339417 -0.631908 0
M  V30 19 C -0.317123 1.672963 -0.570006 0
M  V30 20 N -0.025916 0.432145 -0.120854 0
M  V30 21 C -0.929589 -0.551810 0.436322 0 CFG=1
M  V30 22 C -2.156584 0.045174 1.058748 0
M  V30 23 C -3.336044 -0.236220 0.152542 0
M  V30 24 C -3.517926 -1.733463 0.046683 0
M  V30 25 N -2.288399 -2.464241 -0.038763 0
M  V30 26 C -1.280564 -1.598609 -0.622439 0
M  V30 27 C 1.381683 -3.997262 2.156045 0
M  V30 28 N 1.152939 -4.461683 3.500586 0
M  V30 29 O 0.245490 -4.063770 1.621604 0
M  V30 30 H 3.067910 -5.818085 2.082670 0
M  V30 31 H 3.823949 -5.025900 3.582487 0
M  V30 32 H 4.636858 -4.871713 1.990770 0
M  V30 33 H 2.298986 -1.987988 3.293157 0
M  V30 34 H 3.203497 -3.206288 4.214382 0
M  V30 35 H 4.113992 -2.144436 3.019075 0
M  V30 36 H 3.131948 -3.968761 0.057816 0
M  V30 37 H 4.425857 -3.003345 0.974353 0
M  V30 38 H -0.530291 5.185896 -1.949959 0
M  V30 39 H -4.777476 4.004806 -0.072636 0
M  V30 40 H -4.858826 3.789268 -0.100820 0
M  V30 41 H -0.395422 -1.115548 1.232032 0
M  V30 42 H -2.409003 -0.481509 2.025885 0
M  V30 43 H -2.052359 1.103025 1.321243 0
M  V30 44 H -4.224823 0.222743 0.642821 0
M  V30 45 H -3.200485 0.137907 -0.876804 0
M  V30 46 H -4.124219 -1.929533 -0.872364 0
M  V30 47 H -4.087732 -2.086682 0.925689 0
M  V30 48 H -2.368931 -3.311190 -0.654478 0
M  V30 49 H -0.358517 -2.171616 -0.825389 0
M  V30 50 H -1.721798 -1.132463 -1.527196 0
M  V30 51 H 1.012521 -4.903468 4.437261 0
M  V30 52 H 0.886569 -3.618157 4.082859 0
M  V30 END ATOM
M  V30 BEGIN BOND
M  V30 1 1 1 2
M  V30 2 1 2 3
M  V30 3 1 2 4
M  V30 4 1 4 5
M  V30 5 3 5 6
M  V30 6 1 6 7
M  V30 7 2 7 8
M  V30 8 1 8 9
M  V30 9 1 8 10
M  V30 10 2 10 11
M  V30 11 1 11 12
M  V30 12 1 11 13
M  V30 13 2 13 14
M  V30 14 1 14 15
M  V30 15 1 15 16
M  V30 16 2 15 17
M  V30 17 1 14 18
M  V30 18 2 18 19
M  V30 19 1 19 20
M  V30 20 1 20 21
M  V30 21 1 21 22
M  V30 22 1 22 23
M  V30 23 1 23 24
M  V30 24 1 24 25
M  V30 25 1 25 26
M  V30 26 1 2 27
M  V30 27 1 27 28
M  V30 28 2 27 29
M  V30 29 1 20 7
M  V30 30 1 26 21
M  V30 31 1 19 10
M  V30 32 1 1 30
M  V30 33 1 1 31
M  V30 34 1 1 32
M  V30 35 1 3 33
M  V30 36 1 3 34
M  V30 37 1 3 35
M  V30 38 1 4 36
M  V30 39 1 4 37
M  V30 40 1 13 38
M  V30 41 1 16 39
M  V30 42 1 16 40
M  V30 43 1 21 41 CFG=1
M  V30 44 1 22 42
M  V30 45 1 22 43
M  V30 46 1 23 44
M  V30 47 1 23 45
M  V30 48 1 24 46
M  V30 49 1 24 47
M  V30 50 1 25 48
M  V30 51 1 26 49
M  V30 52 1 26 50
M  V30 53 1 28 51
M  V30 54 1 28 52
M  V30 END BOND
M  V30 END CTAB
M  END
>  <Dataset>  (737) 
ChEMBL_Kinases

>  <Ligand_Instance>  (737) 
nan

>  <PDB_ID>  (737) 
nan

>  <Standardized_SMILES>  (737) 
CC(C)(CC#Cc1c(Cl)c2c(Cl)cc(C(N)=O)nc2n1[C@H]1CCCNC1)C(N)=O

>  <Name>  (737) 
nan

>  <Pocket>  (737) 
nan

>  <ATP_Site>  (737) 
nan

>  <Peripheral>  (737) 
nan

>  <Num_H_Atoms_ProtBoundConf>  (737) 
nan

>  <Num_Resolved_Atoms>  (737) 
nan

>  <Num_Not_Resolved_Atoms>  (737) 
nan

$$$$
CHEMBL4532652
     RDKit          3D

  0  0  0  0  0  0  0  0  0  0999 V3000
M  V30 BEGIN CTAB
M  V30 COUNTS 54 58 0 0 0
M  V30 BEGIN ATOM
M  V30 1 C 4.046773 -3.482124 5.573903 0
M  V30 2 N 3.847917 -2.415961 4.600880 0
M  V30 3 C 4.800252 -1.493751 4.380936 0
M  V30 4 C 4.343284 -0.628005 3.427518 0
M  V30 5 N 4.839207 0.526638 2.767145 0
M  V30 6 C 4.271456 1.367819 1.772418 0
M  V30 7 N 5.046493 2.411938 1.355990 0
M  V30 8 C 4.525433 3.214584 0.418279 0
M  V30 9 C 3.264421 2.974069 -0.084373 0
M  V30 10 C 2.487959 1.929147 0.331917 0
M  V30 11 C 1.164745 1.722235 -0.232302 0
M  V30 12 C 0.615257 2.537625 -1.196066 0
M  V30 13 C -0.639706 2.338061 -1.728398 0
M  V30 14 C -1.422015 1.296994 -1.318308 0
M  V30 15 C -0.926975 0.449503 -0.358783 0
M  V30 16 C 0.336139 0.688676 0.146050 0
M  V30 17 C -1.948091 -0.563342 -0.106250 0
M  V30 18 O -1.863535 -1.506211 0.703051 0
M  V30 19 N -3.067269 -0.310411 -0.931614 0
M  V30 20 C -4.289957 -1.122377 -0.950087 0
M  V30 21 C -4.981423 -1.072564 0.387894 0
M  V30 22 O -6.144745 -1.831279 0.334021 0
M  V30 23 C -3.882162 -2.483460 -1.324173 0
M  V30 24 C -3.032828 -2.475322 -2.437322 0
M  V30 25 C -2.523048 -3.670134 -2.958115 0
M  V30 26 C -2.826499 -4.897172 -2.410063 0
M  V30 27 C -3.667770 -4.898858 -1.308122 0
M  V30 28 Cl -4.168757 -6.354447 -0.473297 0
M  V30 29 C -4.166969 -3.721886 -0.798874 0
M  V30 30 C -2.784258 0.879310 -1.730627 0
M  V30 31 N 3.063268 1.160586 1.272041 0
M  V30 32 C 3.095121 -1.060210 3.087266 0
M  V30 33 N 2.818769 -2.157573 3.822726 0
M  V30 34 H 4.444913 -3.053802 6.515251 0
M  V30 35 H 3.088421 -4.036368 5.755998 0
M  V30 36 H 4.762954 -4.247072 5.186659 0
M  V30 37 H 5.792116 -1.342546 4.806930 0
M  V30 38 H 5.802433 0.719361 3.143687 0
M  V30 39 H 5.166643 4.037943 0.106511 0
M  V30 40 H 2.983527 3.699537 -0.826803 0
M  V30 41 H 1.154822 3.385918 -1.584349 0
M  V30 42 H -1.032487 3.005612 -2.485849 0
M  V30 43 H 0.649348 -0.020646 0.893312 0
M  V30 44 H -4.965111 -0.669035 -1.704060 0
M  V30 45 H -5.231703 0.009724 0.576645 0
M  V30 46 H -4.287365 -1.449144 1.192410 0
M  V30 47 H -6.710235 -1.585453 1.113045 0
M  V30 48 H -2.667741 -1.642125 -3.017985 0
M  V30 49 H -1.861801 -3.745195 -3.814750 0
M  V30 50 H -2.481449 -5.846037 -2.745438 0
M  V30 51 H -4.820735 -3.675636 0.057458 0
M  V30 52 H -2.876545 0.724200 -2.805064 0
M  V30 53 H -3.553035 1.633377 -1.411463 0
M  V30 54 H 2.303501 -0.778159 2.421295 0
M  V30 END ATOM
M  V30 BEGIN BOND
M  V30 1 1 1 2
M  V30 2 1 2 3
M  V30 3 2 3 4
M  V30 4 1 4 5
M  V30 5 1 5 6
M  V30 6 2 6 7
M  V30 7 1 7 8
M  V30 8 2 8 9
M  V30 9 1 9 10
M  V30 10 1 10 11
M  V30 11 2 11 12
M  V30 12 1 12 13
M  V30 13 2 13 14
M  V30 14 1 14 15
M  V30 15 2 15 16
M  V30 16 1 15 17
M  V30 17 2 17 18
M  V30 18 1 17 19
M  V30 19 1 19 20
M  V30 20 1 20 21
M  V30 21 1 21 22
M  V30 22 1 20 23
M  V30 23 2 23 24
M  V30 24 1 24 25
M  V30 25 2 25 26
M  V30 26 1 26 27
M  V30 27 1 27 28
M  V30 28 2 27 29
M  V30 29 1 19 30
M  V30 30 2 10 31
M  V30 31 1 4 32
M  V30 32 2 32 33
M  V30 33 1 33 2
M  V30 34 1 31 6
M  V30 35 1 16 11
M  V30 36 1 29 23
M  V30 37 1 30 14
M  V30 38 1 1 34
M  V30 39 1 1 35
M  V30 40 1 1 36
M  V30 41 1 3 37
M  V30 42 1 5 38
M  V30 43 1 8 39
M  V30 44 1 9 40
M  V30 45 1 12 41
M  V30 46 1 13 42
M  V30 47 1 16 43
M  V30 48 1 20 44
M  V30 49 1 21 45
M  V30 50 1 21 46
M  V30 51 1 22 47
M  V30 52 1 24 48
M  V30 53 1 25 49
M  V30 54 1 26 50
M  V30 55 1 29 51
M  V30 56 1 30 52
M  V30 57 1 30 53
M  V30 58 1 32 54
M  V30 END BOND
M  V30 END CTAB
M  END
>  <Dataset>  (738) 
ChEMBL_Kinases

>  <Ligand_Instance>  (738) 
nan

>  <PDB_ID>  (738) 
nan

>  <Standardized_SMILES>  (738) 
Cn1cc(Nc2nccc(-c3ccc4c(c3)C(=O)N(C(CO)c3cccc(Cl)c3)C4)n2)cn1

>  <Name>  (738) 
nan

>  <Pocket>  (738) 
nan

>  <ATP_Site>  (738) 
nan

>  <Peripheral>  (738) 
nan

>  <Num_H_Atoms_ProtBoundConf>  (738) 
nan

>  <Num_Resolved_Atoms>  (738) 
nan

>  <Num_Not_Resolved_Atoms>  (738) 
nan

$$$$
CHEMBL4532021
     RDKit          3D

  0  0  0  0  0  0  0  0  0  0999 V3000
M  V30 BEGIN CTAB
M  V30 COUNTS 39 41 0 0 0
M  V30 BEGIN ATOM
M  V30 1 C 0.399371 -4.293141 2.009123 0
M  V30 2 C 0.527752 -2.883493 1.461889 0
M  V30 3 C 1.804134 -2.327006 2.045083 0
M  V30 4 C 0.739062 -3.044916 -0.041349 0
M  V30 5 O -0.369668 -3.648143 -0.625117 0
M  V30 6 N -0.636616 -2.061304 1.754847 0
M  V30 7 C -0.675182 -0.720093 1.349137 0
M  V30 8 N 0.349658 -0.171977 0.694352 0
M  V30 9 C 0.373431 1.106899 0.282058 0
M  V30 10 C 1.523955 1.648869 -0.430662 0
M  V30 11 C 1.539722 2.955161 -0.846105 0
M  V30 12 C 2.674148 3.407739 -1.523068 0
M  V30 13 N 3.751161 2.636819 -1.790787 0
M  V30 14 C 3.729190 1.360057 -1.381643 0
M  V30 15 C 2.623829 0.863898 -0.704793 0
M  V30 16 N -0.683882 1.905138 0.529912 0
M  V30 17 C -1.777423 1.457495 1.185555 0
M  V30 18 C -2.849983 2.281465 1.432461 0
M  V30 19 N -3.918383 1.763945 2.098113 0
M  V30 20 C -3.932332 0.481880 2.506753 0
M  V30 21 C -2.844312 -0.326498 2.247672 0
M  V30 22 C -1.730866 0.136117 1.578019 0
M  V30 23 H 1.107747 -4.925684 1.437282 0
M  V30 24 H 0.726534 -4.319047 3.061877 0
M  V30 25 H -0.610074 -4.707301 1.857557 0
M  V30 26 H 2.544222 -3.164854 2.054030 0
M  V30 27 H 2.175957 -1.420906 1.567768 0
M  V30 28 H 1.590335 -2.146691 3.137871 0
M  V30 29 H 1.643444 -3.692896 -0.139119 0
M  V30 30 H 0.983599 -2.089669 -0.526808 0
M  V30 31 H -0.915438 -2.900780 -1.009645 0
M  V30 32 H -1.383398 -2.570815 2.270454 0
M  V30 33 H 0.708595 3.605834 -0.656920 0
M  V30 34 H 2.656698 4.460858 -1.843746 0
M  V30 35 H 4.614324 0.762924 -1.613052 0
M  V30 36 H 2.685863 -0.167199 -0.412231 0
M  V30 37 H -2.833162 3.308081 1.102577 0
M  V30 38 H -4.811647 0.132949 3.030442 0
M  V30 39 H -2.913401 -1.334521 2.596324 0
M  V30 END ATOM
M  V30 BEGIN BOND
M  V30 1 1 1 2
M  V30 2 1 2 3
M  V30 3 1 2 4
M  V30 4 1 4 5
M  V30 5 1 2 6
M  V30 6 1 6 7
M  V30 7 2 7 8
M  V30 8 1 8 9
M  V30 9 1 9 10
M  V30 10 2 10 11
M  V30 11 1 11 12
M  V30 12 2 12 13
M  V30 13 1 13 14
M  V30 14 2 14 15
M  V30 15 2 9 16
M  V30 16 1 16 17
M  V30 17 2 17 18
M  V30 18 1 18 19
M  V30 19 2 19 20
M  V30 20 1 20 21
M  V30 21 2 21 22
M  V30 22 1 22 7
M  V30 23 1 15 10
M  V30 24 1 22 17
M  V30 25 1 1 23
M  V30 26 1 1 24
M  V30 27 1 1 25
M  V30 28 1 3 26
M  V30 29 1 3 27
M  V30 30 1 3 28
M  V30 31 1 4 29
M  V30 32 1 4 30
M  V30 33 1 5 31
M  V30 34 1 6 32
M  V30 35 1 11 33
M  V30 36 1 12 34
M  V30 37 1 14 35
M  V30 38 1 15 36
M  V30 39 1 18 37
M  V30 40 1 20 38
M  V30 41 1 21 39
M  V30 END BOND
M  V30 END CTAB
M  END
>  <Dataset>  (739) 
ChEMBL_Kinases

>  <Ligand_Instance>  (739) 
nan

>  <PDB_ID>  (739) 
nan

>  <Standardized_SMILES>  (739) 
CC(C)(CO)Nc1nc(-c2ccncc2)nc2cnccc12

>  <Name>  (739) 
nan

>  <Pocket>  (739) 
nan

>  <ATP_Site>  (739) 
nan

>  <Peripheral>  (739) 
nan

>  <Num_H_Atoms_ProtBoundConf>  (739) 
nan

>  <Num_Resolved_Atoms>  (739) 
nan

>  <Num_Not_Resolved_Atoms>  (739) 
nan

$$$$
CHEMBL2313923
     RDKit          3D

  0  0  0  0  0  0  0  0  0  0999 V3000
M  V30 BEGIN CTAB
M  V30 COUNTS 35 38 0 0 0
M  V30 BEGIN ATOM
M  V30 1 C -0.349747 -5.524539 2.900635 0
M  V30 2 O 0.848324 -4.852977 3.231861 0
M  V30 3 C 1.242931 -3.669793 2.631062 0
M  V30 4 C 2.379355 -2.958710 2.893571 0
M  V30 5 C 2.784716 -1.794727 2.314204 0
M  V30 6 C 1.996282 -1.224962 1.347355 0
M  V30 7 C 0.825086 -1.987869 1.099450 0
M  V30 8 C 0.395420 -3.140209 1.653268 0
M  V30 9 S -0.065061 -1.005180 -0.235387 0
M  V30 10 C 1.267418 0.340030 -0.302297 0
M  V30 11 C 1.270676 1.480063 -1.121922 0
M  V30 12 N 0.157680 1.596418 -1.993142 0
M  V30 13 C -1.102395 1.887105 -1.405068 0
M  V30 14 C -1.201902 2.021251 -0.031276 0
M  V30 15 C -2.433886 2.299479 0.567757 0
M  V30 16 C -3.558743 2.439805 -0.237521 0
M  V30 17 F -4.747868 2.708545 0.366188 0
M  V30 18 C -3.524921 2.316232 -1.631647 0
M  V30 19 C -2.261740 2.041586 -2.114881 0
M  V30 20 F -2.167487 1.914074 -3.465864 0
M  V30 21 N 2.333212 2.272438 -0.955076 0
M  V30 22 C 3.245234 1.897156 -0.051363 0
M  V30 23 N 3.183066 0.806269 0.691875 0
M  V30 24 C 2.183458 -0.084320 0.640277 0
M  V30 25 H -1.234580 -4.840797 2.997765 0
M  V30 26 H -0.482633 -6.345536 3.638766 0
M  V30 27 H -0.379406 -5.949570 1.898345 0
M  V30 28 H 3.044306 -3.377325 3.664370 0
M  V30 29 H 3.713627 -1.340971 2.622810 0
M  V30 30 H -0.527082 -3.548253 1.314965 0
M  V30 31 H 0.186446 1.485087 -3.038831 0
M  V30 32 H -0.365812 1.922018 0.644378 0
M  V30 33 H -2.526109 2.404079 1.634169 0
M  V30 34 H -4.375088 2.421673 -2.258841 0
M  V30 35 H 4.141387 2.520978 0.119335 0
M  V30 END ATOM
M  V30 BEGIN BOND
M  V30 1 1 1 2
M  V30 2 1 2 3
M  V30 3 2 3 4
M  V30 4 1 4 5
M  V30 5 2 5 6
M  V30 6 1 6 7
M  V30 7 2 7 8
M  V30 8 1 7 9
M  V30 9 1 9 10
M  V30 10 2 10 11
M  V30 11 1 11 12
M  V30 12 1 12 13
M  V30 13 2 13 14
M  V30 14 1 14 15
M  V30 15 2 15 16
M  V30 16 1 16 17
M  V30 17 1 16 18
M  V30 18 2 18 19
M  V30 19 1 19 20
M  V30 20 1 11 21
M  V30 21 2 21 22
M  V30 22 1 22 23
M  V30 23 2 23 24
M  V30 24 1 8 3
M  V30 25 1 24 10
M  V30 26 1 24 6
M  V30 27 1 19 13
M  V30 28 1 1 25
M  V30 29 1 1 26
M  V30 30 1 1 27
M  V30 31 1 4 28
M  V30 32 1 5 29
M  V30 33 1 8 30
M  V30 34 1 12 31
M  V30 35 1 14 32
M  V30 36 1 15 33
M  V30 37 1 18 34
M  V30 38 1 22 35
M  V30 END BOND
M  V30 END CTAB
M  END
>  <Dataset>  (740) 
ChEMBL_Kinases

>  <Ligand_Instance>  (740) 
nan

>  <PDB_ID>  (740) 
nan

>  <Standardized_SMILES>  (740) 
COc1ccc2c(c1)sc1c(Nc3ccc(F)cc3F)ncnc12

>  <Name>  (740) 
nan

>  <Pocket>  (740) 
nan

>  <ATP_Site>  (740) 
nan

>  <Peripheral>  (740) 
nan

>  <Num_H_Atoms_ProtBoundConf>  (740) 
nan

>  <Num_Resolved_Atoms>  (740) 
nan

>  <Num_Not_Resolved_Atoms>  (740) 
nan

$$$$
CHEMBL4563423
     RDKit          3D

  0  0  0  0  0  0  0  0  0  0999 V3000
M  V30 BEGIN CTAB
M  V30 COUNTS 29 30 0 0 0
M  V30 BEGIN ATOM
M  V30 1 C 0.548840 -2.419630 3.495447 0
M  V30 2 O -0.258570 -1.256028 3.453782 0
M  V30 3 C -0.347453 -0.556611 2.259591 0
M  V30 4 C 0.307277 -0.929771 1.106397 0
M  V30 5 C 0.240818 -0.258060 -0.097108 0
M  V30 6 C 0.968107 -0.722675 -1.277095 0
M  V30 7 C 2.193519 -1.374850 -1.117684 0
M  V30 8 C 2.839207 -1.793797 -2.252834 0
M  V30 9 C 2.334820 -1.599829 -3.527437 0
M  V30 10 N 1.157205 -0.969770 -3.628088 0
M  V30 11 C 0.463384 -0.529215 -2.563190 0
M  V30 12 C -0.534651 0.880961 -0.181743 0
M  V30 13 C -1.227764 1.322592 0.941721 0
M  V30 14 C -1.100466 0.586057 2.099786 0
M  V30 15 C -1.858016 1.116587 3.222994 0
M  V30 16 N -1.856926 0.493754 4.487290 0
M  V30 17 O -2.620505 2.003455 3.634150 0
M  V30 18 H 1.627613 -2.227338 3.440005 0
M  V30 19 H 0.286939 -2.988322 4.432088 0
M  V30 20 H 0.238539 -3.062988 2.639072 0
M  V30 21 H 0.927881 -1.835969 1.166416 0
M  V30 22 H 2.619376 -1.544233 -0.135423 0
M  V30 23 H 3.802718 -2.307398 -2.163718 0
M  V30 24 H 2.877290 -1.946452 -4.398390 0
M  V30 25 H -0.478071 -0.026828 -2.651432 0
M  V30 26 H -0.588760 1.406531 -1.114487 0
M  V30 27 H -1.844216 2.208818 0.914475 0
M  V30 28 H -1.018485 0.232714 5.076001 0
M  V30 29 H -1.976752 0.045893 5.388105 0
M  V30 END ATOM
M  V30 BEGIN BOND
M  V30 1 1 1 2
M  V30 2 1 2 3
M  V30 3 2 3 4
M  V30 4 1 4 5
M  V30 5 1 5 6
M  V30 6 2 6 7
M  V30 7 1 7 8
M  V30 8 2 8 9
M  V30 9 1 9 10
M  V30 10 2 10 11
M  V30 11 2 5 12
M  V30 12 1 12 13
M  V30 13 2 13 14
M  V30 14 1 14 15
M  V30 15 1 15 16
M  V30 16 2 15 17
M  V30 17 1 14 3
M  V30 18 1 11 6
M  V30 19 1 1 18
M  V30 20 1 1 19
M  V30 21 1 1 20
M  V30 22 1 4 21
M  V30 23 1 7 22
M  V30 24 1 8 23
M  V30 25 1 9 24
M  V30 26 1 11 25
M  V30 27 1 12 26
M  V30 28 1 13 27
M  V30 29 1 16 28
M  V30 30 1 16 29
M  V30 END BOND
M  V30 END CTAB
M  END
>  <Dataset>  (741) 
ChEMBL_Kinases

>  <Ligand_Instance>  (741) 
nan

>  <PDB_ID>  (741) 
nan

>  <Standardized_SMILES>  (741) 
COc1cc(-c2cccnc2)ccc1C(N)=O

>  <Name>  (741) 
nan

>  <Pocket>  (741) 
nan

>  <ATP_Site>  (741) 
nan

>  <Peripheral>  (741) 
nan

>  <Num_H_Atoms_ProtBoundConf>  (741) 
nan

>  <Num_Resolved_Atoms>  (741) 
nan

>  <Num_Not_Resolved_Atoms>  (741) 
nan

$$$$
CHEMBL231210
     RDKit          3D

  0  0  0  0  0  0  0  0  0  0999 V3000
M  V30 BEGIN CTAB
M  V30 COUNTS 45 47 0 0 0
M  V30 BEGIN ATOM
M  V30 1 C -2.421490 -6.366264 0.415585 0
M  V30 2 N -1.745608 -6.506142 -0.831295 0
M  V30 3 S -1.865290 -5.159829 -1.863656 0
M  V30 4 O -1.029207 -5.477958 -3.095270 0
M  V30 5 O -3.263914 -4.817305 -2.235104 0
M  V30 6 C -1.134703 -3.776730 -1.072089 0
M  V30 7 C 0.208358 -3.469810 -1.220019 0
M  V30 8 C 0.803289 -2.383883 -0.604921 0
M  V30 9 C 0.019415 -1.562886 0.197968 0
M  V30 10 C 0.741775 -0.443202 0.801926 0
M  V30 11 C 0.215691 0.825899 0.809502 0
M  V30 12 C 0.872751 1.912832 1.373422 0
M  V30 13 C 0.264378 3.234365 1.350599 0
M  V30 14 C 1.132095 4.313830 1.288228 0
M  V30 15 C 0.692075 5.620108 1.260426 0
M  V30 16 C -0.671236 5.906688 1.294825 0
M  V30 17 C -1.515638 4.818345 1.356711 0
M  V30 18 C -1.089090 3.511477 1.384992 0
M  V30 19 C 2.107874 1.723634 1.954408 0
M  V30 20 C 2.669397 0.473690 1.968789 0
M  V30 21 C 3.954041 0.208786 2.558136 0
M  V30 22 N 4.725049 1.246402 3.168926 0
M  V30 23 O 4.547557 -0.898733 2.618784 0
M  V30 24 C 1.982133 -0.572259 1.398425 0
M  V30 25 O 2.547974 -1.856416 1.407521 0
M  V30 26 C -1.335975 -1.844539 0.367395 0
M  V30 27 C -1.893753 -2.938571 -0.263658 0
M  V30 28 H -2.068828 -7.119103 1.150639 0
M  V30 29 H -2.107916 -5.376512 0.862254 0
M  V30 30 H -3.518027 -6.351819 0.286967 0
M  V30 31 H -0.829371 -6.957192 -0.807898 0
M  V30 32 H 0.782152 -4.130130 -1.850261 0
M  V30 33 H 1.860567 -2.251034 -0.799324 0
M  V30 34 H -0.748047 1.018189 0.365740 0
M  V30 35 H 2.212661 4.148395 1.258986 0
M  V30 36 H 1.427417 6.427523 1.211010 0
M  V30 37 H -0.996641 6.933927 1.272310 0
M  V30 38 H -2.570857 5.008375 1.384321 0
M  V30 39 H -1.748747 2.666636 1.433113 0
M  V30 40 H 2.668458 2.515752 2.406667 0
M  V30 41 H 5.543876 1.864659 3.004563 0
M  V30 42 H 4.281754 1.414047 4.102420 0
M  V30 43 H 1.947754 -2.615768 1.754583 0
M  V30 44 H -1.880829 -1.164169 1.004117 0
M  V30 45 H -2.944488 -3.126307 -0.110618 0
M  V30 END ATOM
M  V30 BEGIN BOND
M  V30 1 1 1 2
M  V30 2 1 2 3
M  V30 3 2 3 4
M  V30 4 2 3 5
M  V30 5 1 3 6
M  V30 6 2 6 7
M  V30 7 1 7 8
M  V30 8 2 8 9
M  V30 9 1 9 10
M  V30 10 2 10 11
M  V30 11 1 11 12
M  V30 12 1 12 13
M  V30 13 2 13 14
M  V30 14 1 14 15
M  V30 15 2 15 16
M  V30 16 1 16 17
M  V30 17 2 17 18
M  V30 18 2 12 19
M  V30 19 1 19 20
M  V30 20 1 20 21
M  V30 21 1 21 22
M  V30 22 2 21 23
M  V30 23 2 20 24
M  V30 24 1 24 25
M  V30 25 1 9 26
M  V30 26 2 26 27
M  V30 27 1 27 6
M  V30 28 1 24 10
M  V30 29 1 18 13
M  V30 30 1 1 28
M  V30 31 1 1 29
M  V30 32 1 1 30
M  V30 33 1 2 31
M  V30 34 1 7 32
M  V30 35 1 8 33
M  V30 36 1 11 34
M  V30 37 1 14 35
M  V30 38 1 15 36
M  V30 39 1 16 37
M  V30 40 1 17 38
M  V30 41 1 18 39
M  V30 42 1 19 40
M  V30 43 1 22 41
M  V30 44 1 22 42
M  V30 45 1 25 43
M  V30 46 1 26 44
M  V30 47 1 27 45
M  V30 END BOND
M  V30 END CTAB
M  END
>  <Dataset>  (742) 
ChEMBL_Kinases

>  <Ligand_Instance>  (742) 
nan

>  <PDB_ID>  (742) 
nan

>  <Standardized_SMILES>  (742) 
CNS(=O)(=O)c1ccc(-c2cc(-c3ccccc3)cc(C(N)=O)c2O)cc1

>  <Name>  (742) 
nan

>  <Pocket>  (742) 
nan

>  <ATP_Site>  (742) 
nan

>  <Peripheral>  (742) 
nan

>  <Num_H_Atoms_ProtBoundConf>  (742) 
nan

>  <Num_Resolved_Atoms>  (742) 
nan

>  <Num_Not_Resolved_Atoms>  (742) 
nan

$$$$
CHEMBL231211
     RDKit          3D

  0  0  0  0  0  0  0  0  0  0999 V3000
M  V30 BEGIN CTAB
M  V30 COUNTS 47 49 0 0 0
M  V30 BEGIN ATOM
M  V30 1 C 4.775564 -0.571170 -3.632945 0
M  V30 2 N 5.284447 -0.779999 -2.300883 0
M  V30 3 C 5.281738 -2.146838 -1.871629 0
M  V30 4 S 4.563084 0.305540 -1.166421 0
M  V30 5 O 4.883109 1.703835 -1.613759 0
M  V30 6 O 5.179685 0.118940 0.181317 0
M  V30 7 C 2.827847 0.072726 -1.065394 0
M  V30 8 C 2.195899 -0.790597 -0.196291 0
M  V30 9 C 0.817988 -0.888760 -0.209376 0
M  V30 10 C 0.054480 -0.144641 -1.070607 0
M  V30 11 C -1.408747 -0.233793 -1.101084 0
M  V30 12 C -2.218477 -0.244412 -0.008762 0
M  V30 13 C -3.586037 -0.331628 -0.127112 0
M  V30 14 C -4.462550 -0.342828 1.054502 0
M  V30 15 C -5.730873 0.197358 0.976182 0
M  V30 16 C -6.573352 0.192831 2.091661 0
M  V30 17 N -6.160836 -0.340061 3.264681 0
M  V30 18 C -4.921233 -0.857981 3.308991 0
M  V30 19 C -4.023542 -0.891278 2.242868 0
M  V30 20 C -4.212595 -0.413531 -1.370506 0
M  V30 21 C -3.364095 -0.400595 -2.462219 0
M  V30 22 C -3.967543 -0.484457 -3.791161 0
M  V30 23 N -3.171773 -0.476950 -4.972312 0
M  V30 24 O -5.225765 -0.566316 -3.916948 0
M  V30 25 C -1.989736 -0.313914 -2.371935 0
M  V30 26 O -1.235776 -0.310093 -3.561222 0
M  V30 27 C 0.699128 0.726179 -1.946621 0
M  V30 28 C 2.082746 0.845601 -1.955697 0
M  V30 29 H 5.501600 -0.951472 -4.368520 0
M  V30 30 H 3.802419 -1.083199 -3.818160 0
M  V30 31 H 4.615820 0.520223 -3.760149 0
M  V30 32 H 4.898643 -2.843674 -2.654343 0
M  V30 33 H 4.669599 -2.331561 -0.964952 0
M  V30 34 H 6.320504 -2.516812 -1.633150 0
M  V30 35 H 2.832288 -1.362007 0.469512 0
M  V30 36 H 0.320816 -1.577836 0.484789 0
M  V30 37 H -1.763168 -0.182702 0.961513 0
M  V30 38 H -6.096629 0.638101 0.037797 0
M  V30 39 H -7.589455 0.616486 2.058250 0
M  V30 40 H -4.529279 -1.305586 4.234397 0
M  V30 41 H -3.043507 -1.321364 2.343853 0
M  V30 42 H -5.275138 -0.483571 -1.532577 0
M  V30 43 H -2.517265 0.119387 -5.553152 0
M  V30 44 H -2.534259 0.153779 -5.505160 0
M  V30 45 H -0.765617 -1.162432 -3.862137 0
M  V30 46 H 0.147105 1.340009 -2.650718 0
M  V30 47 H 2.540899 1.536396 -2.655004 0
M  V30 END ATOM
M  V30 BEGIN BOND
M  V30 1 1 1 2
M  V30 2 1 2 3
M  V30 3 1 2 4
M  V30 4 2 4 5
M  V30 5 2 4 6
M  V30 6 1 4 7
M  V30 7 2 7 8
M  V30 8 1 8 9
M  V30 9 2 9 10
M  V30 10 1 10 11
M  V30 11 2 11 12
M  V30 12 1 12 13
M  V30 13 1 13 14
M  V30 14 2 14 15
M  V30 15 1 15 16
M  V30 16 2 16 17
M  V30 17 1 17 18
M  V30 18 2 18 19
M  V30 19 2 13 20
M  V30 20 1 20 21
M  V30 21 1 21 22
M  V30 22 1 22 23
M  V30 23 2 22 24
M  V30 24 2 21 25
M  V30 25 1 25 26
M  V30 26 1 10 27
M  V30 27 2 27 28
M  V30 28 1 28 7
M  V30 29 1 25 11
M  V30 30 1 19 14
M  V30 31 1 1 29
M  V30 32 1 1 30
M  V30 33 1 1 31
M  V30 34 1 3 32
M  V30 35 1 3 33
M  V30 36 1 3 34
M  V30 37 1 8 35
M  V30 38 1 9 36
M  V30 39 1 12 37
M  V30 40 1 15 38
M  V30 41 1 16 39
M  V30 42 1 18 40
M  V30 43 1 19 41
M  V30 44 1 20 42
M  V30 45 1 23 43
M  V30 46 1 23 44
M  V30 47 1 26 45
M  V30 48 1 27 46
M  V30 49 1 28 47
M  V30 END BOND
M  V30 END CTAB
M  END
>  <Dataset>  (743) 
ChEMBL_Kinases

>  <Ligand_Instance>  (743) 
nan

>  <PDB_ID>  (743) 
nan

>  <Standardized_SMILES>  (743) 
CN(C)S(=O)(=O)c1ccc(-c2cc(-c3ccncc3)cc(C(N)=O)c2O)cc1

>  <Name>  (743) 
nan

>  <Pocket>  (743) 
nan

>  <ATP_Site>  (743) 
nan

>  <Peripheral>  (743) 
nan

>  <Num_H_Atoms_ProtBoundConf>  (743) 
nan

>  <Num_Resolved_Atoms>  (743) 
nan

>  <Num_Not_Resolved_Atoms>  (743) 
nan

$$$$
CHEMBL2312140
     RDKit          3D

  0  0  0  0  0  0  0  0  0  0999 V3000
M  V30 BEGIN CTAB
M  V30 COUNTS 57 60 0 0 0
M  V30 BEGIN ATOM
M  V30 1 C -1.696486 -0.259352 -0.366004 0
M  V30 2 O -1.480187 -1.661058 -0.407899 0
M  V30 3 C -0.886821 -2.251205 0.689038 0
M  V30 4 C -0.489388 -1.565881 1.822315 0
M  V30 5 C 0.102519 -2.153364 2.917551 0
M  V30 6 N 0.518741 -1.391930 4.060064 0
M  V30 7 C 0.266276 0.000291 3.928268 0
M  V30 8 N -0.639635 0.807077 4.533104 0
M  V30 9 C -0.736252 2.107479 4.256871 0
M  V30 10 C 0.105338 2.675806 3.324672 0
M  V30 11 Cl 0.029210 4.364448 2.921870 0
M  V30 12 C 1.038565 1.885660 2.689572 0
M  V30 13 C 1.986930 2.370069 1.658323 0
M  V30 14 C 3.306480 1.975922 1.696206 0
M  V30 15 C 4.160573 2.435379 0.716280 0
M  V30 16 C 3.752174 3.282301 -0.314335 0
M  V30 17 C 2.417990 3.677646 -0.347777 0
M  V30 18 C 1.899629 4.589292 -1.426536 0
M  V30 19 C 2.066761 5.945770 -0.969318 0
M  V30 20 N 2.192511 7.024122 -0.590575 0
M  V30 21 C 1.558217 3.213120 0.641510 0
M  V30 22 N 1.055864 0.582962 3.040143 0
M  V30 23 C 0.292640 -3.515917 2.839462 0
M  V30 24 C -0.082827 -4.269582 1.729969 0
M  V30 25 C -0.673824 -3.619159 0.657126 0
M  V30 26 N -1.009570 -4.473532 -0.452571 0
M  V30 27 C -0.309749 -4.179412 -1.710746 0
M  V30 28 C -1.313426 -3.843371 -2.753339 0
M  V30 29 N -2.641361 -4.269131 -2.553378 0
M  V30 30 C -3.680431 -3.320495 -2.740407 0
M  V30 31 C -2.894732 -5.385269 -1.731476 0
M  V30 32 C -1.907015 -5.598302 -0.619281 0
M  V30 33 H -2.174365 0.072622 0.582073 0
M  V30 34 H -0.710154 0.277902 -0.417694 0
M  V30 35 H -2.307000 0.120241 -1.203009 0
M  V30 36 H -0.666998 -0.513807 1.817412 0
M  V30 37 H 0.952948 -1.905358 4.856660 0
M  V30 38 H -1.482100 2.687614 4.778513 0
M  V30 39 H 3.701607 1.323404 2.456000 0
M  V30 40 H 5.205923 2.163048 0.688254 0
M  V30 41 H 4.427180 3.642227 -1.085067 0
M  V30 42 H 0.796228 4.360406 -1.496066 0
M  V30 43 H 2.370507 4.341356 -2.385966 0
M  V30 44 H 0.546637 3.545837 0.569704 0
M  V30 45 H 0.754937 -3.992595 3.690916 0
M  V30 46 H 0.110542 -5.335258 1.768185 0
M  V30 47 H 0.388056 -3.319581 -1.604846 0
M  V30 48 H 0.248289 -5.106886 -1.976352 0
M  V30 49 H -0.909813 -4.269023 -3.723376 0
M  V30 50 H -1.298606 -2.726155 -2.931987 0
M  V30 51 H -4.590911 -3.508585 -2.163178 0
M  V30 52 H -3.890016 -3.272041 -3.839267 0
M  V30 53 H -3.249549 -2.312082 -2.506545 0
M  V30 54 H -2.981557 -6.281071 -2.400929 0
M  V30 55 H -3.902426 -5.278202 -1.256564 0
M  V30 56 H -2.344926 -5.969512 0.316944 0
M  V30 57 H -1.241133 -6.438635 -0.981427 0
M  V30 END ATOM
M  V30 BEGIN BOND
M  V30 1 1 1 2
M  V30 2 1 2 3
M  V30 3 2 3 4
M  V30 4 1 4 5
M  V30 5 1 5 6
M  V30 6 1 6 7
M  V30 7 2 7 8
M  V30 8 1 8 9
M  V30 9 2 9 10
M  V30 10 1 10 11
M  V30 11 1 10 12
M  V30 12 1 12 13
M  V30 13 2 13 14
M  V30 14 1 14 15
M  V30 15 2 15 16
M  V30 16 1 16 17
M  V30 17 1 17 18
M  V30 18 1 18 19
M  V30 19 3 19 20
M  V30 20 2 17 21
M  V30 21 2 12 22
M  V30 22 2 5 23
M  V30 23 1 23 24
M  V30 24 2 24 25
M  V30 25 1 25 26
M  V30 26 1 26 27
M  V30 27 1 27 28
M  V30 28 1 28 29
M  V30 29 1 29 30
M  V30 30 1 29 31
M  V30 31 1 31 32
M  V30 32 1 25 3
M  V30 33 1 32 26
M  V30 34 1 22 7
M  V30 35 1 21 13
M  V30 36 1 1 33
M  V30 37 1 1 34
M  V30 38 1 1 35
M  V30 39 1 4 36
M  V30 40 1 6 37
M  V30 41 1 9 38
M  V30 42 1 14 39
M  V30 43 1 15 40
M  V30 44 1 16 41
M  V30 45 1 18 42
M  V30 46 1 18 43
M  V30 47 1 21 44
M  V30 48 1 23 45
M  V30 49 1 24 46
M  V30 50 1 27 47
M  V30 51 1 27 48
M  V30 52 1 28 49
M  V30 53 1 28 50
M  V30 54 1 30 51
M  V30 55 1 30 52
M  V30 56 1 30 53
M  V30 57 1 31 54
M  V30 58 1 31 55
M  V30 59 1 32 56
M  V30 60 1 32 57
M  V30 END BOND
M  V30 END CTAB
M  END
>  <Dataset>  (744) 
ChEMBL_Kinases

>  <Ligand_Instance>  (744) 
nan

>  <PDB_ID>  (744) 
nan

>  <Standardized_SMILES>  (744) 
COc1cc(Nc2ncc(Cl)c(-c3cccc(CC#N)c3)n2)ccc1N1CCN(C)CC1

>  <Name>  (744) 
nan

>  <Pocket>  (744) 
nan

>  <ATP_Site>  (744) 
nan

>  <Peripheral>  (744) 
nan

>  <Num_H_Atoms_ProtBoundConf>  (744) 
nan

>  <Num_Resolved_Atoms>  (744) 
nan

>  <Num_Not_Resolved_Atoms>  (744) 
nan

$$$$
CHEMBL3699750
     RDKit          3D

  0  0  0  0  0  0  0  0  0  0999 V3000
M  V30 BEGIN CTAB
M  V30 COUNTS 50 54 0 0 0
M  V30 BEGIN ATOM
M  V30 1 C 2.009783 -6.866216 3.303270 0
M  V30 2 C 2.028037 -5.540771 2.630982 0
M  V30 3 C 3.203203 -4.872792 2.278550 0
M  V30 4 C 3.200024 -3.630143 1.650277 0
M  V30 5 N 2.000080 -3.085386 1.390406 0
M  V30 6 C 1.670966 -1.897034 0.800753 0
M  V30 7 C 2.619796 -0.921933 0.287975 0
M  V30 8 C 2.866708 -0.604732 -1.016804 0
M  V30 9 C 3.799501 0.353912 -1.384118 0
M  V30 10 C 4.512502 1.019276 -0.382227 0
M  V30 11 C 4.269876 0.705214 0.940055 0
M  V30 12 C 3.322427 -0.266827 1.278157 0
M  V30 13 C 0.299670 -1.763132 0.754802 0
M  V30 14 C -0.567754 -0.702595 0.260773 0
M  V30 15 C -1.420051 -0.239727 1.278037 0
M  V30 16 C -2.328721 0.777403 1.017747 0
M  V30 17 C -2.441649 1.379105 -0.234692 0
M  V30 18 C -3.396416 2.454946 -0.589093 0
M  V30 19 N -3.755445 2.324099 -2.002481 0
M  V30 20 C -2.970418 3.852018 -0.229833 0
M  V30 21 C -4.277571 3.976207 0.539872 0
M  V30 22 C -4.664351 2.545967 0.210966 0
M  V30 23 C -1.580526 0.901534 -1.237223 0
M  V30 24 C -0.681561 -0.109479 -0.970050 0
M  V30 25 N -0.179013 -2.899257 1.329850 0
M  V30 26 C 0.841369 -3.685842 1.708197 0
M  V30 27 C 0.809280 -4.917783 2.330763 0
M  V30 28 Cl -0.705976 -5.676510 2.734445 0
M  V30 29 H 1.773625 -6.743659 4.391727 0
M  V30 30 H 2.934920 -7.402328 3.097009 0
M  V30 31 H 1.149953 -7.488639 2.922373 0
M  V30 32 H 4.142312 -5.336429 2.500814 0
M  V30 33 H 4.124318 -3.145063 1.394132 0
M  V30 34 H 2.297251 -1.145373 -1.758468 0
M  V30 35 H 3.917273 0.529709 -2.452878 0
M  V30 36 H 5.240724 1.770123 -0.705850 0
M  V30 37 H 4.875867 1.278867 1.641161 0
M  V30 38 H 3.251999 -0.394134 2.349012 0
M  V30 39 H -1.440018 -0.623164 2.310900 0
M  V30 40 H -2.980467 1.133200 1.816662 0
M  V30 41 H -3.898177 1.306706 -2.185923 0
M  V30 42 H -3.013102 2.681589 -2.620509 0
M  V30 43 H -2.980349 4.516289 -1.107390 0
M  V30 44 H -2.065535 3.939245 0.401395 0
M  V30 45 H -5.026139 4.666485 0.127779 0
M  V30 46 H -4.050967 4.144034 1.631120 0
M  V30 47 H -4.671104 1.854042 1.053906 0
M  V30 48 H -5.610274 2.453006 -0.364174 0
M  V30 49 H -1.562120 1.283963 -2.265646 0
M  V30 50 H 0.007764 -0.529428 -1.687242 0
M  V30 END ATOM
M  V30 BEGIN BOND
M  V30 1 1 1 2
M  V30 2 1 2 3
M  V30 3 2 3 4
M  V30 4 1 4 5
M  V30 5 1 5 6
M  V30 6 1 6 7
M  V30 7 2 7 8
M  V30 8 1 8 9
M  V30 9 2 9 10
M  V30 10 1 10 11
M  V30 11 2 11 12
M  V30 12 2 6 13
M  V30 13 1 13 14
M  V30 14 2 14 15
M  V30 15 1 15 16
M  V30 16 2 16 17
M  V30 17 1 17 18
M  V30 18 1 18 19
M  V30 19 1 18 20
M  V30 20 1 20 21
M  V30 21 1 21 22
M  V30 22 1 17 23
M  V30 23 2 23 24
M  V30 24 1 13 25
M  V30 25 2 25 26
M  V30 26 1 26 27
M  V30 27 1 27 28
M  V30 28 2 27 2
M  V30 29 1 26 5
M  V30 30 1 12 7
M  V30 31 1 24 14
M  V30 32 1 22 18
M  V30 33 1 1 29
M  V30 34 1 1 30
M  V30 35 1 1 31
M  V30 36 1 3 32
M  V30 37 1 4 33
M  V30 38 1 8 34
M  V30 39 1 9 35
M  V30 40 1 10 36
M  V30 41 1 11 37
M  V30 42 1 12 38
M  V30 43 1 15 39
M  V30 44 1 16 40
M  V30 45 1 19 41
M  V30 46 1 19 42
M  V30 47 1 20 43
M  V30 48 1 20 44
M  V30 49 1 21 45
M  V30 50 1 21 46
M  V30 51 1 22 47
M  V30 52 1 22 48
M  V30 53 1 23 49
M  V30 54 1 24 50
M  V30 END BOND
M  V30 END CTAB
M  END
>  <Dataset>  (745) 
ChEMBL_Kinases

>  <Ligand_Instance>  (745) 
nan

>  <PDB_ID>  (745) 
nan

>  <Standardized_SMILES>  (745) 
Cc1ccn2c(-c3ccccc3)c(-c3ccc(C4(N)CCC4)cc3)nc2c1Cl

>  <Name>  (745) 
nan

>  <Pocket>  (745) 
nan

>  <ATP_Site>  (745) 
nan

>  <Peripheral>  (745) 
nan

>  <Num_H_Atoms_ProtBoundConf>  (745) 
nan

>  <Num_Resolved_Atoms>  (745) 
nan

>  <Num_Not_Resolved_Atoms>  (745) 
nan

$$$$
CHEMBL3699749
     RDKit          3D

  0  0  0  0  0  0  0  0  0  0999 V3000
M  V30 BEGIN CTAB
M  V30 COUNTS 53 57 0 0 0
M  V30 BEGIN ATOM
M  V30 1 C 2.601771 -6.662784 1.715314 0
M  V30 2 C 2.398241 -5.206356 1.750067 0
M  V30 3 C 3.309813 -4.449269 2.456735 0
M  V30 4 C 3.185883 -3.074979 2.535725 0
M  V30 5 C 4.163140 -2.233353 3.297218 0
M  V30 6 C 2.114929 -2.494155 1.879715 0
M  V30 7 N 1.770841 -1.182303 1.802390 0
M  V30 8 C 0.636087 -1.090501 1.045300 0
M  V30 9 C -0.062412 0.149323 0.717441 0
M  V30 10 C 0.781717 1.009116 0.011206 0
M  V30 11 C 0.314253 2.261343 -0.406490 0
M  V30 12 C -0.975401 2.641559 -0.120178 0
M  V30 13 C -1.448632 3.975986 -0.573202 0
M  V30 14 N -0.803119 4.405313 -1.797519 0
M  V30 15 C -1.192132 5.053655 0.485861 0
M  V30 16 C -2.660482 4.982366 0.853499 0
M  V30 17 C -2.901079 4.247075 -0.446608 0
M  V30 18 C -1.786039 1.778695 0.575414 0
M  V30 19 C -1.354649 0.540187 0.999709 0
M  V30 20 C 0.284844 -2.366814 0.656289 0
M  V30 21 C -0.840292 -2.778495 -0.151571 0
M  V30 22 C -1.187342 -2.492249 -1.455650 0
M  V30 23 C -2.311128 -2.997833 -2.022805 0
M  V30 24 C -3.148352 -3.821648 -1.304422 0
M  V30 25 C -2.850450 -4.145455 0.014000 0
M  V30 26 C -1.687364 -3.614928 0.582654 0
M  V30 27 N 1.202332 -3.201492 1.178198 0
M  V30 28 C 1.360742 -4.544194 1.126294 0
M  V30 29 H 3.622620 -6.943230 1.357669 0
M  V30 30 H 2.585450 -7.018263 2.782559 0
M  V30 31 H 1.805293 -7.221336 1.207608 0
M  V30 32 H 4.146483 -4.905958 2.969062 0
M  V30 33 H 4.593182 -1.420432 2.687809 0
M  V30 34 H 3.637246 -1.752650 4.132685 0
M  V30 35 H 4.962670 -2.910338 3.651214 0
M  V30 36 H 1.817472 0.823610 -0.274741 0
M  V30 37 H 0.937804 2.951107 -0.953703 0
M  V30 38 H -1.300527 5.287700 -2.081343 0
M  V30 39 H 0.170150 4.745992 -1.546276 0
M  V30 40 H -0.915113 6.041231 0.095109 0
M  V30 41 H -0.495133 4.689816 1.253049 0
M  V30 42 H -2.796377 4.382772 1.767030 0
M  V30 43 H -3.129746 5.999498 0.879175 0
M  V30 44 H -3.609546 3.421675 -0.439843 0
M  V30 45 H -3.229300 4.978189 -1.239192 0
M  V30 46 H -2.800526 2.036590 0.819776 0
M  V30 47 H -1.895080 -0.196586 1.538918 0
M  V30 48 H -0.454476 -1.836137 -1.918274 0
M  V30 49 H -2.522164 -2.730991 -3.051879 0
M  V30 50 H -4.047503 -4.233155 -1.740267 0
M  V30 51 H -3.525371 -4.794371 0.554416 0
M  V30 52 H -1.556114 -3.939092 1.626829 0
M  V30 53 H 0.668955 -5.157433 0.585630 0
M  V30 END ATOM
M  V30 BEGIN BOND
M  V30 1 1 1 2
M  V30 2 1 2 3
M  V30 3 2 3 4
M  V30 4 1 4 5
M  V30 5 1 4 6
M  V30 6 2 6 7
M  V30 7 1 7 8
M  V30 8 1 8 9
M  V30 9 2 9 10
M  V30 10 1 10 11
M  V30 11 2 11 12
M  V30 12 1 12 13
M  V30 13 1 13 14
M  V30 14 1 13 15
M  V30 15 1 15 16
M  V30 16 1 16 17
M  V30 17 1 12 18
M  V30 18 2 18 19
M  V30 19 2 8 20
M  V30 20 1 20 21
M  V30 21 2 21 22
M  V30 22 1 22 23
M  V30 23 2 23 24
M  V30 24 1 24 25
M  V30 25 2 25 26
M  V30 26 1 20 27
M  V30 27 1 27 28
M  V30 28 2 28 2
M  V30 29 1 27 6
M  V30 30 1 19 9
M  V30 31 1 26 21
M  V30 32 1 17 13
M  V30 33 1 1 29
M  V30 34 1 1 30
M  V30 35 1 1 31
M  V30 36 1 3 32
M  V30 37 1 5 33
M  V30 38 1 5 34
M  V30 39 1 5 35
M  V30 40 1 10 36
M  V30 41 1 11 37
M  V30 42 1 14 38
M  V30 43 1 14 39
M  V30 44 1 15 40
M  V30 45 1 15 41
M  V30 46 1 16 42
M  V30 47 1 16 43
M  V30 48 1 17 44
M  V30 49 1 17 45
M  V30 50 1 18 46
M  V30 51 1 19 47
M  V30 52 1 22 48
M  V30 53 1 23 49
M  V30 54 1 24 50
M  V30 55 1 25 51
M  V30 56 1 26 52
M  V30 57 1 28 53
M  V30 END BOND
M  V30 END CTAB
M  END
>  <Dataset>  (746) 
ChEMBL_Kinases

>  <Ligand_Instance>  (746) 
nan

>  <PDB_ID>  (746) 
nan

>  <Standardized_SMILES>  (746) 
Cc1cc(C)c2nc(-c3ccc(C4(N)CCC4)cc3)c(-c3ccccc3)n2c1

>  <Name>  (746) 
nan

>  <Pocket>  (746) 
nan

>  <ATP_Site>  (746) 
nan

>  <Peripheral>  (746) 
nan

>  <Num_H_Atoms_ProtBoundConf>  (746) 
nan

>  <Num_Resolved_Atoms>  (746) 
nan

>  <Num_Not_Resolved_Atoms>  (746) 
nan

$$$$
CHEMBL3699748
     RDKit          3D

  0  0  0  0  0  0  0  0  0  0999 V3000
M  V30 BEGIN CTAB
M  V30 COUNTS 60 66 0 0 0
M  V30 BEGIN ATOM
M  V30 1 N 4.327431 -3.301257 2.657129 0
M  V30 2 C 4.042233 -3.489849 1.243945 0
M  V30 3 C 2.841108 -2.756009 0.826927 0
M  V30 4 C 2.607233 -1.827521 -0.161973 0
M  V30 5 C 1.361568 -1.271417 -0.359016 0
M  V30 6 C 0.302146 -1.648344 0.455221 0
M  V30 7 C -0.951363 -0.973988 0.131056 0
M  V30 8 N -0.995534 0.383485 0.279880 0
M  V30 9 C -2.204300 0.866169 -0.050361 0
M  V30 10 C -2.701574 2.154302 -0.054528 0
M  V30 11 C -1.865336 3.285378 0.351087 0
M  V30 12 C -1.822647 4.462010 -0.367573 0
M  V30 13 C -1.023826 5.521258 0.035736 0
M  V30 14 C -0.286886 5.329833 1.180084 0
M  V30 15 C 0.584326 6.188595 1.815805 0
M  V30 16 N 1.060080 5.541762 2.900420 0
M  V30 17 N 0.533949 4.337262 2.969696 0
M  V30 18 C -0.300372 4.182265 1.919847 0
M  V30 19 C -1.100313 3.134583 1.507371 0
M  V30 20 C -4.030369 2.323861 -0.460010 0
M  V30 21 C -4.748304 1.201484 -0.825421 0
M  V30 22 C -4.235115 -0.079780 -0.815334 0
M  V30 23 N -2.944398 -0.190535 -0.414948 0
M  V30 24 C -2.208099 -1.313000 -0.313316 0
M  V30 25 C -2.494875 -2.718919 -0.575229 0
M  V30 26 C -1.910448 -3.569567 -1.491020 0
M  V30 27 C -2.333445 -4.872811 -1.582501 0
M  V30 28 C -3.340459 -5.329952 -0.760551 0
M  V30 29 C -3.949845 -4.501998 0.171081 0
M  V30 30 C -3.501700 -3.186241 0.242669 0
M  V30 31 C 0.492927 -2.580332 1.463343 0
M  V30 32 C 1.767061 -3.132304 1.645359 0
M  V30 33 C 5.309089 -3.235942 0.459226 0
M  V30 34 C 4.963291 -4.456497 -0.373591 0
M  V30 35 C 4.089967 -4.913148 0.776503 0
M  V30 36 H 4.954867 -2.441954 2.699361 0
M  V30 37 H 3.466193 -3.015220 3.168730 0
M  V30 38 H 3.507854 -1.622475 -0.721524 0
M  V30 39 H 1.296815 -0.553920 -1.164968 0
M  V30 40 H -2.445189 4.494256 -1.248563 0
M  V30 41 H -1.009150 6.446969 -0.555460 0
M  V30 42 H 0.851631 7.196643 1.518723 0
M  V30 43 H 0.762394 3.662762 3.731096 0
M  V30 44 H -1.105712 2.236268 2.093576 0
M  V30 45 H -4.464592 3.326497 -0.478460 0
M  V30 46 H -5.778423 1.373307 -1.134705 0
M  V30 47 H -4.825547 -0.946154 -1.108839 0
M  V30 48 H -1.123981 -3.086442 -2.083175 0
M  V30 49 H -1.850958 -5.490328 -2.305350 0
M  V30 50 H -3.682127 -6.357496 -0.824627 0
M  V30 51 H -4.744708 -4.908575 0.801984 0
M  V30 52 H -4.044293 -2.615166 1.006918 0
M  V30 53 H -0.374537 -2.811651 2.040973 0
M  V30 54 H 1.743953 -3.843551 2.474044 0
M  V30 55 H 6.245630 -3.357721 1.046721 0
M  V30 56 H 5.318924 -2.354286 -0.201653 0
M  V30 57 H 5.844381 -5.135552 -0.437125 0
M  V30 58 H 4.426260 -4.254053 -1.320654 0
M  V30 59 H 3.091843 -5.212102 0.371428 0
M  V30 60 H 4.561942 -5.637855 1.469400 0
M  V30 END ATOM
M  V30 BEGIN BOND
M  V30 1 1 1 2
M  V30 2 1 2 3
M  V30 3 2 3 4
M  V30 4 1 4 5
M  V30 5 2 5 6
M  V30 6 1 6 7
M  V30 7 1 7 8
M  V30 8 2 8 9
M  V30 9 1 9 10
M  V30 10 1 10 11
M  V30 11 2 11 12
M  V30 12 1 12 13
M  V30 13 2 13 14
M  V30 14 1 14 15
M  V30 15 2 15 16
M  V30 16 1 16 17
M  V30 17 1 17 18
M  V30 18 2 18 19
M  V30 19 2 10 20
M  V30 20 1 20 21
M  V30 21 2 21 22
M  V30 22 1 22 23
M  V30 23 1 23 24
M  V30 24 1 24 25
M  V30 25 2 25 26
M  V30 26 1 26 27
M  V30 27 2 27 28
M  V30 28 1 28 29
M  V30 29 2 29 30
M  V30 30 1 6 31
M  V30 31 2 31 32
M  V30 32 1 2 33
M  V30 33 1 33 34
M  V30 34 1 34 35
M  V30 35 1 35 2
M  V30 36 1 32 3
M  V30 37 2 24 7
M  V30 38 1 30 25
M  V30 39 1 23 9
M  V30 40 1 19 11
M  V30 41 1 18 14
M  V30 42 1 1 36
M  V30 43 1 1 37
M  V30 44 1 4 38
M  V30 45 1 5 39
M  V30 46 1 12 40
M  V30 47 1 13 41
M  V30 48 1 15 42
M  V30 49 1 17 43
M  V30 50 1 19 44
M  V30 51 1 20 45
M  V30 52 1 21 46
M  V30 53 1 22 47
M  V30 54 1 26 48
M  V30 55 1 27 49
M  V30 56 1 28 50
M  V30 57 1 29 51
M  V30 58 1 30 52
M  V30 59 1 31 53
M  V30 60 1 32 54
M  V30 61 1 33 55
M  V30 62 1 33 56
M  V30 63 1 34 57
M  V30 64 1 34 58
M  V30 65 1 35 59
M  V30 66 1 35 60
M  V30 END BOND
M  V30 END CTAB
M  END
>  <Dataset>  (747) 
ChEMBL_Kinases

>  <Ligand_Instance>  (747) 
nan

>  <PDB_ID>  (747) 
nan

>  <Standardized_SMILES>  (747) 
NC1(c2ccc(-c3nc4c(-c5ccc6cn[nH]c6c5)cccn4c3-c3ccccc3)cc2)CCC1

>  <Name>  (747) 
nan

>  <Pocket>  (747) 
nan

>  <ATP_Site>  (747) 
nan

>  <Peripheral>  (747) 
nan

>  <Num_H_Atoms_ProtBoundConf>  (747) 
nan

>  <Num_Resolved_Atoms>  (747) 
nan

>  <Num_Not_Resolved_Atoms>  (747) 
nan

$$$$
CHEMBL3699747
     RDKit          3D

  0  0  0  0  0  0  0  0  0  0999 V3000
M  V30 BEGIN CTAB
M  V30 COUNTS 54 59 0 0 0
M  V30 BEGIN ATOM
M  V30 1 N -0.296051 -5.746641 2.255405 0
M  V30 2 C -0.144828 -5.466068 0.836949 0
M  V30 3 C -0.170344 -4.010772 0.571094 0
M  V30 4 C 0.458752 -3.243097 1.561542 0
M  V30 5 C 0.565931 -1.867891 1.536818 0
M  V30 6 C 0.015119 -1.182093 0.458406 0
M  V30 7 C 0.136769 0.271002 0.447098 0
M  V30 8 N 1.333423 0.907003 0.413156 0
M  V30 9 C 1.079333 2.228590 0.412148 0
M  V30 10 C 1.900509 3.336384 0.385609 0
M  V30 11 C 3.351832 3.204673 0.347537 0
M  V30 12 C 4.055593 2.021730 0.330639 0
M  V30 13 C 5.394059 2.357567 0.293867 0
M  V30 14 N 5.460958 3.698709 0.289731 0
M  V30 15 N 4.239237 4.235200 0.321773 0
M  V30 16 C 1.317382 4.587070 0.394063 0
M  V30 17 C -0.069126 4.769540 0.428298 0
M  V30 18 C -0.816590 3.615699 0.453052 0
M  V30 19 N -0.245031 2.399970 0.444773 0
M  V30 20 C -0.869068 1.213456 0.467171 0
M  V30 21 C -2.310711 0.947431 0.504043 0
M  V30 22 C -2.858951 0.281286 1.584412 0
M  V30 23 C -4.184016 -0.046667 1.776488 0
M  V30 24 C -5.042641 0.351990 0.747766 0
M  V30 25 C -4.552007 1.020727 -0.356105 0
M  V30 26 C -3.200834 1.326275 -0.497517 0
M  V30 27 C -0.607616 -1.920038 -0.525719 0
M  V30 28 C -0.701939 -3.294447 -0.478642 0
M  V30 29 C 1.033417 -6.198958 0.240866 0
M  V30 30 C 0.127023 -6.543274 -0.946966 0
M  V30 31 C -1.059451 -6.268358 -0.046879 0
M  V30 32 H -0.842779 -4.989835 2.713815 0
M  V30 33 H 0.648975 -5.882275 2.653632 0
M  V30 34 H 0.921104 -3.695315 2.447044 0
M  V30 35 H 1.054398 -1.306927 2.311308 0
M  V30 36 H 3.710091 1.010444 0.341829 0
M  V30 37 H 6.281458 1.766192 0.270659 0
M  V30 38 H 3.990877 5.253274 0.326639 0
M  V30 39 H 1.900296 5.503554 0.374664 0
M  V30 40 H -0.485576 5.772542 0.433883 0
M  V30 41 H -1.889660 3.740153 0.479475 0
M  V30 42 H -2.182929 -0.023549 2.377604 0
M  V30 43 H -4.504363 -0.570033 2.660508 0
M  V30 44 H -6.088690 0.103709 0.879721 0
M  V30 45 H -5.239865 1.319289 -1.141131 0
M  V30 46 H -2.806460 1.844529 -1.348649 0
M  V30 47 H -1.034929 -1.408490 -1.359202 0
M  V30 48 H -1.173363 -3.884935 -1.225857 0
M  V30 49 H 1.301859 -7.142893 0.758235 0
M  V30 50 H 1.920702 -5.615076 0.006742 0
M  V30 51 H 0.146908 -7.608010 -1.242294 0
M  V30 52 H 0.220382 -5.858784 -1.807675 0
M  V30 53 H -1.489205 -7.177237 0.427985 0
M  V30 54 H -1.808401 -5.659777 -0.581111 0
M  V30 END ATOM
M  V30 BEGIN BOND
M  V30 1 1 1 2
M  V30 2 1 2 3
M  V30 3 2 3 4
M  V30 4 1 4 5
M  V30 5 2 5 6
M  V30 6 1 6 7
M  V30 7 1 7 8
M  V30 8 2 8 9
M  V30 9 1 9 10
M  V30 10 1 10 11
M  V30 11 2 11 12
M  V30 12 1 12 13
M  V30 13 2 13 14
M  V30 14 1 14 15
M  V30 15 2 10 16
M  V30 16 1 16 17
M  V30 17 2 17 18
M  V30 18 1 18 19
M  V30 19 1 19 20
M  V30 20 1 20 21
M  V30 21 2 21 22
M  V30 22 1 22 23
M  V30 23 2 23 24
M  V30 24 1 24 25
M  V30 25 2 25 26
M  V30 26 1 6 27
M  V30 27 2 27 28
M  V30 28 1 2 29
M  V30 29 1 29 30
M  V30 30 1 30 31
M  V30 31 1 31 2
M  V30 32 1 28 3
M  V30 33 2 20 7
M  V30 34 1 26 21
M  V30 35 1 19 9
M  V30 36 1 15 11
M  V30 37 1 1 32
M  V30 38 1 1 33
M  V30 39 1 4 34
M  V30 40 1 5 35
M  V30 41 1 12 36
M  V30 42 1 13 37
M  V30 43 1 15 38
M  V30 44 1 16 39
M  V30 45 1 17 40
M  V30 46 1 18 41
M  V30 47 1 22 42
M  V30 48 1 23 43
M  V30 49 1 24 44
M  V30 50 1 25 45
M  V30 51 1 26 46
M  V30 52 1 27 47
M  V30 53 1 28 48
M  V30 54 1 29 49
M  V30 55 1 29 50
M  V30 56 1 30 51
M  V30 57 1 30 52
M  V30 58 1 31 53
M  V30 59 1 31 54
M  V30 END BOND
M  V30 END CTAB
M  END
>  <Dataset>  (748) 
ChEMBL_Kinases

>  <Ligand_Instance>  (748) 
nan

>  <PDB_ID>  (748) 
nan

>  <Standardized_SMILES>  (748) 
NC1(c2ccc(-c3nc4c(-c5ccn[nH]5)cccn4c3-c3ccccc3)cc2)CCC1

>  <Name>  (748) 
nan

>  <Pocket>  (748) 
nan

>  <ATP_Site>  (748) 
nan

>  <Peripheral>  (748) 
nan

>  <Num_H_Atoms_ProtBoundConf>  (748) 
nan

>  <Num_Resolved_Atoms>  (748) 
nan

>  <Num_Not_Resolved_Atoms>  (748) 
nan

$$$$
CHEMBL2313885
     RDKit          3D

  0  0  0  0  0  0  0  0  0  0999 V3000
M  V30 BEGIN CTAB
M  V30 COUNTS 38 42 0 0 0
M  V30 BEGIN ATOM
M  V30 1 C 2.088331 -6.778423 -0.473763 0
M  V30 2 O 2.169067 -5.390281 -0.736974 0
M  V30 3 C 1.149413 -4.501770 -0.433000 0
M  V30 4 C 0.009356 -5.015910 0.153557 0
M  V30 5 C -0.989585 -4.109233 0.445632 0
M  V30 6 C -0.809862 -2.770479 0.147517 0
M  V30 7 C 0.343206 -2.268439 -0.442905 0
M  V30 8 C 1.356604 -3.173573 -0.741573 0
M  V30 9 O 0.184286 -0.953914 -0.587812 0
M  V30 10 C -1.015197 -0.626165 -0.112386 0
M  V30 11 C -1.553366 0.643736 -0.081723 0
M  V30 12 N -0.949155 1.844022 -0.548746 0
M  V30 13 C -0.096984 2.635947 0.286981 0
M  V30 14 C 0.453953 3.816777 -0.172119 0
M  V30 15 C 1.288881 4.586622 0.642442 0
M  V30 16 C 1.568846 4.151488 1.942139 0
M  V30 17 C 0.992519 2.951393 2.370207 0
M  V30 18 C 0.166911 2.184150 1.574083 0
M  V30 19 O 1.436157 2.761306 3.690327 0
M  V30 20 C 1.890078 4.023396 4.197862 0
M  V30 21 O 2.334325 4.641100 3.008012 0
M  V30 22 N -2.793791 0.708138 0.455677 0
M  V30 23 C -3.465241 -0.356344 0.925780 0
M  V30 24 N -2.931176 -1.589929 0.890851 0
M  V30 25 C -1.700494 -1.721605 0.368737 0
M  V30 26 H 1.156102 -7.244521 -0.881679 0
M  V30 27 H 2.933696 -7.282151 -0.982629 0
M  V30 28 H 2.085704 -6.998946 0.615915 0
M  V30 29 H -0.114089 -6.062137 0.379090 0
M  V30 30 H -1.894732 -4.467316 0.903254 0
M  V30 31 H 2.266471 -2.813783 -1.201768 0
M  V30 32 H -1.122268 2.169469 -1.524670 0
M  V30 33 H 0.253304 4.183573 -1.184845 0
M  V30 34 H 1.736430 5.520011 0.307439 0
M  V30 35 H -0.255801 1.262972 1.948803 0
M  V30 36 H 2.689558 3.802525 4.913891 0
M  V30 37 H 1.057307 4.575651 4.694903 0
M  V30 38 H -4.444044 -0.158491 1.325673 0
M  V30 END ATOM
M  V30 BEGIN BOND
M  V30 1 1 1 2
M  V30 2 1 2 3
M  V30 3 2 3 4
M  V30 4 1 4 5
M  V30 5 2 5 6
M  V30 6 1 6 7
M  V30 7 2 7 8
M  V30 8 1 7 9
M  V30 9 1 9 10
M  V30 10 2 10 11
M  V30 11 1 11 12
M  V30 12 1 12 13
M  V30 13 2 13 14
M  V30 14 1 14 15
M  V30 15 2 15 16
M  V30 16 1 16 17
M  V30 17 2 17 18
M  V30 18 1 17 19
M  V30 19 1 19 20
M  V30 20 1 20 21
M  V30 21 1 11 22
M  V30 22 2 22 23
M  V30 23 1 23 24
M  V30 24 2 24 25
M  V30 25 1 8 3
M  V30 26 1 25 10
M  V30 27 1 25 6
M  V30 28 1 18 13
M  V30 29 1 21 16
M  V30 30 1 1 26
M  V30 31 1 1 27
M  V30 32 1 1 28
M  V30 33 1 4 29
M  V30 34 1 5 30
M  V30 35 1 8 31
M  V30 36 1 12 32
M  V30 37 1 14 33
M  V30 38 1 15 34
M  V30 39 1 18 35
M  V30 40 1 20 36
M  V30 41 1 20 37
M  V30 42 1 23 38
M  V30 END BOND
M  V30 END CTAB
M  END
>  <Dataset>  (749) 
ChEMBL_Kinases

>  <Ligand_Instance>  (749) 
nan

>  <PDB_ID>  (749) 
nan

>  <Standardized_SMILES>  (749) 
COc1ccc2c(c1)oc1c(Nc3ccc4c(c3)OCO4)ncnc12

>  <Name>  (749) 
nan

>  <Pocket>  (749) 
nan

>  <ATP_Site>  (749) 
nan

>  <Peripheral>  (749) 
nan

>  <Num_H_Atoms_ProtBoundConf>  (749) 
nan

>  <Num_Resolved_Atoms>  (749) 
nan

>  <Num_Not_Resolved_Atoms>  (749) 
nan

$$$$
CHEMBL3699746
     RDKit          3D

  0  0  0  0  0  0  0  0  0  0999 V3000
M  V30 BEGIN CTAB
M  V30 COUNTS 60 65 0 0 0
M  V30 BEGIN ATOM
M  V30 1 C 3.549675 -2.894762 3.153301 0
M  V30 2 O 4.658585 -2.053824 2.948841 0
M  V30 3 C 4.584701 -0.699443 2.741994 0
M  V30 4 C 5.823287 -0.072743 2.562006 0
M  V30 5 N 5.831379 1.259613 2.353325 0
M  V30 6 C 4.686338 1.965484 2.319029 0
M  V30 7 C 3.437396 1.402688 2.489720 0
M  V30 8 C 2.188794 2.156366 2.453626 0
M  V30 9 C 1.956084 3.374008 3.084376 0
M  V30 10 C 0.718082 3.978900 2.964713 0
M  V30 11 C -0.309882 3.414168 2.233649 0
M  V30 12 N -0.048238 2.234614 1.636537 0
M  V30 13 C -0.874141 1.483798 0.872844 0
M  V30 14 C -2.253051 1.693455 0.464371 0
M  V30 15 C -3.100859 1.665534 1.581894 0
M  V30 16 C -4.467933 1.841307 1.461260 0
M  V30 17 C -4.976442 2.047887 0.186189 0
M  V30 18 C -4.159825 2.076566 -0.907541 0
M  V30 19 C -2.814107 1.902518 -0.777444 0
M  V30 20 C -0.180153 0.356487 0.473236 0
M  V30 21 C -0.464300 -0.801349 -0.323593 0
M  V30 22 C -0.745206 -0.896578 -1.669285 0
M  V30 23 C -1.004090 -2.095023 -2.297475 0
M  V30 24 C -0.991876 -3.286482 -1.580319 0
M  V30 25 C -1.290366 -4.465794 -2.416513 0
M  V30 26 N -0.684585 -4.438706 -3.742170 0
M  V30 27 C -2.743624 -4.856619 -2.534835 0
M  V30 28 C -2.249505 -6.307311 -2.606616 0
M  V30 29 C -1.043876 -5.818154 -1.793015 0
M  V30 30 C -0.714258 -3.230052 -0.229255 0
M  V30 31 C -0.458288 -2.016359 0.375767 0
M  V30 32 N 1.058875 0.453188 1.009186 0
M  V30 33 C 1.138563 1.594200 1.715568 0
M  V30 34 C 3.416230 0.031814 2.705222 0
M  V30 35 H 3.367715 -2.894730 4.259669 0
M  V30 36 H 2.661700 -2.487608 2.629285 0
M  V30 37 H 3.742088 -3.934807 2.878191 0
M  V30 38 H 6.783971 -0.587196 2.578519 0
M  V30 39 H 4.752636 3.029574 2.148608 0
M  V30 40 H 2.792778 3.778982 3.646696 0
M  V30 41 H 0.591967 4.932007 3.480397 0
M  V30 42 H -1.277862 3.904631 2.149172 0
M  V30 43 H -2.800285 1.508831 2.629996 0
M  V30 44 H -5.154576 1.826672 2.295303 0
M  V30 45 H -6.048996 2.192888 0.023466 0
M  V30 46 H -4.529085 2.237036 -1.932467 0
M  V30 47 H -2.088612 1.907638 -1.546818 0
M  V30 48 H -0.743156 0.044882 -2.187369 0
M  V30 49 H -1.208981 -2.009795 -3.363324 0
M  V30 50 H -1.303111 -3.934830 -4.423893 0
M  V30 51 H 0.254203 -3.969219 -3.679531 0
M  V30 52 H -3.388203 -4.685493 -1.674482 0
M  V30 53 H -3.200034 -4.602570 -3.522902 0
M  V30 54 H -2.889607 -7.042346 -2.114791 0
M  V30 55 H -1.977935 -6.633849 -3.631837 0
M  V30 56 H -1.288458 -5.923089 -0.718974 0
M  V30 57 H -0.077327 -6.249880 -2.104510 0
M  V30 58 H -0.721924 -4.175154 0.256311 0
M  V30 59 H -0.255243 -2.110377 1.437314 0
M  V30 60 H 2.489625 -0.466556 2.844249 0
M  V30 END ATOM
M  V30 BEGIN BOND
M  V30 1 1 1 2
M  V30 2 1 2 3
M  V30 3 2 3 4
M  V30 4 1 4 5
M  V30 5 2 5 6
M  V30 6 1 6 7
M  V30 7 1 7 8
M  V30 8 2 8 9
M  V30 9 1 9 10
M  V30 10 2 10 11
M  V30 11 1 11 12
M  V30 12 1 12 13
M  V30 13 1 13 14
M  V30 14 2 14 15
M  V30 15 1 15 16
M  V30 16 2 16 17
M  V30 17 1 17 18
M  V30 18 2 18 19
M  V30 19 2 13 20
M  V30 20 1 20 21
M  V30 21 2 21 22
M  V30 22 1 22 23
M  V30 23 2 23 24
M  V30 24 1 24 25
M  V30 25 1 25 26
M  V30 26 1 25 27
M  V30 27 1 27 28
M  V30 28 1 28 29
M  V30 29 1 24 30
M  V30 30 2 30 31
M  V30 31 1 20 32
M  V30 32 2 32 33
M  V30 33 2 7 34
M  V30 34 1 34 3
M  V30 35 1 33 8
M  V30 36 1 33 12
M  V30 37 1 19 14
M  V30 38 1 31 21
M  V30 39 1 29 25
M  V30 40 1 1 35
M  V30 41 1 1 36
M  V30 42 1 1 37
M  V30 43 1 4 38
M  V30 44 1 6 39
M  V30 45 1 9 40
M  V30 46 1 10 41
M  V30 47 1 11 42
M  V30 48 1 15 43
M  V30 49 1 16 44
M  V30 50 1 17 45
M  V30 51 1 18 46
M  V30 52 1 19 47
M  V30 53 1 22 48
M  V30 54 1 23 49
M  V30 55 1 26 50
M  V30 56 1 26 51
M  V30 57 1 27 52
M  V30 58 1 27 53
M  V30 59 1 28 54
M  V30 60 1 28 55
M  V30 61 1 29 56
M  V30 62 1 29 57
M  V30 63 1 30 58
M  V30 64 1 31 59
M  V30 65 1 34 60
M  V30 END BOND
M  V30 END CTAB
M  END
>  <Dataset>  (750) 
ChEMBL_Kinases

>  <Ligand_Instance>  (750) 
nan

>  <PDB_ID>  (750) 
nan

>  <Standardized_SMILES>  (750) 
COc1cncc(-c2cccn3c(-c4ccccc4)c(-c4ccc(C5(N)CCC5)cc4)nc23)c1

>  <Name>  (750) 
nan

>  <Pocket>  (750) 
nan

>  <ATP_Site>  (750) 
nan

>  <Peripheral>  (750) 
nan

>  <Num_H_Atoms_ProtBoundConf>  (750) 
nan

>  <Num_Resolved_Atoms>  (750) 
nan

>  <Num_Not_Resolved_Atoms>  (750) 
nan

$$$$
CHEMBL2312290
     RDKit          3D

  0  0  0  0  0  0  0  0  0  0999 V3000
M  V30 BEGIN CTAB
M  V30 COUNTS 75 78 0 0 0
M  V30 BEGIN ATOM
M  V30 1 C 3.571485 0.388688 8.217830 0
M  V30 2 O 4.124559 0.778587 6.977477 0
M  V30 3 C 3.369328 1.493110 6.057686 0
M  V30 4 C 2.042933 1.857926 6.307563 0
M  V30 5 C 1.268898 2.569059 5.409430 0
M  V30 6 C 1.844812 2.932581 4.207378 0
M  V30 7 C 1.115214 3.707958 3.141687 0
M  V30 8 C 0.460885 2.657953 2.257560 0
M  V30 9 N -0.292316 3.231381 1.165449 0
M  V30 10 C -0.852771 2.167094 0.412191 0
M  V30 11 N -2.057969 1.610076 0.627772 0
M  V30 12 C -2.544343 0.606904 -0.109537 0
M  V30 13 C -1.788493 0.109750 -1.141176 0
M  V30 14 C -2.321977 -0.979982 -1.938839 0
M  V30 15 O -1.911001 -1.640927 -2.914880 0
M  V30 16 N -3.603487 -1.525537 -1.658317 0
M  V30 17 C -4.016439 -2.625031 -2.547408 0
M  V30 18 C -5.369505 -3.124113 -2.166954 0
M  V30 19 C -5.774855 -4.237906 -3.083064 0
M  V30 20 N -4.903703 -5.381059 -3.071029 0
M  V30 21 C -3.725181 -5.810116 -3.820410 0
M  V30 22 C -2.856149 -6.450020 -2.781527 0
M  V30 23 C -3.843229 -7.179780 -1.905346 0
M  V30 24 C -5.121961 -6.468303 -2.149175 0
M  V30 25 O -6.147185 -6.884492 -1.558185 0
M  V30 26 C -0.550926 0.661422 -1.384073 0
M  V30 27 N 0.286478 0.213292 -2.432319 0
M  V30 28 C 1.588827 0.800569 -2.656674 0
M  V30 29 C 2.453528 0.518865 -1.470396 0
M  V30 30 C 3.205206 -0.757474 -1.782209 0
M  V30 31 C 3.184220 -0.896892 -3.269089 0
M  V30 32 C 2.343907 0.233745 -3.807842 0
M  V30 33 N -0.127436 1.667606 -0.601529 0
M  V30 34 C 3.142853 2.577281 3.959260 0
M  V30 35 C 3.930812 1.863348 4.852582 0
M  V30 36 O 5.243838 1.495176 4.620113 0
M  V30 37 C 5.989928 1.769733 3.474241 0
M  V30 38 H 3.521155 1.255521 8.887815 0
M  V30 39 H 4.137025 -0.479406 8.652219 0
M  V30 40 H 2.531053 -0.007321 8.064864 0
M  V30 41 H 1.574365 1.588796 7.229709 0
M  V30 42 H 0.253559 2.848664 5.600060 0
M  V30 43 H 0.295476 4.248689 3.662655 0
M  V30 44 H 1.809160 4.352868 2.584165 0
M  V30 45 H -0.213675 2.091541 2.938841 0
M  V30 46 H 1.208850 1.901253 1.917805 0
M  V30 47 H -0.378234 4.274068 1.001855 0
M  V30 48 H -3.506567 0.300120 0.208548 0
M  V30 49 H -4.248679 -1.197398 -0.877909 0
M  V30 50 H -3.940007 -2.260178 -3.571194 0
M  V30 51 H -3.306497 -3.471921 -2.432192 0
M  V30 52 H -6.099198 -2.293868 -2.319900 0
M  V30 53 H -5.388734 -3.432565 -1.102264 0
M  V30 54 H -6.811698 -4.586935 -2.904756 0
M  V30 55 H -5.784463 -3.866957 -4.141660 0
M  V30 56 H -4.049608 -6.531040 -4.607112 0
M  V30 57 H -3.203009 -4.961118 -4.294865 0
M  V30 58 H -2.101897 -7.137929 -3.222277 0
M  V30 59 H -2.402932 -5.665934 -2.158189 0
M  V30 60 H -3.568507 -7.066865 -0.831169 0
M  V30 61 H -3.925814 -8.256277 -2.138970 0
M  V30 62 H 0.079684 -0.539676 -3.119324 0
M  V30 63 H 1.508523 1.910546 -2.803108 0
M  V30 64 H 1.869925 0.443904 -0.546856 0
M  V30 65 H 3.137738 1.380614 -1.337202 0
M  V30 66 H 4.217839 -0.663113 -1.371534 0
M  V30 67 H 2.639549 -1.575945 -1.281790 0
M  V30 68 H 4.229830 -0.818025 -3.637962 0
M  V30 69 H 2.769868 -1.872789 -3.587074 0
M  V30 70 H 3.019262 1.003889 -4.254574 0
M  V30 71 H 1.689368 -0.151620 -4.620360 0
M  V30 72 H 3.630475 2.843332 3.028856 0
M  V30 73 H 5.662170 1.078229 2.667381 0
M  V30 74 H 5.895356 2.799626 3.095421 0
M  V30 75 H 7.046620 1.483630 3.684653 0
M  V30 END ATOM
M  V30 BEGIN BOND
M  V30 1 1 1 2
M  V30 2 1 2 3
M  V30 3 2 3 4
M  V30 4 1 4 5
M  V30 5 2 5 6
M  V30 6 1 6 7
M  V30 7 1 7 8
M  V30 8 1 8 9
M  V30 9 1 9 10
M  V30 10 2 10 11
M  V30 11 1 11 12
M  V30 12 2 12 13
M  V30 13 1 13 14
M  V30 14 2 14 15
M  V30 15 1 14 16
M  V30 16 1 16 17
M  V30 17 1 17 18
M  V30 18 1 18 19
M  V30 19 1 19 20
M  V30 20 1 20 21
M  V30 21 1 21 22
M  V30 22 1 22 23
M  V30 23 1 23 24
M  V30 24 2 24 25
M  V30 25 1 13 26
M  V30 26 1 26 27
M  V30 27 1 27 28
M  V30 28 1 28 29
M  V30 29 1 29 30
M  V30 30 1 30 31
M  V30 31 1 31 32
M  V30 32 2 26 33
M  V30 33 1 6 34
M  V30 34 2 34 35
M  V30 35 1 35 36
M  V30 36 1 36 37
M  V30 37 1 35 3
M  V30 38 1 33 10
M  V30 39 1 24 20
M  V30 40 1 32 28
M  V30 41 1 1 38
M  V30 42 1 1 39
M  V30 43 1 1 40
M  V30 44 1 4 41
M  V30 45 1 5 42
M  V30 46 1 7 43
M  V30 47 1 7 44
M  V30 48 1 8 45
M  V30 49 1 8 46
M  V30 50 1 9 47
M  V30 51 1 12 48
M  V30 52 1 16 49
M  V30 53 1 17 50
M  V30 54 1 17 51
M  V30 55 1 18 52
M  V30 56 1 18 53
M  V30 57 1 19 54
M  V30 58 1 19 55
M  V30 59 1 21 56
M  V30 60 1 21 57
M  V30 61 1 22 58
M  V30 62 1 22 59
M  V30 63 1 23 60
M  V30 64 1 23 61
M  V30 65 1 27 62
M  V30 66 1 28 63
M  V30 67 1 29 64
M  V30 68 1 29 65
M  V30 69 1 30 66
M  V30 70 1 30 67
M  V30 71 1 31 68
M  V30 72 1 31 69
M  V30 73 1 32 70
M  V30 74 1 32 71
M  V30 75 1 34 72
M  V30 76 1 37 73
M  V30 77 1 37 74
M  V30 78 1 37 75
M  V30 END BOND
M  V30 END CTAB
M  END
>  <Dataset>  (751) 
ChEMBL_Kinases

>  <Ligand_Instance>  (751) 
nan

>  <PDB_ID>  (751) 
nan

>  <Standardized_SMILES>  (751) 
COc1ccc(CCNc2ncc(C(=O)NCCCN3CCCC3=O)c(NC3CCCC3)n2)cc1OC

>  <Name>  (751) 
nan

>  <Pocket>  (751) 
nan

>  <ATP_Site>  (751) 
nan

>  <Peripheral>  (751) 
nan

>  <Num_H_Atoms_ProtBoundConf>  (751) 
nan

>  <Num_Resolved_Atoms>  (751) 
nan

>  <Num_Not_Resolved_Atoms>  (751) 
nan

$$$$
CHEMBL3699745
     RDKit          3D

  0  0  0  0  0  0  0  0  0  0999 V3000
M  V30 BEGIN CTAB
M  V30 COUNTS 57 62 0 0 0
M  V30 BEGIN ATOM
M  V30 1 N 1.999782 -5.967174 -0.872608 0
M  V30 2 C 1.565068 -4.989941 -1.847936 0
M  V30 3 C 1.132290 -3.717332 -1.210012 0
M  V30 4 C 1.295592 -2.468077 -1.789454 0
M  V30 5 C 0.884537 -1.301801 -1.175522 0
M  V30 6 C 0.281369 -1.353921 0.070735 0
M  V30 7 C -0.160138 -0.129740 0.735083 0
M  V30 8 N 0.525135 0.967340 1.152895 0
M  V30 9 C -0.335481 1.840759 1.716205 0
M  V30 10 C -0.230272 3.086422 2.300993 0
M  V30 11 C 1.098738 3.681803 2.370364 0
M  V30 12 C 1.654929 4.307471 3.462164 0
M  V30 13 C 2.926132 4.841740 3.429049 0
M  V30 14 C 3.625510 4.719879 2.236977 0
M  V30 15 C 3.135581 4.107114 1.101287 0
M  V30 16 F 3.847593 4.009104 -0.038390 0
M  V30 17 C 1.847364 3.592646 1.211014 0
M  V30 18 C -1.295451 3.794072 2.817747 0
M  V30 19 C -2.553169 3.208515 2.741058 0
M  V30 20 C -2.643749 1.959710 2.152333 0
M  V30 21 N -1.571795 1.308867 1.661947 0
M  V30 22 C -1.494668 0.104371 1.067172 0
M  V30 23 C -2.647999 -0.783807 0.826985 0
M  V30 24 C -3.235438 -1.143574 2.027864 0
M  V30 25 C -4.344290 -1.979693 2.047887 0
M  V30 26 C -4.854811 -2.449194 0.847096 0
M  V30 27 C -4.249678 -2.074155 -0.326263 0
M  V30 28 C -3.161276 -1.254955 -0.367269 0
M  V30 29 C 0.115783 -2.598270 0.653899 0
M  V30 30 C 0.534243 -3.753533 0.022742 0
M  V30 31 C 0.461488 -5.606926 -2.716720 0
M  V30 32 C 1.287737 -5.161000 -3.911069 0
M  V30 33 C 2.473793 -4.877884 -3.017679 0
M  V30 34 H 2.325339 -6.801547 -1.445870 0
M  V30 35 H 1.141378 -6.342379 -0.379536 0
M  V30 36 H 1.765041 -2.409432 -2.762733 0
M  V30 37 H 1.042599 -0.349937 -1.685779 0
M  V30 38 H 1.042793 4.357172 4.344886 0
M  V30 39 H 3.333522 5.325573 4.300931 0
M  V30 40 H 4.640967 5.128433 2.158589 0
M  V30 41 H 1.482414 3.110161 0.291424 0
M  V30 42 H -1.155102 4.769090 3.265812 0
M  V30 43 H -3.384090 3.764138 3.145936 0
M  V30 44 H -3.660587 1.562940 2.127256 0
M  V30 45 H -2.932301 -0.844610 3.028263 0
M  V30 46 H -4.863384 -2.309572 2.937544 0
M  V30 47 H -5.720426 -3.103332 0.839608 0
M  V30 48 H -4.609461 -2.413002 -1.287804 0
M  V30 49 H -2.602588 -0.892546 -1.218908 0
M  V30 50 H -0.361552 -2.579472 1.628405 0
M  V30 51 H 0.360463 -4.693356 0.562797 0
M  V30 52 H 0.313763 -6.683781 -2.601596 0
M  V30 53 H -0.506010 -5.066396 -2.578733 0
M  V30 54 H 1.396172 -5.994065 -4.617635 0
M  V30 55 H 0.874828 -4.275065 -4.437772 0
M  V30 56 H 3.027691 -3.954663 -3.189434 0
M  V30 57 H 3.196095 -5.736938 -3.115134 0
M  V30 END ATOM
M  V30 BEGIN BOND
M  V30 1 1 1 2
M  V30 2 1 2 3
M  V30 3 2 3 4
M  V30 4 1 4 5
M  V30 5 2 5 6
M  V30 6 1 6 7
M  V30 7 1 7 8
M  V30 8 2 8 9
M  V30 9 1 9 10
M  V30 10 1 10 11
M  V30 11 2 11 12
M  V30 12 1 12 13
M  V30 13 2 13 14
M  V30 14 1 14 15
M  V30 15 1 15 16
M  V30 16 2 15 17
M  V30 17 2 10 18
M  V30 18 1 18 19
M  V30 19 2 19 20
M  V30 20 1 20 21
M  V30 21 1 21 22
M  V30 22 1 22 23
M  V30 23 2 23 24
M  V30 24 1 24 25
M  V30 25 2 25 26
M  V30 26 1 26 27
M  V30 27 2 27 28
M  V30 28 1 6 29
M  V30 29 2 29 30
M  V30 30 1 2 31
M  V30 31 1 31 32
M  V30 32 1 32 33
M  V30 33 1 33 2
M  V30 34 1 30 3
M  V30 35 2 22 7
M  V30 36 1 28 23
M  V30 37 1 21 9
M  V30 38 1 17 11
M  V30 39 1 1 34
M  V30 40 1 1 35
M  V30 41 1 4 36
M  V30 42 1 5 37
M  V30 43 1 12 38
M  V30 44 1 13 39
M  V30 45 1 14 40
M  V30 46 1 17 41
M  V30 47 1 18 42
M  V30 48 1 19 43
M  V30 49 1 20 44
M  V30 50 1 24 45
M  V30 51 1 25 46
M  V30 52 1 26 47
M  V30 53 1 27 48
M  V30 54 1 28 49
M  V30 55 1 29 50
M  V30 56 1 30 51
M  V30 57 1 31 52
M  V30 58 1 31 53
M  V30 59 1 32 54
M  V30 60 1 32 55
M  V30 61 1 33 56
M  V30 62 1 33 57
M  V30 END BOND
M  V30 END CTAB
M  END
>  <Dataset>  (752) 
ChEMBL_Kinases

>  <Ligand_Instance>  (752) 
nan

>  <PDB_ID>  (752) 
nan

>  <Standardized_SMILES>  (752) 
NC1(c2ccc(-c3nc4c(-c5cccc(F)c5)cccn4c3-c3ccccc3)cc2)CCC1

>  <Name>  (752) 
nan

>  <Pocket>  (752) 
nan

>  <ATP_Site>  (752) 
nan

>  <Peripheral>  (752) 
nan

>  <Num_H_Atoms_ProtBoundConf>  (752) 
nan

>  <Num_Resolved_Atoms>  (752) 
nan

>  <Num_Not_Resolved_Atoms>  (752) 
nan

$$$$
CHEMBL3699744
     RDKit          3D

  0  0  0  0  0  0  0  0  0  0999 V3000
M  V30 BEGIN CTAB
M  V30 COUNTS 57 62 0 0 0
M  V30 BEGIN ATOM
M  V30 1 N -0.088185 -5.009348 -3.364112 0
M  V30 2 C 0.555503 -5.083886 -2.058602 0
M  V30 3 C 0.354815 -3.843544 -1.266622 0
M  V30 4 C -0.126038 -3.713451 0.020267 0
M  V30 5 C -0.247756 -2.469797 0.605850 0
M  V30 6 C 0.116572 -1.321954 -0.102109 0
M  V30 7 C -0.050042 -0.041813 0.607415 0
M  V30 8 N 0.763540 0.949806 1.015948 0
M  V30 9 C 0.012153 1.890497 1.630073 0
M  V30 10 C 0.411788 3.078158 2.204471 0
M  V30 11 C 1.806223 3.504623 2.225330 0
M  V30 12 C 2.228946 4.001373 3.443940 0
M  V30 13 C 3.509682 4.456924 3.675312 0
M  V30 14 C 4.407345 4.403783 2.609454 0
M  V30 15 F 5.701225 4.839876 2.764054 0
M  V30 16 C 4.010579 3.906298 1.362606 0
M  V30 17 C 2.696701 3.459435 1.192856 0
M  V30 18 C -0.568906 3.867133 2.771315 0
M  V30 19 C -1.918357 3.514529 2.783782 0
M  V30 20 C -2.218688 2.302230 2.181530 0
M  V30 21 N -1.291357 1.497578 1.614176 0
M  V30 22 C -1.353578 0.302203 0.985119 0
M  V30 23 C -2.621530 -0.389538 0.804207 0
M  V30 24 C -3.512541 -0.873034 1.738755 0
M  V30 25 C -4.665499 -1.502456 1.321725 0
M  V30 26 C -4.939295 -1.654692 -0.002397 0
M  V30 27 C -4.072838 -1.184529 -0.964867 0
M  V30 28 C -2.899680 -0.544216 -0.558788 0
M  V30 29 C 0.604034 -1.448729 -1.405610 0
M  V30 30 C 0.719869 -2.698898 -1.976890 0
M  V30 31 C 0.191367 -6.374732 -1.367267 0
M  V30 32 C 1.372328 -7.005611 -2.118627 0
M  V30 33 C 1.968874 -5.591636 -2.157589 0
M  V30 34 H 0.486137 -4.482453 -4.058595 0
M  V30 35 H -1.001317 -4.529142 -3.321461 0
M  V30 36 H -0.381866 -4.647580 0.489199 0
M  V30 37 H -0.633607 -2.436588 1.622114 0
M  V30 38 H 1.604907 4.086490 4.343721 0
M  V30 39 H 3.864672 4.849307 4.617322 0
M  V30 40 H 4.684713 3.852321 0.516228 0
M  V30 41 H 2.334469 3.069753 0.267805 0
M  V30 42 H -0.348273 4.816006 3.244871 0
M  V30 43 H -2.684876 4.136137 3.229434 0
M  V30 44 H -3.258161 2.004866 2.177501 0
M  V30 45 H -3.158555 -0.677958 2.760764 0
M  V30 46 H -5.293879 -1.843537 2.136653 0
M  V30 47 H -5.875954 -2.165702 -0.215086 0
M  V30 48 H -4.375990 -1.352001 -1.982852 0
M  V30 49 H -2.289617 -0.213528 -1.396300 0
M  V30 50 H 0.848944 -0.499938 -1.843357 0
M  V30 51 H 1.109663 -2.656372 -2.987868 0
M  V30 52 H -0.761506 -6.828464 -1.728313 0
M  V30 53 H 0.302939 -6.404251 -0.278080 0
M  V30 54 H 1.956275 -7.736510 -1.554273 0
M  V30 55 H 1.083407 -7.356160 -3.145290 0
M  V30 56 H 2.573129 -5.377519 -1.267688 0
M  V30 57 H 2.419107 -5.343512 -3.150060 0
M  V30 END ATOM
M  V30 BEGIN BOND
M  V30 1 1 1 2
M  V30 2 1 2 3
M  V30 3 2 3 4
M  V30 4 1 4 5
M  V30 5 2 5 6
M  V30 6 1 6 7
M  V30 7 1 7 8
M  V30 8 2 8 9
M  V30 9 1 9 10
M  V30 10 1 10 11
M  V30 11 2 11 12
M  V30 12 1 12 13
M  V30 13 2 13 14
M  V30 14 1 14 15
M  V30 15 1 14 16
M  V30 16 2 16 17
M  V30 17 2 10 18
M  V30 18 1 18 19
M  V30 19 2 19 20
M  V30 20 1 20 21
M  V30 21 1 21 22
M  V30 22 1 22 23
M  V30 23 2 23 24
M  V30 24 1 24 25
M  V30 25 2 25 26
M  V30 26 1 26 27
M  V30 27 2 27 28
M  V30 28 1 6 29
M  V30 29 2 29 30
M  V30 30 1 2 31
M  V30 31 1 31 32
M  V30 32 1 32 33
M  V30 33 1 33 2
M  V30 34 1 30 3
M  V30 35 2 22 7
M  V30 36 1 28 23
M  V30 37 1 21 9
M  V30 38 1 17 11
M  V30 39 1 1 34
M  V30 40 1 1 35
M  V30 41 1 4 36
M  V30 42 1 5 37
M  V30 43 1 12 38
M  V30 44 1 13 39
M  V30 45 1 16 40
M  V30 46 1 17 41
M  V30 47 1 18 42
M  V30 48 1 19 43
M  V30 49 1 20 44
M  V30 50 1 24 45
M  V30 51 1 25 46
M  V30 52 1 26 47
M  V30 53 1 27 48
M  V30 54 1 28 49
M  V30 55 1 29 50
M  V30 56 1 30 51
M  V30 57 1 31 52
M  V30 58 1 31 53
M  V30 59 1 32 54
M  V30 60 1 32 55
M  V30 61 1 33 56
M  V30 62 1 33 57
M  V30 END BOND
M  V30 END CTAB
M  END
>  <Dataset>  (753) 
ChEMBL_Kinases

>  <Ligand_Instance>  (753) 
nan

>  <PDB_ID>  (753) 
nan

>  <Standardized_SMILES>  (753) 
NC1(c2ccc(-c3nc4c(-c5ccc(F)cc5)cccn4c3-c3ccccc3)cc2)CCC1

>  <Name>  (753) 
nan

>  <Pocket>  (753) 
nan

>  <ATP_Site>  (753) 
nan

>  <Peripheral>  (753) 
nan

>  <Num_H_Atoms_ProtBoundConf>  (753) 
nan

>  <Num_Resolved_Atoms>  (753) 
nan

>  <Num_Not_Resolved_Atoms>  (753) 
nan

$$$$
CHEMBL2312652
     RDKit          3D

  0  0  0  0  0  0  0  0  0  0999 V3000
M  V30 BEGIN CTAB
M  V30 COUNTS 58 61 0 0 0
M  V30 BEGIN ATOM
M  V30 1 C 3.492533 2.243965 4.737623 0
M  V30 2 N 3.145221 1.186518 3.841989 0
M  V30 3 C 2.250879 0.227363 4.325894 0
M  V30 4 C 2.525118 -1.206435 4.067606 0
M  V30 5 C 2.919623 -1.360673 2.614862 0
M  V30 6 N 1.899003 -0.769817 1.805595 0
M  V30 7 C 1.111449 -1.356472 0.766852 0
M  V30 8 O 1.597395 -2.507967 0.809676 0
M  V30 9 C 0.115946 -0.588173 0.050171 0
M  V30 10 C -0.049392 0.711110 0.446795 0
M  V30 11 N -0.971997 1.435924 -0.187163 0
M  V30 12 C -1.737304 0.970442 -1.178739 0
M  V30 13 N -2.741265 1.655636 -1.912762 0
M  V30 14 C -4.133574 1.711821 -1.636461 0
M  V30 15 C -4.643084 1.030604 -0.553843 0
M  V30 16 C -5.991013 1.072812 -0.273114 0
M  V30 17 Cl -6.705123 0.232556 1.080988 0
M  V30 18 C -6.772783 1.829063 -1.135111 0
M  V30 19 C -6.264555 2.516497 -2.226012 0
M  V30 20 Cl -7.267878 3.465329 -3.302070 0
M  V30 21 C -4.910541 2.460494 -2.489058 0
M  V30 22 N -1.519756 -0.292233 -1.505754 0
M  V30 23 C -0.631926 -1.137597 -0.960457 0
M  V30 24 N -0.503499 -2.456944 -1.431635 0
M  V30 25 C 0.023983 -3.753962 -1.517706 0 CFG=2
M  V30 26 C 1.420574 -3.835295 -2.067918 0
M  V30 27 O 1.466448 -4.816476 -3.047996 0
M  V30 28 C 0.396732 -5.671474 -2.787700 0
M  V30 29 C -0.727382 -4.757164 -2.362050 0 CFG=1
M  V30 30 O -1.715962 -5.417040 -1.634249 0
M  V30 31 C 4.195273 -0.550258 2.448367 0
M  V30 32 C 4.025393 0.873141 2.808331 0
M  V30 33 H 2.759578 2.170687 5.594727 0
M  V30 34 H 3.405443 3.197035 4.196741 0
M  V30 35 H 4.493763 2.082003 5.135116 0
M  V30 36 H 1.184702 0.446281 4.036533 0
M  V30 37 H 2.216243 0.339817 5.455104 0
M  V30 38 H 1.591307 -1.784117 4.225813 0
M  V30 39 H 3.362707 -1.622715 4.657819 0
M  V30 40 H 3.127280 -2.424334 2.361520 0
M  V30 41 H 1.818887 0.241384 2.121262 0
M  V30 42 H 0.429218 1.292765 1.194126 0
M  V30 43 H -2.297312 2.136812 -2.723461 0
M  V30 44 H -4.003305 0.440143 0.111293 0
M  V30 45 H -7.845486 1.875186 -0.929212 0
M  V30 46 H -4.466899 2.973786 -3.320262 0
M  V30 47 H -1.222354 -2.605529 -2.187975 0
M  V30 48 H -0.022017 -4.203292 -0.474588 0
M  V30 49 H 1.684412 -2.876371 -2.556528 0
M  V30 50 H 2.171204 -4.134362 -1.286619 0
M  V30 51 H 0.664008 -6.297979 -1.887228 0
M  V30 52 H 0.146964 -6.342691 -3.606302 0
M  V30 53 H -1.140625 -4.299659 -3.285279 0
M  V30 54 H -1.902928 -4.844584 -0.831140 0
M  V30 55 H 5.044928 -1.064061 2.953253 0
M  V30 56 H 4.460621 -0.606767 1.351748 0
M  V30 57 H 3.742174 1.466208 1.900528 0
M  V30 58 H 5.043556 1.261202 3.085328 0
M  V30 END ATOM
M  V30 BEGIN BOND
M  V30 1 1 1 2
M  V30 2 1 2 3
M  V30 3 1 3 4
M  V30 4 1 4 5
M  V30 5 1 5 6
M  V30 6 1 6 7
M  V30 7 2 7 8
M  V30 8 1 7 9
M  V30 9 2 9 10
M  V30 10 1 10 11
M  V30 11 2 11 12
M  V30 12 1 12 13
M  V30 13 1 13 14
M  V30 14 2 14 15
M  V30 15 1 15 16
M  V30 16 1 16 17
M  V30 17 2 16 18
M  V30 18 1 18 19
M  V30 19 1 19 20
M  V30 20 2 19 21
M  V30 21 1 12 22
M  V30 22 2 22 23
M  V30 23 1 23 24
M  V30 24 1 24 25
M  V30 25 1 25 26
M  V30 26 1 26 27
M  V30 27 1 27 28
M  V30 28 1 28 29
M  V30 29 1 29 30
M  V30 30 1 5 31
M  V30 31 1 31 32
M  V30 32 1 32 2
M  V30 33 1 23 9
M  V30 34 1 29 25
M  V30 35 1 21 14
M  V30 36 1 1 33
M  V30 37 1 1 34
M  V30 38 1 1 35
M  V30 39 1 3 36
M  V30 40 1 3 37
M  V30 41 1 4 38
M  V30 42 1 4 39
M  V30 43 1 5 40
M  V30 44 1 6 41
M  V30 45 1 10 42
M  V30 46 1 13 43
M  V30 47 1 15 44
M  V30 48 1 18 45
M  V30 49 1 21 46
M  V30 50 1 24 47
M  V30 51 1 25 48 CFG=1
M  V30 52 1 26 49
M  V30 53 1 26 50
M  V30 54 1 28 51
M  V30 55 1 28 52
M  V30 56 1 29 53 CFG=3
M  V30 57 1 30 54
M  V30 58 1 31 55
M  V30 59 1 31 56
M  V30 60 1 32 57
M  V30 61 1 32 58
M  V30 END BOND
M  V30 END CTAB
M  END
>  <Dataset>  (754) 
ChEMBL_Kinases

>  <Ligand_Instance>  (754) 
nan

>  <PDB_ID>  (754) 
nan

>  <Standardized_SMILES>  (754) 
CN1CCC(NC(=O)c2cnc(Nc3cc(Cl)cc(Cl)c3)nc2N[C@@H]2COC[C@H]2O)CC1

>  <Name>  (754) 
nan

>  <Pocket>  (754) 
nan

>  <ATP_Site>  (754) 
nan

>  <Peripheral>  (754) 
nan

>  <Num_H_Atoms_ProtBoundConf>  (754) 
nan

>  <Num_Resolved_Atoms>  (754) 
nan

>  <Num_Not_Resolved_Atoms>  (754) 
nan

$$$$
CHEMBL4563802
     RDKit          3D

  0  0  0  0  0  0  0  0  0  0999 V3000
M  V30 BEGIN CTAB
M  V30 COUNTS 50 53 0 0 0
M  V30 BEGIN ATOM
M  V30 1 C 2.244862 -3.385327 4.367872 0
M  V30 2 N 2.482539 -3.961329 3.080331 0
M  V30 3 C 3.681385 -3.726642 2.297872 0
M  V30 4 C 3.168836 -3.800952 0.860055 0
M  V30 5 C 2.513873 -2.540775 0.479733 0
M  V30 6 C 1.978548 -1.503367 0.164824 0
M  V30 7 C 1.322909 -0.257632 -0.191460 0
M  V30 8 C 1.952003 0.636489 -1.037662 0
M  V30 9 Cl 3.517395 0.512554 -1.808285 0
M  V30 10 C 1.119092 1.723699 -1.208078 0
M  V30 11 C 1.190484 2.908558 -1.919881 0
M  V30 12 Cl 2.605707 3.237819 -2.867338 0
M  V30 13 C 0.161074 3.836415 -1.894178 0
M  V30 14 C -0.924892 3.492196 -1.115069 0
M  V30 15 C -2.046997 4.421410 -1.040327 0
M  V30 16 N -3.194544 4.120356 -0.252676 0
M  V30 17 O -2.104516 5.526952 -1.637787 0
M  V30 18 N -0.987980 2.335601 -0.423789 0
M  V30 19 C 0.009144 1.428333 -0.443848 0
M  V30 20 N 0.133202 0.223144 0.174480 0
M  V30 21 C -0.791465 -0.452823 1.056469 0 CFG=1
M  V30 22 C -1.945154 0.386053 1.477408 0
M  V30 23 C -3.137785 0.295441 0.586018 0
M  V30 24 C -2.897100 -0.464303 -0.673317 0
M  V30 25 N -2.236650 -1.715617 -0.503500 0
M  V30 26 C -1.234818 -1.764919 0.506599 0
M  V30 27 C 2.078023 -4.843450 0.893599 0
M  V30 28 C 1.647832 -4.837623 2.328481 0
M  V30 29 O 0.694206 -5.502467 2.809177 0
M  V30 30 H 1.388916 -3.834505 4.905277 0
M  V30 31 H 2.039841 -2.288616 4.293003 0
M  V30 32 H 3.119418 -3.474559 5.053661 0
M  V30 33 H 4.092169 -2.712027 2.497261 0
M  V30 34 H 4.477545 -4.449053 2.480358 0
M  V30 35 H 4.023870 -4.054803 0.227773 0
M  V30 36 H 0.178623 4.767725 -2.432881 0
M  V30 37 H -3.218838 3.708336 0.701248 0
M  V30 38 H -3.183758 3.700487 0.716557 0
M  V30 39 H -0.196103 -0.660785 1.994503 0
M  V30 40 H -2.283501 0.016061 2.489668 0
M  V30 41 H -1.635522 1.439012 1.683348 0
M  V30 42 H -3.499980 1.319767 0.280184 0
M  V30 43 H -4.031559 -0.173628 1.081271 0
M  V30 44 H -3.912118 -0.707153 -1.107829 0
M  V30 45 H -2.366345 0.117641 -1.455298 0
M  V30 46 H -2.879211 -2.539246 -0.498220 0
M  V30 47 H -0.350315 -2.296300 0.052686 0
M  V30 48 H -1.597587 -2.468594 1.291580 0
M  V30 49 H 1.214528 -4.561243 0.227678 0
M  V30 50 H 2.522236 -5.817750 0.621709 0
M  V30 END ATOM
M  V30 BEGIN BOND
M  V30 1 1 1 2
M  V30 2 1 2 3
M  V30 3 1 3 4
M  V30 4 1 4 5
M  V30 5 3 5 6
M  V30 6 1 6 7
M  V30 7 2 7 8
M  V30 8 1 8 9
M  V30 9 1 8 10
M  V30 10 2 10 11
M  V30 11 1 11 12
M  V30 12 1 11 13
M  V30 13 2 13 14
M  V30 14 1 14 15
M  V30 15 1 15 16
M  V30 16 2 15 17
M  V30 17 1 14 18
M  V30 18 2 18 19
M  V30 19 1 19 20
M  V30 20 1 20 21
M  V30 21 1 21 22
M  V30 22 1 22 23
M  V30 23 1 23 24
M  V30 24 1 24 25
M  V30 25 1 25 26
M  V30 26 1 4 27
M  V30 27 1 27 28
M  V30 28 2 28 29
M  V30 29 1 28 2
M  V30 30 1 20 7
M  V30 31 1 26 21
M  V30 32 1 19 10
M  V30 33 1 1 30
M  V30 34 1 1 31
M  V30 35 1 1 32
M  V30 36 1 3 33
M  V30 37 1 3 34
M  V30 38 1 4 35
M  V30 39 1 13 36
M  V30 40 1 16 37
M  V30 41 1 16 38
M  V30 42 1 21 39 CFG=1
M  V30 43 1 22 40
M  V30 44 1 22 41
M  V30 45 1 23 42
M  V30 46 1 23 43
M  V30 47 1 24 44
M  V30 48 1 24 45
M  V30 49 1 25 46
M  V30 50 1 26 47
M  V30 51 1 26 48
M  V30 52 1 27 49
M  V30 53 1 27 50
M  V30 END BOND
M  V30 END CTAB
M  END
>  <Dataset>  (755) 
ChEMBL_Kinases

>  <Ligand_Instance>  (755) 
nan

>  <PDB_ID>  (755) 
nan

>  <Standardized_SMILES>  (755) 
CN1CC(C#Cc2c(Cl)c3c(Cl)cc(C(N)=O)nc3n2[C@H]2CCCNC2)CC1=O

>  <Name>  (755) 
nan

>  <Pocket>  (755) 
nan

>  <ATP_Site>  (755) 
nan

>  <Peripheral>  (755) 
nan

>  <Num_H_Atoms_ProtBoundConf>  (755) 
nan

>  <Num_Resolved_Atoms>  (755) 
nan

>  <Num_Not_Resolved_Atoms>  (755) 
nan

$$$$
CHEMBL3699743
     RDKit          3D

  0  0  0  0  0  0  0  0  0  0999 V3000
M  V30 BEGIN CTAB
M  V30 COUNTS 47 51 0 0 0
M  V30 BEGIN ATOM
M  V30 1 N 1.131247 -4.585642 3.393443 0
M  V30 2 C 0.355819 -4.502316 2.154067 0
M  V30 3 C 0.647598 -3.236432 1.482826 0
M  V30 4 C 0.997172 -2.969796 0.177378 0
M  V30 5 C 1.234292 -1.687952 -0.269658 0
M  V30 6 C 1.128101 -0.602241 0.590947 0
M  V30 7 C 1.372072 0.768011 0.152898 0
M  V30 8 N 2.540868 1.254520 -0.344661 0
M  V30 9 C 2.374518 2.565018 -0.637173 0
M  V30 10 C 3.250499 3.496238 -1.159445 0
M  V30 11 C 2.864899 4.821216 -1.386841 0
M  V30 12 F 3.716227 5.738865 -1.897408 0
M  V30 13 C 1.558736 5.116161 -1.051809 0
M  V30 14 C 0.664940 4.197560 -0.527201 0
M  V30 15 N 1.124020 2.952226 -0.343954 0
M  V30 16 C 0.508736 1.844601 0.142277 0
M  V30 17 C -0.901438 1.812407 0.596241 0
M  V30 18 C -1.679156 0.957418 -0.172972 0
M  V30 19 C -3.024512 0.805106 0.111593 0
M  V30 20 C -3.593340 1.493699 1.148603 0
M  V30 21 C -2.801098 2.337678 1.899331 0
M  V30 22 C -1.464512 2.512995 1.645856 0
M  V30 23 C 0.781738 -0.849280 1.890589 0
M  V30 24 C 0.540278 -2.143358 2.350708 0
M  V30 25 C 0.428282 -5.760442 1.338635 0
M  V30 26 C -1.086294 -5.731172 1.191371 0
M  V30 27 C -1.104840 -4.808420 2.405720 0
M  V30 28 H 1.938195 -3.928793 3.370291 0
M  V30 29 H 0.477497 -4.362112 4.174168 0
M  V30 30 H 1.059812 -3.855250 -0.427770 0
M  V30 31 H 1.505113 -1.535901 -1.301049 0
M  V30 32 H 4.271922 3.251040 -1.417670 0
M  V30 33 H 1.235946 6.139435 -1.219717 0
M  V30 34 H -0.356290 4.440030 -0.268644 0
M  V30 35 H -1.314852 0.365015 -1.021338 0
M  V30 36 H -3.654085 0.146843 -0.469940 0
M  V30 37 H -4.637633 1.369098 1.361816 0
M  V30 38 H -3.208763 2.906588 2.735285 0
M  V30 39 H -0.764360 3.145560 2.171339 0
M  V30 40 H 0.699690 0.003035 2.561084 0
M  V30 41 H 0.270879 -2.198355 3.414649 0
M  V30 42 H 0.961744 -5.715353 0.390567 0
M  V30 43 H 0.697188 -6.614704 2.004225 0
M  V30 44 H -1.610105 -6.679560 1.329048 0
M  V30 45 H -1.440454 -5.231881 0.258788 0
M  V30 46 H -1.283071 -5.381924 3.339706 0
M  V30 47 H -1.823137 -4.003749 2.255396 0
M  V30 END ATOM
M  V30 BEGIN BOND
M  V30 1 1 1 2
M  V30 2 1 2 3
M  V30 3 2 3 4
M  V30 4 1 4 5
M  V30 5 2 5 6
M  V30 6 1 6 7
M  V30 7 1 7 8
M  V30 8 2 8 9
M  V30 9 1 9 10
M  V30 10 2 10 11
M  V30 11 1 11 12
M  V30 12 1 11 13
M  V30 13 2 13 14
M  V30 14 1 14 15
M  V30 15 1 15 16
M  V30 16 1 16 17
M  V30 17 2 17 18
M  V30 18 1 18 19
M  V30 19 2 19 20
M  V30 20 1 20 21
M  V30 21 2 21 22
M  V30 22 1 6 23
M  V30 23 2 23 24
M  V30 24 1 2 25
M  V30 25 1 25 26
M  V30 26 1 26 27
M  V30 27 1 27 2
M  V30 28 1 24 3
M  V30 29 2 16 7
M  V30 30 1 22 17
M  V30 31 1 15 9
M  V30 32 1 1 28
M  V30 33 1 1 29
M  V30 34 1 4 30
M  V30 35 1 5 31
M  V30 36 1 10 32
M  V30 37 1 13 33
M  V30 38 1 14 34
M  V30 39 1 18 35
M  V30 40 1 19 36
M  V30 41 1 20 37
M  V30 42 1 21 38
M  V30 43 1 22 39
M  V30 44 1 23 40
M  V30 45 1 24 41
M  V30 46 1 25 42
M  V30 47 1 25 43
M  V30 48 1 26 44
M  V30 49 1 26 45
M  V30 50 1 27 46
M  V30 51 1 27 47
M  V30 END BOND
M  V30 END CTAB
M  END
>  <Dataset>  (756) 
ChEMBL_Kinases

>  <Ligand_Instance>  (756) 
nan

>  <PDB_ID>  (756) 
nan

>  <Standardized_SMILES>  (756) 
NC1(c2ccc(-c3nc4cc(F)ccn4c3-c3ccccc3)cc2)CCC1

>  <Name>  (756) 
nan

>  <Pocket>  (756) 
nan

>  <ATP_Site>  (756) 
nan

>  <Peripheral>  (756) 
nan

>  <Num_H_Atoms_ProtBoundConf>  (756) 
nan

>  <Num_Resolved_Atoms>  (756) 
nan

>  <Num_Not_Resolved_Atoms>  (756) 
nan

$$$$
CHEMBL4534258
     RDKit          3D

  0  0  0  0  0  0  0  0  0  0999 V3000
M  V30 BEGIN CTAB
M  V30 COUNTS 40 43 0 0 0
M  V30 BEGIN ATOM
M  V30 1 C 0.254940 -4.541746 2.560161 0
M  V30 2 N 0.680505 -4.319668 1.178402 0
M  V30 3 N 1.262615 -5.191950 0.367460 0
M  V30 4 C 1.500954 -4.624896 -0.812597 0
M  V30 5 C 1.044016 -3.331087 -0.734924 0
M  V30 6 C 0.526375 -3.149954 0.531743 0
M  V30 7 C -0.069832 -1.928592 1.061359 0
M  V30 8 N 0.201033 -0.732102 0.464744 0
M  V30 9 C -0.330607 0.412941 0.925594 0
M  V30 10 N 0.000992 1.617445 0.248152 0
M  V30 11 C 0.883027 1.519624 -0.882739 0
M  V30 12 C 0.425419 0.671366 -2.037353 0
M  V30 13 C 1.500743 2.825858 -1.326778 0
M  V30 14 C 2.444927 2.659284 -0.129326 0
M  V30 15 C 2.281804 1.151235 -0.367646 0
M  V30 16 C -1.155037 0.305270 2.023090 0
M  V30 17 C -1.713681 1.452891 2.518630 0
M  V30 18 C -2.555134 1.475421 3.611852 0
M  V30 19 N -2.823227 0.288917 4.202823 0
M  V30 20 C -2.295857 -0.869655 3.750315 0
M  V30 21 C -1.455519 -0.877105 2.655477 0
M  V30 22 N -0.890254 -2.008512 2.147989 0
M  V30 23 H -0.858459 -4.532137 2.646140 0
M  V30 24 H 0.624993 -3.688768 3.186686 0
M  V30 25 H 0.603418 -5.499804 2.949023 0
M  V30 26 H 1.973268 -5.106013 -1.678526 0
M  V30 27 H 1.077086 -2.596293 -1.500695 0
M  V30 28 H -0.320170 2.580773 0.470650 0
M  V30 29 H -0.314652 -0.077741 -1.764407 0
M  V30 30 H -0.025264 1.364805 -2.783990 0
M  V30 31 H 1.311319 0.173352 -2.468469 0
M  V30 32 H 2.076344 2.694563 -2.248724 0
M  V30 33 H 0.869445 3.722469 -1.256220 0
M  V30 34 H 1.887563 2.945077 0.772665 0
M  V30 35 H 3.445404 3.059732 -0.287553 0
M  V30 36 H 2.938432 0.769764 -1.172123 0
M  V30 37 H 2.247182 0.561419 0.556445 0
M  V30 38 H -1.526194 2.420815 2.077273 0
M  V30 39 H -3.001296 2.379390 4.010177 0
M  V30 40 H -2.523145 -1.824828 4.241045 0
M  V30 END ATOM
M  V30 BEGIN BOND
M  V30 1 1 1 2
M  V30 2 1 2 3
M  V30 3 2 3 4
M  V30 4 1 4 5
M  V30 5 2 5 6
M  V30 6 1 6 7
M  V30 7 2 7 8
M  V30 8 1 8 9
M  V30 9 1 9 10
M  V30 10 1 10 11
M  V30 11 1 11 12
M  V30 12 1 11 13
M  V30 13 1 13 14
M  V30 14 1 14 15
M  V30 15 2 9 16
M  V30 16 1 16 17
M  V30 17 2 17 18
M  V30 18 1 18 19
M  V30 19 2 19 20
M  V30 20 1 20 21
M  V30 21 2 21 22
M  V30 22 1 6 2
M  V30 23 1 22 7
M  V30 24 1 15 11
M  V30 25 1 21 16
M  V30 26 1 1 23
M  V30 27 1 1 24
M  V30 28 1 1 25
M  V30 29 1 4 26
M  V30 30 1 5 27
M  V30 31 1 10 28
M  V30 32 1 12 29
M  V30 33 1 12 30
M  V30 34 1 12 31
M  V30 35 1 13 32
M  V30 36 1 13 33
M  V30 37 1 14 34
M  V30 38 1 14 35
M  V30 39 1 15 36
M  V30 40 1 15 37
M  V30 41 1 17 38
M  V30 42 1 18 39
M  V30 43 1 20 40
M  V30 END BOND
M  V30 END CTAB
M  END
>  <Dataset>  (757) 
ChEMBL_Kinases

>  <Ligand_Instance>  (757) 
nan

>  <PDB_ID>  (757) 
nan

>  <Standardized_SMILES>  (757) 
Cn1nccc1-c1nc(NC2(C)CCC2)c2ccncc2n1

>  <Name>  (757) 
nan

>  <Pocket>  (757) 
nan

>  <ATP_Site>  (757) 
nan

>  <Peripheral>  (757) 
nan

>  <Num_H_Atoms_ProtBoundConf>  (757) 
nan

>  <Num_Resolved_Atoms>  (757) 
nan

>  <Num_Not_Resolved_Atoms>  (757) 
nan

$$$$
CHEMBL2313884
     RDKit          3D

  0  0  0  0  0  0  0  0  0  0999 V3000
M  V30 BEGIN CTAB
M  V30 COUNTS 43 46 0 0 0
M  V30 BEGIN ATOM
M  V30 1 C -0.832596 -8.001643 1.571656 0
M  V30 2 O 0.114683 -6.983604 1.270591 0
M  V30 3 C -0.359703 -5.790397 0.809556 0
M  V30 4 C -1.680475 -5.502387 0.615930 0
M  V30 5 C -2.177610 -4.311843 0.154299 0
M  V30 6 C -1.338973 -3.270745 -0.162460 0
M  V30 7 C 0.004936 -3.605766 0.049633 0
M  V30 8 C 0.549888 -4.802738 0.516837 0
M  V30 9 S 0.950866 -2.045847 -0.446179 0
M  V30 10 C -0.523849 -1.161885 -0.864399 0
M  V30 11 C -0.624475 0.124099 -1.333220 0
M  V30 12 N 0.561863 0.883850 -1.525204 0
M  V30 13 C 1.055551 1.673854 -0.440574 0
M  V30 14 C 0.368577 1.674417 0.754559 0
M  V30 15 C 0.846399 2.437519 1.800696 0
M  V30 16 C 1.988096 3.206878 1.708605 0
M  V30 17 N 2.512563 4.005769 2.761831 0
M  V30 18 C 3.729913 4.785388 2.563317 0
M  V30 19 C 1.888224 4.088405 4.050400 0
M  V30 20 C 2.643855 3.176297 0.493899 0
M  V30 21 C 2.202905 2.424803 -0.587762 0
M  V30 22 N -1.864081 0.634576 -1.601196 0
M  V30 23 C -2.886177 -0.224475 -1.362365 0
M  V30 24 N -2.755068 -1.455933 -0.911052 0
M  V30 25 C -1.563629 -2.010105 -0.630665 0
M  V30 26 H -1.568839 -8.157069 0.746033 0
M  V30 27 H -0.362000 -8.972788 1.760789 0
M  V30 28 H -1.458302 -7.706455 2.450773 0
M  V30 29 H -2.416531 -6.292465 0.849506 0
M  V30 30 H -3.243795 -4.202123 0.042099 0
M  V30 31 H 1.600689 -4.883141 0.617456 0
M  V30 32 H 1.063511 0.867661 -2.435722 0
M  V30 33 H -0.536824 1.076790 0.858319 0
M  V30 34 H 0.306672 2.436210 2.735352 0
M  V30 35 H 3.493499 5.661711 1.943668 0
M  V30 36 H 4.484297 4.156757 2.051960 0
M  V30 37 H 4.170418 5.100238 3.510802 0
M  V30 38 H 0.801276 3.909046 4.057511 0
M  V30 39 H 2.347963 3.329422 4.732101 0
M  V30 40 H 2.127214 5.082729 4.529621 0
M  V30 41 H 3.562272 3.738528 0.280465 0
M  V30 42 H 2.700800 2.390675 -1.536864 0
M  V30 43 H -3.909038 0.136405 -1.561810 0
M  V30 END ATOM
M  V30 BEGIN BOND
M  V30 1 1 1 2
M  V30 2 1 2 3
M  V30 3 2 3 4
M  V30 4 1 4 5
M  V30 5 2 5 6
M  V30 6 1 6 7
M  V30 7 2 7 8
M  V30 8 1 7 9
M  V30 9 1 9 10
M  V30 10 2 10 11
M  V30 11 1 11 12
M  V30 12 1 12 13
M  V30 13 2 13 14
M  V30 14 1 14 15
M  V30 15 2 15 16
M  V30 16 1 16 17
M  V30 17 1 17 18
M  V30 18 1 17 19
M  V30 19 1 16 20
M  V30 20 2 20 21
M  V30 21 1 11 22
M  V30 22 2 22 23
M  V30 23 1 23 24
M  V30 24 2 24 25
M  V30 25 1 8 3
M  V30 26 1 25 10
M  V30 27 1 25 6
M  V30 28 1 21 13
M  V30 29 1 1 26
M  V30 30 1 1 27
M  V30 31 1 1 28
M  V30 32 1 4 29
M  V30 33 1 5 30
M  V30 34 1 8 31
M  V30 35 1 12 32
M  V30 36 1 14 33
M  V30 37 1 15 34
M  V30 38 1 18 35
M  V30 39 1 18 36
M  V30 40 1 18 37
M  V30 41 1 19 38
M  V30 42 1 19 39
M  V30 43 1 19 40
M  V30 44 1 20 41
M  V30 45 1 21 42
M  V30 46 1 23 43
M  V30 END BOND
M  V30 END CTAB
M  END
>  <Dataset>  (758) 
ChEMBL_Kinases

>  <Ligand_Instance>  (758) 
nan

>  <PDB_ID>  (758) 
nan

>  <Standardized_SMILES>  (758) 
COc1ccc2c(c1)sc1c(Nc3ccc(N(C)C)cc3)ncnc12

>  <Name>  (758) 
nan

>  <Pocket>  (758) 
nan

>  <ATP_Site>  (758) 
nan

>  <Peripheral>  (758) 
nan

>  <Num_H_Atoms_ProtBoundConf>  (758) 
nan

>  <Num_Resolved_Atoms>  (758) 
nan

>  <Num_Not_Resolved_Atoms>  (758) 
nan

$$$$
CHEMBL4534375
     RDKit          3D

  0  0  0  0  0  0  0  0  0  0999 V3000
M  V30 BEGIN CTAB
M  V30 COUNTS 50 54 0 0 0
M  V30 BEGIN ATOM
M  V30 1 C -2.562114 -4.646547 1.920978 0
M  V30 2 C -1.136045 -4.427124 1.556079 0
M  V30 3 C -0.258965 -5.466343 1.363409 0
M  V30 4 C 1.067042 -5.279667 1.024355 0
M  V30 5 C 1.497127 -3.960609 0.880296 0
M  V30 6 C 0.621672 -2.890623 1.071797 0
M  V30 7 C 1.038848 -1.498706 0.930251 0
M  V30 8 N 1.038681 -0.567903 1.886625 0
M  V30 9 C 1.478009 0.617336 1.442666 0
M  V30 10 C 1.687599 1.978549 2.001691 0
M  V30 11 N 0.555086 2.832434 1.788246 0
M  V30 12 C -0.772746 2.899647 2.217681 0
M  V30 13 C -1.171819 1.929669 3.101313 0
M  V30 14 C -2.439826 1.850898 3.634503 0
M  V30 15 C -3.393941 2.793093 3.277714 0
M  V30 16 C -2.996388 3.760844 2.396768 0
M  V30 17 C -1.734062 3.848085 1.859158 0
M  V30 18 C -1.279993 4.889278 0.901252 0
M  V30 19 N 1.774790 0.423453 0.124008 0
M  V30 20 C 1.511552 -0.854697 -0.193068 0
M  V30 21 C 1.707425 -1.433761 -1.517451 0
M  V30 22 C 0.602640 -1.912572 -2.185171 0
M  V30 23 C 0.803213 -2.448633 -3.420463 0
M  V30 24 C 2.034098 -2.507366 -3.966557 0
M  V30 25 N 2.322728 -3.077764 -5.310717 0
M  V30 26 S 3.972547 -2.927936 -5.548006 0
M  V30 27 N 4.387096 -2.121496 -3.928441 0
M  V30 28 C 3.142466 -2.056612 -3.361051 0
M  V30 29 C 2.944597 -1.514998 -2.114247 0
M  V30 30 N -0.648255 -3.208411 1.400238 0
M  V30 31 H -3.147401 -3.878874 1.355426 0
M  V30 32 H -2.893231 -5.673869 1.726496 0
M  V30 33 H -2.692965 -4.354319 2.998955 0
M  V30 34 H -0.642892 -6.483225 1.488034 0
M  V30 35 H 1.773233 -6.104638 0.869273 0
M  V30 36 H 2.520751 -3.742093 0.616285 0
M  V30 37 H 0.753566 -0.694453 2.857141 0
M  V30 38 H 1.802666 1.837045 3.126002 0
M  V30 39 H 2.602459 2.419103 1.584128 0
M  V30 40 H 0.735794 3.639626 1.133457 0
M  V30 41 H -0.554622 1.148595 3.470389 0
M  V30 42 H -2.784553 1.091036 4.338939 0
M  V30 43 H -4.411050 2.829541 3.629502 0
M  V30 44 H -3.637800 4.559733 2.031531 0
M  V30 45 H -2.187763 5.441533 0.537754 0
M  V30 46 H -0.648394 5.654184 1.405707 0
M  V30 47 H -0.794382 4.463379 0.003641 0
M  V30 48 H -0.385134 -1.871904 -1.763657 0
M  V30 49 H -0.039290 -2.830373 -3.965670 0
M  V30 50 H 3.739469 -1.112983 -1.507924 0
M  V30 END ATOM
M  V30 BEGIN BOND
M  V30 1 1 1 2
M  V30 2 2 2 3
M  V30 3 1 3 4
M  V30 4 2 4 5
M  V30 5 1 5 6
M  V30 6 1 6 7
M  V30 7 1 7 8
M  V30 8 1 8 9
M  V30 9 1 9 10
M  V30 10 1 10 11
M  V30 11 1 11 12
M  V30 12 2 12 13
M  V30 13 1 13 14
M  V30 14 2 14 15
M  V30 15 1 15 16
M  V30 16 2 16 17
M  V30 17 1 17 18
M  V30 18 2 9 19
M  V30 19 1 19 20
M  V30 20 1 20 21
M  V30 21 1 21 22
M  V30 22 2 22 23
M  V30 23 1 23 24
M  V30 24 2 24 25
M  V30 25 1 25 26
M  V30 26 1 26 27
M  V30 27 2 27 28
M  V30 28 1 28 29
M  V30 29 2 6 30
M  V30 30 1 30 2
M  V30 31 2 20 7
M  V30 32 2 29 21
M  V30 33 1 17 12
M  V30 34 1 28 24
M  V30 35 1 1 31
M  V30 36 1 1 32
M  V30 37 1 1 33
M  V30 38 1 3 34
M  V30 39 1 4 35
M  V30 40 1 5 36
M  V30 41 1 8 37
M  V30 42 1 10 38
M  V30 43 1 10 39
M  V30 44 1 11 40
M  V30 45 1 13 41
M  V30 46 1 14 42
M  V30 47 1 15 43
M  V30 48 1 16 44
M  V30 49 1 18 45
M  V30 50 1 18 46
M  V30 51 1 18 47
M  V30 52 1 22 48
M  V30 53 1 23 49
M  V30 54 1 29 50
M  V30 END BOND
M  V30 END CTAB
M  END
>  <Dataset>  (759) 
ChEMBL_Kinases

>  <Ligand_Instance>  (759) 
nan

>  <PDB_ID>  (759) 
nan

>  <Standardized_SMILES>  (759) 
Cc1cccc(-c2[nH]c(CNc3ccccc3C)nc2-c2ccc3nsnc3c2)n1

>  <Name>  (759) 
nan

>  <Pocket>  (759) 
nan

>  <ATP_Site>  (759) 
nan

>  <Peripheral>  (759) 
nan

>  <Num_H_Atoms_ProtBoundConf>  (759) 
nan

>  <Num_Resolved_Atoms>  (759) 
nan

>  <Num_Not_Resolved_Atoms>  (759) 
nan

$$$$
CHEMBL231623
     RDKit          3D

  0  0  0  0  0  0  0  0  0  0999 V3000
M  V30 BEGIN CTAB
M  V30 COUNTS 37 39 0 0 0
M  V30 BEGIN ATOM
M  V30 1 N 0.940890 -4.556726 2.478467 0
M  V30 2 C -0.173889 -3.801029 2.033693 0
M  V30 3 O -1.312963 -4.324179 2.174990 0
M  V30 4 C -0.025993 -2.491945 1.444462 0
M  V30 5 C 1.248949 -1.959456 1.310539 0
M  V30 6 C 1.400103 -0.702001 0.745318 0
M  V30 7 C 2.711364 -0.065671 0.566904 0
M  V30 8 C 3.791700 -0.230375 1.383345 0
M  V30 9 C 4.995805 0.402587 1.151610 0
M  V30 10 C 5.100924 1.234352 0.045684 0
M  V30 11 F 6.292075 1.869147 -0.195366 0
M  V30 12 C 4.038310 1.434573 -0.810811 0
M  V30 13 C 2.849108 0.773379 -0.531546 0
M  V30 14 C 0.252517 -0.028228 0.335532 0
M  V30 15 C -1.026700 -0.537718 0.458530 0
M  V30 16 C -2.183066 0.198831 0.019321 0
M  V30 17 C -3.351941 0.333215 0.742287 0
M  V30 18 C -4.451761 1.042805 0.307591 0
M  V30 19 N -4.430536 1.660630 -0.891646 0
M  V30 20 C -3.282626 1.529888 -1.603987 0
M  V30 21 C -2.158938 0.830426 -1.208558 0
M  V30 22 C -1.140712 -1.794817 1.026788 0
M  V30 23 N -2.410709 -2.417254 1.202418 0
M  V30 24 H 1.781109 -5.091937 2.162362 0
M  V30 25 H 1.025886 -4.668051 3.532912 0
M  V30 26 H 2.146737 -2.489027 1.632243 0
M  V30 27 H 3.645607 -0.884812 2.219137 0
M  V30 28 H 5.816726 0.227231 1.842041 0
M  V30 29 H 4.204500 2.092505 -1.640570 0
M  V30 30 H 2.058580 0.986329 -1.258379 0
M  V30 31 H 0.375069 0.953563 -0.105283 0
M  V30 32 H -3.420190 -0.142930 1.710126 0
M  V30 33 H -5.335096 1.102075 0.934943 0
M  V30 34 H -3.276274 2.027922 -2.561660 0
M  V30 35 H -1.321793 0.807395 -1.866237 0
M  V30 36 H -2.986498 -2.870807 0.460748 0
M  V30 37 H -2.788627 -2.406312 2.195025 0
M  V30 END ATOM
M  V30 BEGIN BOND
M  V30 1 1 1 2
M  V30 2 2 2 3
M  V30 3 1 2 4
M  V30 4 2 4 5
M  V30 5 1 5 6
M  V30 6 1 6 7
M  V30 7 2 7 8
M  V30 8 1 8 9
M  V30 9 2 9 10
M  V30 10 1 10 11
M  V30 11 1 10 12
M  V30 12 2 12 13
M  V30 13 2 6 14
M  V30 14 1 14 15
M  V30 15 1 15 16
M  V30 16 2 16 17
M  V30 17 1 17 18
M  V30 18 2 18 19
M  V30 19 1 19 20
M  V30 20 2 20 21
M  V30 21 2 15 22
M  V30 22 1 22 23
M  V30 23 1 22 4
M  V30 24 1 13 7
M  V30 25 1 21 16
M  V30 26 1 1 24
M  V30 27 1 1 25
M  V30 28 1 5 26
M  V30 29 1 8 27
M  V30 30 1 9 28
M  V30 31 1 12 29
M  V30 32 1 13 30
M  V30 33 1 14 31
M  V30 34 1 17 32
M  V30 35 1 18 33
M  V30 36 1 20 34
M  V30 37 1 21 35
M  V30 38 1 23 36
M  V30 39 1 23 37
M  V30 END BOND
M  V30 END CTAB
M  END
>  <Dataset>  (760) 
ChEMBL_Kinases

>  <Ligand_Instance>  (760) 
nan

>  <PDB_ID>  (760) 
nan

>  <Standardized_SMILES>  (760) 
NC(=O)c1cc(-c2ccc(F)cc2)cc(-c2ccncc2)c1N

>  <Name>  (760) 
GSK-620503A

>  <Pocket>  (760) 
nan

>  <ATP_Site>  (760) 
nan

>  <Peripheral>  (760) 
nan

>  <Num_H_Atoms_ProtBoundConf>  (760) 
nan

>  <Num_Resolved_Atoms>  (760) 
nan

>  <Num_Not_Resolved_Atoms>  (760) 
nan

$$$$
CHEMBL4529533
     RDKit          3D

  0  0  0  0  0  0  0  0  0  0999 V3000
M  V30 BEGIN CTAB
M  V30 COUNTS 70 74 0 0 0
M  V30 BEGIN ATOM
M  V30 1 C 3.270556 -5.141488 4.516183 0
M  V30 2 C 4.214376 -4.269197 4.258389 0
M  V30 3 C 4.488067 -3.943857 2.855319 0
M  V30 4 N 4.290338 -2.519204 2.554018 0
M  V30 5 C 5.205277 -1.534872 2.632925 0
M  V30 6 O 6.402899 -1.639192 2.978396 0
M  V30 7 C 4.583671 -0.356732 2.258233 0
M  V30 8 C 4.950337 0.958745 2.129913 0
M  V30 9 N 4.062090 1.876659 1.727528 0
M  V30 10 C 2.789329 1.585527 1.430166 0
M  V30 11 N 1.908501 2.615382 1.009833 0
M  V30 12 C 0.539395 2.536760 0.644859 0
M  V30 13 C -0.158835 3.647065 0.260095 0
M  V30 14 C -1.484081 3.609509 -0.100762 0
M  V30 15 C -2.183808 2.429957 -0.091573 0
M  V30 16 N -3.565598 2.373379 -0.468152 0
M  V30 17 C -4.435357 1.228327 -0.458986 0
M  V30 18 C -4.788358 0.858413 -1.901914 0
M  V30 19 N -4.970539 2.064779 -2.694780 0
M  V30 20 C -5.844304 1.855679 -3.810957 0
M  V30 21 C -5.406623 3.160349 -1.838207 0
M  V30 22 C -4.257540 3.560728 -0.929364 0
M  V30 23 C -1.527803 1.287402 0.287069 0
M  V30 24 C -0.197493 1.371383 0.641325 0
M  V30 25 N 2.466272 0.294038 1.566350 0
M  V30 26 C 3.285994 -0.687697 1.961106 0
M  V30 27 N 3.128009 -2.012247 2.148172 0
M  V30 28 C 1.870457 -2.660944 1.916843 0
M  V30 29 C 1.024731 -3.162867 2.888203 0
M  V30 30 C -0.156993 -3.762486 2.500303 0
M  V30 31 C -0.473187 -3.850790 1.159253 0
M  V30 32 C 0.352912 -3.356762 0.146640 0
M  V30 33 C -0.029838 -3.474013 -1.283586 0
M  V30 34 C -0.833039 -2.246349 -1.726066 0
M  V30 35 C 1.132038 -3.694382 -2.197163 0
M  V30 36 O -0.894109 -4.570158 -1.454523 0
M  V30 37 C 1.528617 -2.763116 0.582119 0
M  V30 38 H 2.482522 -5.866770 4.675719 0
M  V30 39 H 2.660203 -5.732138 5.186970 0
M  V30 40 H 4.746175 -3.831066 5.090266 0
M  V30 41 H 3.897209 -4.547254 2.148168 0
M  V30 42 H 5.581134 -4.150550 2.668660 0
M  V30 43 H 5.961201 1.235793 2.358260 0
M  V30 44 H 2.330373 3.589312 0.959426 0
M  V30 45 H 0.353222 4.603673 0.237242 0
M  V30 46 H -1.949311 4.545126 -0.390055 0
M  V30 47 H -4.060303 0.344283 0.050061 0
M  V30 48 H -5.425577 1.495904 0.008421 0
M  V30 49 H -5.692410 0.241135 -1.850663 0
M  V30 50 H -3.989057 0.260231 -2.380898 0
M  V30 51 H -6.139526 0.780321 -3.807681 0
M  V30 52 H -5.293827 1.983026 -4.779329 0
M  V30 53 H -6.769088 2.457133 -3.798715 0
M  V30 54 H -5.619996 4.012873 -2.526042 0
M  V30 55 H -6.306122 2.942146 -1.258692 0
M  V30 56 H -4.738909 4.124958 -0.089057 0
M  V30 57 H -3.600468 4.234078 -1.522115 0
M  V30 58 H -2.053265 0.332497 0.305340 0
M  V30 59 H 0.246192 0.443191 0.924102 0
M  V30 60 H 1.368041 -3.041102 3.908520 0
M  V30 61 H -0.804167 -4.148441 3.276650 0
M  V30 62 H -1.404960 -4.324328 0.863110 0
M  V30 63 H -0.812429 -2.167728 -2.833234 0
M  V30 64 H -0.404854 -1.304667 -1.330219 0
M  V30 65 H -1.893752 -2.387908 -1.437039 0
M  V30 66 H 1.917685 -2.936460 -2.167438 0
M  V30 67 H 1.493333 -4.726757 -2.075324 0
M  V30 68 H 0.712453 -3.631101 -3.240616 0
M  V30 69 H -0.950822 -4.744267 -2.434810 0
M  V30 70 H 2.154506 -2.387197 -0.217690 0
M  V30 END ATOM
M  V30 BEGIN BOND
M  V30 1 2 1 2
M  V30 2 1 2 3
M  V30 3 1 3 4
M  V30 4 1 4 5
M  V30 5 2 5 6
M  V30 6 1 5 7
M  V30 7 2 7 8
M  V30 8 1 8 9
M  V30 9 2 9 10
M  V30 10 1 10 11
M  V30 11 1 11 12
M  V30 12 2 12 13
M  V30 13 1 13 14
M  V30 14 2 14 15
M  V30 15 1 15 16
M  V30 16 1 16 17
M  V30 17 1 17 18
M  V30 18 1 18 19
M  V30 19 1 19 20
M  V30 20 1 19 21
M  V30 21 1 21 22
M  V30 22 1 15 23
M  V30 23 2 23 24
M  V30 24 1 10 25
M  V30 25 2 25 26
M  V30 26 1 26 27
M  V30 27 1 27 28
M  V30 28 2 28 29
M  V30 29 1 29 30
M  V30 30 2 30 31
M  V30 31 1 31 32
M  V30 32 1 32 33
M  V30 33 1 33 34
M  V30 34 1 33 35
M  V30 35 1 33 36
M  V30 36 2 32 37
M  V30 37 1 27 4
M  V30 38 1 37 28
M  V30 39 1 26 7
M  V30 40 1 24 12
M  V30 41 1 22 16
M  V30 42 1 1 38
M  V30 43 1 1 39
M  V30 44 1 2 40
M  V30 45 1 3 41
M  V30 46 1 3 42
M  V30 47 1 8 43
M  V30 48 1 11 44
M  V30 49 1 13 45
M  V30 50 1 14 46
M  V30 51 1 17 47
M  V30 52 1 17 48
M  V30 53 1 18 49
M  V30 54 1 18 50
M  V30 55 1 20 51
M  V30 56 1 20 52
M  V30 57 1 20 53
M  V30 58 1 21 54
M  V30 59 1 21 55
M  V30 60 1 22 56
M  V30 61 1 22 57
M  V30 62 1 23 58
M  V30 63 1 24 59
M  V30 64 1 29 60
M  V30 65 1 30 61
M  V30 66 1 31 62
M  V30 67 1 34 63
M  V30 68 1 34 64
M  V30 69 1 34 65
M  V30 70 1 35 66
M  V30 71 1 35 67
M  V30 72 1 35 68
M  V30 73 1 36 69
M  V30 74 1 37 70
M  V30 END BOND
M  V30 END CTAB
M  END
>  <Dataset>  (761) 
ChEMBL_Kinases

>  <Ligand_Instance>  (761) 
nan

>  <PDB_ID>  (761) 
nan

>  <Standardized_SMILES>  (761) 
C=CCn1c(=O)c2cnc(Nc3ccc(N4CCN(C)CC4)cc3)nc2n1-c1cccc(C(C)(C)O)c1

>  <Name>  (761) 
nan

>  <Pocket>  (761) 
nan

>  <ATP_Site>  (761) 
nan

>  <Peripheral>  (761) 
nan

>  <Num_H_Atoms_ProtBoundConf>  (761) 
nan

>  <Num_Resolved_Atoms>  (761) 
nan

>  <Num_Not_Resolved_Atoms>  (761) 
nan

$$$$
CHEMBL3699734
     RDKit          3D

  0  0  0  0  0  0  0  0  0  0999 V3000
M  V30 BEGIN CTAB
M  V30 COUNTS 61 66 0 0 0
M  V30 BEGIN ATOM
M  V30 1 N 4.321671 -6.033306 2.562052 0
M  V30 2 C 3.111211 -6.132253 1.761057 0
M  V30 3 C 2.690181 -4.847337 1.150699 0
M  V30 4 C 2.745504 -3.803617 2.067438 0
M  V30 5 C 2.401769 -2.512784 1.729741 0
M  V30 6 C 1.987874 -2.240943 0.441285 0
M  V30 7 C 1.571364 -0.963503 -0.155573 0
M  V30 8 N 2.173477 -0.321692 -1.174104 0
M  V30 9 C 1.486977 0.828385 -1.444707 0
M  V30 10 C 1.693577 1.834517 -2.395546 0
M  V30 11 C 0.813703 2.927800 -2.456109 0
M  V30 12 C -0.191443 2.866673 -1.523961 0
M  V30 13 C -1.081645 4.008857 -1.624693 0
M  V30 14 O -0.912363 4.969404 -2.477573 0
M  V30 15 N -2.233469 4.506143 -1.030100 0
M  V30 16 C -3.388177 5.119431 -0.519785 0
M  V30 17 C -4.486377 5.304355 -1.547597 0
M  V30 18 C -5.063383 4.116959 -2.232360 0
M  V30 19 C -5.826561 4.724277 -1.127146 0
M  V30 20 C -0.424226 1.897864 -0.578350 0
M  V30 21 N 0.458443 0.876443 -0.574699 0
M  V30 22 C 0.464918 -0.197836 0.237621 0
M  V30 23 C -0.398177 -0.608654 1.318683 0
M  V30 24 C -1.144364 -1.783716 1.321193 0
M  V30 25 C -1.960132 -2.159616 2.365073 0
M  V30 26 C -2.030077 -1.327260 3.446519 0
M  V30 27 C -1.317689 -0.148231 3.511040 0
M  V30 28 C -0.507366 0.205958 2.450525 0
M  V30 29 C 1.928720 -3.267037 -0.477200 0
M  V30 30 C 2.274637 -4.557315 -0.133132 0
M  V30 31 C 3.067687 -7.344090 0.859961 0
M  V30 32 C 1.617508 -7.494639 1.260372 0
M  V30 33 C 1.957708 -6.741877 2.526035 0
M  V30 34 H 3.973027 -5.738893 3.523400 0
M  V30 35 H 4.826421 -5.156184 2.232050 0
M  V30 36 H 3.056209 -3.887721 3.114981 0
M  V30 37 H 2.408335 -1.633102 2.356467 0
M  V30 38 H 2.518960 1.796073 -3.093528 0
M  V30 39 H 0.960535 3.708950 -3.181495 0
M  V30 40 H -2.295562 3.639358 -0.358027 0
M  V30 41 H -3.826233 4.767450 0.413843 0
M  V30 42 H -3.069181 6.189959 -0.244862 0
M  V30 43 H -4.446645 6.266302 -2.084951 0
M  V30 44 H -5.407469 4.297584 -3.273196 0
M  V30 45 H -4.592922 3.127749 -2.065215 0
M  V30 46 H -5.918200 4.176262 -0.184536 0
M  V30 47 H -6.716864 5.374007 -1.325943 0
M  V30 48 H -1.251991 1.954119 0.107642 0
M  V30 49 H -1.065127 -2.431366 0.437906 0
M  V30 50 H -2.505861 -3.095607 2.280422 0
M  V30 51 H -2.654468 -1.576294 4.289259 0
M  V30 52 H -1.376946 0.513644 4.380931 0
M  V30 53 H 0.029913 1.138626 2.546062 0
M  V30 54 H 1.625942 -3.192864 -1.500248 0
M  V30 55 H 2.265477 -5.420911 -0.768440 0
M  V30 56 H 3.680653 -8.162023 1.314620 0
M  V30 57 H 3.254894 -7.169017 -0.211381 0
M  V30 58 H 0.984915 -6.876678 0.618563 0
M  V30 59 H 1.283435 -8.539853 1.419124 0
M  V30 60 H 1.206614 -5.977269 2.823015 0
M  V30 61 H 2.222847 -7.454284 3.332309 0
M  V30 END ATOM
M  V30 BEGIN BOND
M  V30 1 1 1 2
M  V30 2 1 2 3
M  V30 3 2 3 4
M  V30 4 1 4 5
M  V30 5 2 5 6
M  V30 6 1 6 7
M  V30 7 1 7 8
M  V30 8 2 8 9
M  V30 9 1 9 10
M  V30 10 2 10 11
M  V30 11 1 11 12
M  V30 12 1 12 13
M  V30 13 2 13 14
M  V30 14 1 13 15
M  V30 15 1 15 16
M  V30 16 1 16 17
M  V30 17 1 17 18
M  V30 18 1 18 19
M  V30 19 2 12 20
M  V30 20 1 20 21
M  V30 21 1 21 22
M  V30 22 1 22 23
M  V30 23 2 23 24
M  V30 24 1 24 25
M  V30 25 2 25 26
M  V30 26 1 26 27
M  V30 27 2 27 28
M  V30 28 1 6 29
M  V30 29 2 29 30
M  V30 30 1 2 31
M  V30 31 1 31 32
M  V30 32 1 32 33
M  V30 33 1 33 2
M  V30 34 1 30 3
M  V30 35 2 22 7
M  V30 36 1 28 23
M  V30 37 1 21 9
M  V30 38 1 19 17
M  V30 39 1 1 34
M  V30 40 1 1 35
M  V30 41 1 4 36
M  V30 42 1 5 37
M  V30 43 1 10 38
M  V30 44 1 11 39
M  V30 45 1 15 40
M  V30 46 1 16 41
M  V30 47 1 16 42
M  V30 48 1 17 43
M  V30 49 1 18 44
M  V30 50 1 18 45
M  V30 51 1 19 46
M  V30 52 1 19 47
M  V30 53 1 20 48
M  V30 54 1 24 49
M  V30 55 1 25 50
M  V30 56 1 26 51
M  V30 57 1 27 52
M  V30 58 1 28 53
M  V30 59 1 29 54
M  V30 60 1 30 55
M  V30 61 1 31 56
M  V30 62 1 31 57
M  V30 63 1 32 58
M  V30 64 1 32 59
M  V30 65 1 33 60
M  V30 66 1 33 61
M  V30 END BOND
M  V30 END CTAB
M  END
>  <Dataset>  (762) 
ChEMBL_Kinases

>  <Ligand_Instance>  (762) 
nan

>  <PDB_ID>  (762) 
nan

>  <Standardized_SMILES>  (762) 
NC1(c2ccc(-c3nc4ccc(C(=O)NCC5CC5)cn4c3-c3ccccc3)cc2)CCC1

>  <Name>  (762) 
nan

>  <Pocket>  (762) 
nan

>  <ATP_Site>  (762) 
nan

>  <Peripheral>  (762) 
nan

>  <Num_H_Atoms_ProtBoundConf>  (762) 
nan

>  <Num_Resolved_Atoms>  (762) 
nan

>  <Num_Not_Resolved_Atoms>  (762) 
nan

$$$$
CHEMBL4529033
     RDKit          3D

  0  0  0  0  0  0  0  0  0  0999 V3000
M  V30 BEGIN CTAB
M  V30 COUNTS 52 55 0 0 0
M  V30 BEGIN ATOM
M  V30 1 O 1.665127 -1.864849 2.278466 0
M  V30 2 C 1.792041 -0.662015 2.629688 0
M  V30 3 C 3.020339 -0.587172 3.427085 0
M  V30 4 O 3.297169 0.716890 3.887357 0
M  V30 5 C 3.544459 1.805026 3.073711 0
M  V30 6 C 3.610502 1.990169 1.705348 0
M  V30 7 C 3.883128 3.222432 1.165779 0
M  V30 8 C 4.101685 4.323122 1.965565 0
M  V30 9 C 4.367372 5.511465 1.301778 0
M  V30 10 O 4.401550 5.556437 0.038122 0
M  V30 11 C 4.587489 6.618275 2.087043 0
M  V30 12 C 4.516906 6.410357 3.441327 0
M  V30 13 O 4.262043 5.264561 4.013793 0
M  V30 14 C 4.043417 4.174654 3.335719 0
M  V30 15 C 3.765974 2.920966 3.887857 0
M  V30 16 N 0.795749 0.248504 2.202965 0
M  V30 17 C -0.360752 0.057444 1.419807 0
M  V30 18 C -1.112913 1.188394 1.197753 0
M  V30 19 C -2.264544 1.130019 0.448263 0
M  V30 20 C -2.643137 -0.086556 -0.072066 0
M  V30 21 C -1.936958 -1.248629 0.113474 0
M  V30 22 N -2.269382 -2.527927 -0.392123 0
M  V30 23 C -3.369248 -2.908254 -1.185166 0
M  V30 24 O -4.191191 -2.031915 -1.512984 0
M  V30 25 C -3.616360 -4.264987 -1.653519 0
M  V30 26 C -2.818308 -5.356975 -1.387709 0
M  V30 27 C -3.064789 -6.637549 -1.838461 0
M  V30 28 C -4.184642 -6.860609 -2.611449 0
M  V30 29 C -4.562436 -8.160690 -3.151328 0
M  V30 30 O -5.566307 -8.451315 -3.865038 0
M  V30 31 O -3.913860 -9.369345 -3.008342 0
M  V30 32 C -5.027636 -5.813072 -2.916364 0
M  V30 33 C -4.716827 -4.559597 -2.430328 0
M  V30 34 C -0.797422 -1.115977 0.872220 0
M  V30 35 H 2.919807 -1.240105 4.324562 0
M  V30 36 H 3.888850 -1.009105 2.855866 0
M  V30 37 H 3.417531 1.037692 1.210523 0
M  V30 38 H 3.904834 3.225529 0.085128 0
M  V30 39 H 4.800464 7.578743 1.641140 0
M  V30 40 H 4.683692 7.254287 4.096474 0
M  V30 41 H 3.759514 2.989421 4.969791 0
M  V30 42 H 1.043182 1.187856 2.592581 0
M  V30 43 H -0.832652 2.174682 1.602446 0
M  V30 44 H -2.835018 2.030036 0.289530 0
M  V30 45 H -3.534946 -0.078741 -0.640346 0
M  V30 46 H -1.650788 -3.338426 -0.180050 0
M  V30 47 H -1.930397 -5.232525 -0.786722 0
M  V30 48 H -2.415632 -7.468553 -1.609272 0
M  V30 49 H -3.574440 -9.927872 -3.777444 0
M  V30 50 H -5.906084 -5.952627 -3.514669 0
M  V30 51 H -5.401551 -3.754130 -2.688365 0
M  V30 52 H -0.210263 -2.003986 1.044273 0
M  V30 END ATOM
M  V30 BEGIN BOND
M  V30 1 2 1 2
M  V30 2 1 2 3
M  V30 3 1 3 4
M  V30 4 1 4 5
M  V30 5 2 5 6
M  V30 6 1 6 7
M  V30 7 2 7 8
M  V30 8 1 8 9
M  V30 9 2 9 10
M  V30 10 1 9 11
M  V30 11 2 11 12
M  V30 12 1 12 13
M  V30 13 1 13 14
M  V30 14 2 14 15
M  V30 15 1 2 16
M  V30 16 1 16 17
M  V30 17 2 17 18
M  V30 18 1 18 19
M  V30 19 2 19 20
M  V30 20 1 20 21
M  V30 21 1 21 22
M  V30 22 1 22 23
M  V30 23 2 23 24
M  V30 24 1 23 25
M  V30 25 2 25 26
M  V30 26 1 26 27
M  V30 27 2 27 28
M  V30 28 1 28 29
M  V30 29 2 29 30
M  V30 30 1 29 31
M  V30 31 1 28 32
M  V30 32 2 32 33
M  V30 33 2 21 34
M  V30 34 1 15 5
M  V30 35 1 34 17
M  V30 36 1 14 8
M  V30 37 1 33 25
M  V30 38 1 3 35
M  V30 39 1 3 36
M  V30 40 1 6 37
M  V30 41 1 7 38
M  V30 42 1 11 39
M  V30 43 1 12 40
M  V30 44 1 15 41
M  V30 45 1 16 42
M  V30 46 1 18 43
M  V30 47 1 19 44
M  V30 48 1 20 45
M  V30 49 1 22 46
M  V30 50 1 26 47
M  V30 51 1 27 48
M  V30 52 1 31 49
M  V30 53 1 32 50
M  V30 54 1 33 51
M  V30 55 1 34 52
M  V30 END BOND
M  V30 END CTAB
M  END
>  <Dataset>  (763) 
ChEMBL_Kinases

>  <Ligand_Instance>  (763) 
nan

>  <PDB_ID>  (763) 
nan

>  <Standardized_SMILES>  (763) 
O=C(COc1ccc2c(=O)ccoc2c1)Nc1cccc(NC(=O)c2ccc(C(=O)O)cc2)c1

>  <Name>  (763) 
nan

>  <Pocket>  (763) 
nan

>  <ATP_Site>  (763) 
nan

>  <Peripheral>  (763) 
nan

>  <Num_H_Atoms_ProtBoundConf>  (763) 
nan

>  <Num_Resolved_Atoms>  (763) 
nan

>  <Num_Not_Resolved_Atoms>  (763) 
nan

$$$$
CHEMBL3699733
     RDKit          3D

  0  0  0  0  0  0  0  0  0  0999 V3000
M  V30 BEGIN CTAB
M  V30 COUNTS 58 63 0 0 0
M  V30 BEGIN ATOM
M  V30 1 N -1.967927 -5.649922 -3.603253 0
M  V30 2 C -0.710321 -5.006107 -3.922949 0
M  V30 3 C -0.408626 -3.946758 -2.953172 0
M  V30 4 C 0.759964 -3.697979 -2.266506 0
M  V30 5 C 0.830720 -2.633354 -1.389717 0
M  V30 6 C -0.241784 -1.783956 -1.162251 0
M  V30 7 C 0.038322 -0.728040 -0.211318 0
M  V30 8 N 0.972313 0.198651 -0.581317 0
M  V30 9 C 1.084782 1.097580 0.440847 0
M  V30 10 C 1.924485 2.208286 0.483632 0
M  V30 11 C 1.829420 2.944502 1.646087 0
M  V30 12 C 0.978182 2.614906 2.680743 0
M  V30 13 C 0.878834 3.395591 3.909539 0
M  V30 14 O 0.083269 3.072648 4.853280 0
M  V30 15 N 1.635557 4.560580 4.172765 0
M  V30 16 C 1.531606 5.331511 5.396269 0
M  V30 17 C 2.853011 5.839733 5.962917 0
M  V30 18 C 1.919238 6.804322 5.280630 0
M  V30 19 C 0.174673 1.497947 2.566521 0
M  V30 20 N 0.249697 0.761665 1.439019 0
M  V30 21 C -0.390058 -0.366995 1.023373 0
M  V30 22 C -1.382691 -1.125865 1.728817 0
M  V30 23 C -0.835074 -1.671597 2.897327 0
M  V30 24 C -1.602878 -2.456393 3.766002 0
M  V30 25 C -2.914575 -2.676023 3.436584 0
M  V30 26 C -3.479620 -2.151486 2.293138 0
M  V30 27 C -2.711257 -1.392344 1.466479 0
M  V30 28 C -1.414577 -2.033870 -1.851554 0
M  V30 29 C -1.483436 -3.105081 -2.732785 0
M  V30 30 C 0.372521 -5.982622 -4.246372 0
M  V30 31 C -0.014718 -5.878833 -5.723202 0
M  V30 32 C -0.681300 -4.567070 -5.377805 0
M  V30 33 H -2.022691 -6.518174 -4.211852 0
M  V30 34 H -2.760631 -5.055443 -3.940616 0
M  V30 35 H 1.553062 -4.393563 -2.488313 0
M  V30 36 H 1.807815 -2.535717 -0.903256 0
M  V30 37 H 2.599441 2.501912 -0.292651 0
M  V30 38 H 2.462334 3.817448 1.727291 0
M  V30 39 H 2.310542 4.893720 3.451928 0
M  V30 40 H 0.834823 5.023227 6.176240 0
M  V30 41 H 2.949692 5.992808 7.055816 0
M  V30 42 H 3.790675 5.545173 5.421407 0
M  V30 43 H 1.353992 7.530887 5.898906 0
M  V30 44 H 2.260234 7.143528 4.278740 0
M  V30 45 H -0.513233 1.193497 3.350283 0
M  V30 46 H 0.198553 -1.563073 3.261697 0
M  V30 47 H -1.210491 -2.891148 4.673343 0
M  V30 48 H -3.561536 -3.268625 4.056608 0
M  V30 49 H -4.503791 -2.268970 1.948715 0
M  V30 50 H -3.029057 -0.925207 0.549270 0
M  V30 51 H -2.206101 -1.359087 -1.647879 0
M  V30 52 H -2.456045 -3.175285 -3.195619 0
M  V30 53 H 0.167260 -7.006172 -3.818446 0
M  V30 54 H 1.404842 -5.652803 -4.085035 0
M  V30 55 H 0.878877 -5.796439 -6.380632 0
M  V30 56 H -0.757662 -6.630488 -6.058563 0
M  V30 57 H 0.011674 -3.699253 -5.561689 0
M  V30 58 H -1.695722 -4.414234 -5.800195 0
M  V30 END ATOM
M  V30 BEGIN BOND
M  V30 1 1 1 2
M  V30 2 1 2 3
M  V30 3 2 3 4
M  V30 4 1 4 5
M  V30 5 2 5 6
M  V30 6 1 6 7
M  V30 7 1 7 8
M  V30 8 2 8 9
M  V30 9 1 9 10
M  V30 10 2 10 11
M  V30 11 1 11 12
M  V30 12 1 12 13
M  V30 13 2 13 14
M  V30 14 1 13 15
M  V30 15 1 15 16
M  V30 16 1 16 17
M  V30 17 1 17 18
M  V30 18 2 12 19
M  V30 19 1 19 20
M  V30 20 1 20 21
M  V30 21 1 21 22
M  V30 22 2 22 23
M  V30 23 1 23 24
M  V30 24 2 24 25
M  V30 25 1 25 26
M  V30 26 2 26 27
M  V30 27 1 6 28
M  V30 28 2 28 29
M  V30 29 1 2 30
M  V30 30 1 30 31
M  V30 31 1 31 32
M  V30 32 1 32 2
M  V30 33 1 29 3
M  V30 34 2 21 7
M  V30 35 1 27 22
M  V30 36 1 20 9
M  V30 37 1 18 16
M  V30 38 1 1 33
M  V30 39 1 1 34
M  V30 40 1 4 35
M  V30 41 1 5 36
M  V30 42 1 10 37
M  V30 43 1 11 38
M  V30 44 1 15 39
M  V30 45 1 16 40
M  V30 46 1 17 41
M  V30 47 1 17 42
M  V30 48 1 18 43
M  V30 49 1 18 44
M  V30 50 1 19 45
M  V30 51 1 23 46
M  V30 52 1 24 47
M  V30 53 1 25 48
M  V30 54 1 26 49
M  V30 55 1 27 50
M  V30 56 1 28 51
M  V30 57 1 29 52
M  V30 58 1 30 53
M  V30 59 1 30 54
M  V30 60 1 31 55
M  V30 61 1 31 56
M  V30 62 1 32 57
M  V30 63 1 32 58
M  V30 END BOND
M  V30 END CTAB
M  END
>  <Dataset>  (764) 
ChEMBL_Kinases

>  <Ligand_Instance>  (764) 
nan

>  <PDB_ID>  (764) 
nan

>  <Standardized_SMILES>  (764) 
NC1(c2ccc(-c3nc4ccc(C(=O)NC5CC5)cn4c3-c3ccccc3)cc2)CCC1

>  <Name>  (764) 
nan

>  <Pocket>  (764) 
nan

>  <ATP_Site>  (764) 
nan

>  <Peripheral>  (764) 
nan

>  <Num_H_Atoms_ProtBoundConf>  (764) 
nan

>  <Num_Resolved_Atoms>  (764) 
nan

>  <Num_Not_Resolved_Atoms>  (764) 
nan

$$$$
CHEMBL4528881
     RDKit          3D

  0  0  0  0  0  0  0  0  0  0999 V3000
M  V30 BEGIN CTAB
M  V30 COUNTS 50 53 0 0 0
M  V30 BEGIN ATOM
M  V30 1 C -0.402042 -4.357112 1.506873 0
M  V30 2 C 0.399427 -4.093976 0.250829 0
M  V30 3 N 0.179209 -5.234469 -0.619484 0
M  V30 4 C 1.850092 -3.941252 0.521118 0
M  V30 5 C 2.463446 -2.629273 0.241647 0
M  V30 6 C 1.637170 -1.417773 0.611992 0
M  V30 7 N 2.056450 -0.287958 -0.143147 0
M  V30 8 C 2.107293 1.070356 -0.499761 0
M  V30 9 C 2.789076 1.730566 -1.538411 0
M  V30 10 C 2.514629 3.061134 -1.416743 0
M  V30 11 N 1.709887 3.281288 -0.375246 0
M  V30 12 N 1.269878 4.464089 0.014598 0
M  V30 13 C 0.461996 4.550905 1.105279 0
M  V30 14 N 0.162512 3.396488 1.723305 0
M  V30 15 C 0.654098 2.234338 1.259310 0
M  V30 16 N 0.240733 1.137242 2.050581 0
M  V30 17 C -1.184890 0.943026 1.905481 0
M  V30 18 C -1.989559 1.604798 1.001041 0
M  V30 19 C -3.345570 1.430137 0.872001 0
M  V30 20 O -4.047121 2.162466 -0.084690 0
M  V30 21 C -3.946895 0.524967 1.709465 0
M  V30 22 C -3.250002 -0.196939 2.653996 0
M  V30 23 Br -4.066617 -1.458052 3.828675 0
M  V30 24 C -1.897743 0.047243 2.707133 0
M  V30 25 C 1.470525 2.087292 0.167699 0
M  V30 26 C 0.167223 -1.668085 0.344712 0
M  V30 27 C -0.071193 -2.890054 -0.508589 0
M  V30 28 H -0.135017 -5.399867 1.852382 0
M  V30 29 H -1.483791 -4.357047 1.268703 0
M  V30 30 H -0.228588 -3.649999 2.317757 0
M  V30 31 H -0.852161 -5.339037 -0.849969 0
M  V30 32 H 0.401627 -6.075050 -0.036441 0
M  V30 33 H 2.048622 -4.288501 1.579803 0
M  V30 34 H 2.411281 -4.705399 -0.091813 0
M  V30 35 H 2.745231 -2.486225 -0.832603 0
M  V30 36 H 3.422456 -2.551665 0.790961 0
M  V30 37 H 1.840163 -1.233110 1.683113 0
M  V30 38 H 2.683271 -0.757843 -0.824760 0
M  V30 39 H 3.405341 1.225316 -2.273666 0
M  V30 40 H 2.964931 3.715616 -2.143188 0
M  V30 41 H 0.121493 5.529245 1.396817 0
M  V30 42 H 0.694969 0.481782 2.687623 0
M  V30 43 H -1.520415 2.317871 0.338387 0
M  V30 44 H -3.862139 2.118227 -1.078305 0
M  V30 45 H -5.025612 0.365252 1.629468 0
M  V30 46 H -1.345003 -0.527687 3.460375 0
M  V30 47 H -0.311833 -1.887178 1.313021 0
M  V30 48 H -0.284728 -0.817632 -0.184552 0
M  V30 49 H -1.166940 -2.991783 -0.649806 0
M  V30 50 H 0.446350 -2.878117 -1.473703 0
M  V30 END ATOM
M  V30 BEGIN BOND
M  V30 1 1 1 2
M  V30 2 1 2 3
M  V30 3 1 2 4
M  V30 4 1 4 5
M  V30 5 1 5 6
M  V30 6 1 6 7
M  V30 7 1 7 8
M  V30 8 1 8 9
M  V30 9 2 9 10
M  V30 10 1 10 11
M  V30 11 1 11 12
M  V30 12 2 12 13
M  V30 13 1 13 14
M  V30 14 2 14 15
M  V30 15 1 15 16
M  V30 16 1 16 17
M  V30 17 2 17 18
M  V30 18 1 18 19
M  V30 19 1 19 20
M  V30 20 2 19 21
M  V30 21 1 21 22
M  V30 22 1 22 23
M  V30 23 2 22 24
M  V30 24 1 15 25
M  V30 25 1 6 26
M  V30 26 1 26 27
M  V30 27 1 27 2
M  V30 28 2 25 8
M  V30 29 1 25 11
M  V30 30 1 24 17
M  V30 31 1 1 28
M  V30 32 1 1 29
M  V30 33 1 1 30
M  V30 34 1 3 31
M  V30 35 1 3 32
M  V30 36 1 4 33
M  V30 37 1 4 34
M  V30 38 1 5 35
M  V30 39 1 5 36
M  V30 40 1 6 37
M  V30 41 1 7 38
M  V30 42 1 9 39
M  V30 43 1 10 40
M  V30 44 1 13 41
M  V30 45 1 16 42
M  V30 46 1 18 43
M  V30 47 1 20 44
M  V30 48 1 21 45
M  V30 49 1 24 46
M  V30 50 1 26 47
M  V30 51 1 26 48
M  V30 52 1 27 49
M  V30 53 1 27 50
M  V30 END BOND
M  V30 END CTAB
M  END
>  <Dataset>  (765) 
ChEMBL_Kinases

>  <Ligand_Instance>  (765) 
nan

>  <PDB_ID>  (765) 
nan

>  <Standardized_SMILES>  (765) 
CC1(N)CCC(Nc2ccn3ncnc(Nc4cc(O)cc(Br)c4)c23)CC1

>  <Name>  (765) 
nan

>  <Pocket>  (765) 
nan

>  <ATP_Site>  (765) 
nan

>  <Peripheral>  (765) 
nan

>  <Num_H_Atoms_ProtBoundConf>  (765) 
nan

>  <Num_Resolved_Atoms>  (765) 
nan

>  <Num_Not_Resolved_Atoms>  (765) 
nan

$$$$
CHEMBL4528809
     RDKit          3D

  0  0  0  0  0  0  0  0  0  0999 V3000
M  V30 BEGIN CTAB
M  V30 COUNTS 70 74 0 0 0
M  V30 BEGIN ATOM
M  V30 1 C 1.620708 -1.329467 5.449309 0
M  V30 2 N 2.504411 -0.992160 4.329219 0
M  V30 3 C 3.871693 -1.203319 4.753306 0
M  V30 4 C 4.791904 -0.512240 3.776005 0
M  V30 5 C 4.528049 -1.081604 2.414137 0
M  V30 6 N 3.886126 -0.056876 1.574584 0
M  V30 7 C 4.381931 0.446788 0.375042 0
M  V30 8 O 5.440607 0.155542 -0.218305 0
M  V30 9 C 3.564747 1.451369 -0.294982 0
M  V30 10 C 4.074933 2.171122 -1.389366 0
M  V30 11 C 3.308401 3.104429 -2.056234 0
M  V30 12 C 1.982630 3.370591 -1.662020 0
M  V30 13 N 1.257721 4.347136 -2.418875 0
M  V30 14 C -0.178538 4.385467 -2.259431 0
M  V30 15 N -1.166444 5.078983 -1.675901 0
M  V30 16 C -2.451841 4.663995 -1.836764 0
M  V30 17 C -2.826436 3.558417 -2.570947 0
M  V30 18 F -4.144021 3.324458 -2.622948 0
M  V30 19 C -1.797679 2.857620 -3.161504 0
M  V30 20 N -2.172762 1.692206 -3.936255 0
M  V30 21 C -2.508593 0.460311 -3.310056 0
M  V30 22 C -2.458879 -0.757225 -4.008463 0
M  V30 23 C -2.815667 -1.964702 -3.403077 0
M  V30 24 C -3.233788 -1.975018 -2.071869 0
M  V30 25 C -3.569180 -3.293094 -1.552270 0
M  V30 26 O -3.297732 -4.317642 -2.221108 0
M  V30 27 N -4.205649 -3.430563 -0.285974 0
M  V30 28 C -4.675048 -4.485576 0.528652 0
M  V30 29 C -5.948507 -4.990149 0.348056 0
M  V30 30 C -6.386214 -6.027808 1.180749 0
M  V30 31 C -5.486635 -6.467198 2.132847 0
M  V30 32 C -4.209415 -5.984832 2.337922 0
M  V30 33 C -3.791807 -4.961677 1.507763 0
M  V30 34 Cl -2.184218 -4.308601 1.717444 0
M  V30 35 C -3.281702 -0.784488 -1.391670 0
M  V30 36 C -2.926448 0.413686 -1.992383 0
M  V30 37 N -0.519342 3.302342 -2.979896 0
M  V30 38 C 1.484279 2.670886 -0.590942 0
M  V30 39 C 2.270224 1.745658 0.054899 0
M  V30 40 C 3.516265 -2.238956 2.485135 0
M  V30 41 C 2.244988 -1.777250 3.156855 0
M  V30 42 H 1.450725 -2.419079 5.501708 0
M  V30 43 H 2.026003 -0.973641 6.398848 0
M  V30 44 H 0.632250 -0.843478 5.244279 0
M  V30 45 H 4.009951 -0.763493 5.766186 0
M  V30 46 H 4.110600 -2.287893 4.721763 0
M  V30 47 H 5.862142 -0.696310 4.044375 0
M  V30 48 H 4.620913 0.580529 3.773682 0
M  V30 49 H 5.434453 -1.506999 1.946593 0
M  V30 50 H 3.016044 0.197558 2.078114 0
M  V30 51 H 5.094229 1.973654 -1.709046 0
M  V30 52 H 3.675014 3.665903 -2.895128 0
M  V30 53 H 1.762326 4.995718 -3.051027 0
M  V30 54 H -3.079084 5.371600 -1.276360 0
M  V30 55 H -2.221382 1.672841 -4.980642 0
M  V30 56 H -2.135279 -0.773323 -5.051574 0
M  V30 57 H -2.746436 -2.861311 -4.027434 0
M  V30 58 H -4.426096 -2.565547 0.257393 0
M  V30 59 H -6.624683 -4.624043 -0.397313 0
M  V30 60 H -7.372120 -6.460735 1.093120 0
M  V30 61 H -5.811611 -7.278312 2.798426 0
M  V30 62 H -3.602717 -6.433404 3.139692 0
M  V30 63 H -3.609604 -0.815257 -0.375166 0
M  V30 64 H -3.000555 1.272793 -1.374521 0
M  V30 65 H 0.465088 2.878247 -0.279216 0
M  V30 66 H 1.788750 1.251989 0.877717 0
M  V30 67 H 3.949308 -3.156913 2.890110 0
M  V30 68 H 3.264502 -2.426331 1.412859 0
M  V30 69 H 1.641609 -2.661812 3.457696 0
M  V30 70 H 1.614360 -1.207841 2.422687 0
M  V30 END ATOM
M  V30 BEGIN BOND
M  V30 1 1 1 2
M  V30 2 1 2 3
M  V30 3 1 3 4
M  V30 4 1 4 5
M  V30 5 1 5 6
M  V30 6 1 6 7
M  V30 7 2 7 8
M  V30 8 1 7 9
M  V30 9 2 9 10
M  V30 10 1 10 11
M  V30 11 2 11 12
M  V30 12 1 12 13
M  V30 13 1 13 14
M  V30 14 2 14 15
M  V30 15 1 15 16
M  V30 16 2 16 17
M  V30 17 1 17 18
M  V30 18 1 17 19
M  V30 19 1 19 20
M  V30 20 1 20 21
M  V30 21 2 21 22
M  V30 22 1 22 23
M  V30 23 2 23 24
M  V30 24 1 24 25
M  V30 25 2 25 26
M  V30 26 1 25 27
M  V30 27 1 27 28
M  V30 28 2 28 29
M  V30 29 1 29 30
M  V30 30 2 30 31
M  V30 31 1 31 32
M  V30 32 2 32 33
M  V30 33 1 33 34
M  V30 34 1 24 35
M  V30 35 2 35 36
M  V30 36 2 19 37
M  V30 37 1 12 38
M  V30 38 2 38 39
M  V30 39 1 5 40
M  V30 40 1 40 41
M  V30 41 1 41 2
M  V30 42 1 39 9
M  V30 43 1 37 14
M  V30 44 1 36 21
M  V30 45 1 33 28
M  V30 46 1 1 42
M  V30 47 1 1 43
M  V30 48 1 1 44
M  V30 49 1 3 45
M  V30 50 1 3 46
M  V30 51 1 4 47
M  V30 52 1 4 48
M  V30 53 1 5 49
M  V30 54 1 6 50
M  V30 55 1 10 51
M  V30 56 1 11 52
M  V30 57 1 13 53
M  V30 58 1 16 54
M  V30 59 1 20 55
M  V30 60 1 22 56
M  V30 61 1 23 57
M  V30 62 1 27 58
M  V30 63 1 29 59
M  V30 64 1 30 60
M  V30 65 1 31 61
M  V30 66 1 32 62
M  V30 67 1 35 63
M  V30 68 1 36 64
M  V30 69 1 38 65
M  V30 70 1 39 66
M  V30 71 1 40 67
M  V30 72 1 40 68
M  V30 73 1 41 69
M  V30 74 1 41 70
M  V30 END BOND
M  V30 END CTAB
M  END
>  <Dataset>  (766) 
ChEMBL_Kinases

>  <Ligand_Instance>  (766) 
nan

>  <PDB_ID>  (766) 
nan

>  <Standardized_SMILES>  (766) 
CN1CCC(NC(=O)c2ccc(Nc3ncc(F)c(Nc4ccc(C(=O)Nc5ccccc5Cl)cc4)n3)cc2)CC1

>  <Name>  (766) 
nan

>  <Pocket>  (766) 
nan

>  <ATP_Site>  (766) 
nan

>  <Peripheral>  (766) 
nan

>  <Num_H_Atoms_ProtBoundConf>  (766) 
nan

>  <Num_Resolved_Atoms>  (766) 
nan

>  <Num_Not_Resolved_Atoms>  (766) 
nan

$$$$
CHEMBL4528544
     RDKit          3D

  0  0  0  0  0  0  0  0  0  0999 V3000
M  V30 BEGIN CTAB
M  V30 COUNTS 50 53 0 0 0
M  V30 BEGIN ATOM
M  V30 1 N 1.347734 -6.813990 1.258609 0
M  V30 2 C 2.620697 -6.178387 1.192152 0
M  V30 3 O 3.593377 -6.969217 1.308167 0
M  V30 4 C 2.742080 -4.736657 1.005353 0
M  V30 5 C 4.007436 -4.189176 0.950262 0
M  V30 6 C 4.032050 -2.815760 0.771100 0
M  V30 7 Cl 5.576231 -1.966544 0.680218 0
M  V30 8 C 2.887146 -2.050825 0.656246 0
M  V30 9 C 2.593739 -0.711859 0.477438 0
M  V30 10 Cl 3.781692 0.549598 0.328038 0
M  V30 11 C 1.198337 -0.604773 0.445293 0
M  V30 12 C 0.486636 0.645794 0.272572 0
M  V30 13 C -0.093074 1.703180 0.133365 0
M  V30 14 C -0.787490 2.989137 -0.011543 0
M  V30 15 C 0.147654 3.967102 -0.714086 0
M  V30 16 C 1.147324 4.391713 0.352371 0
M  V30 17 O 0.435529 5.190669 1.227843 0
M  V30 18 C -0.487474 4.517215 1.983722 0
M  V30 19 C -1.312478 3.510631 1.276020 0
M  V30 20 N 0.626818 -1.796238 0.593576 0
M  V30 21 C -0.772293 -2.127703 0.618729 0 CFG=1
M  V30 22 C -1.612344 -1.251253 1.481498 0
M  V30 23 C -2.848754 -0.770126 0.754363 0
M  V30 24 C -3.567086 -1.856749 0.027859 0
M  V30 25 N -2.685919 -2.788026 -0.643577 0
M  V30 26 C -1.384370 -2.135934 -0.781226 0
M  V30 27 C 1.650195 -2.662599 0.720108 0
M  V30 28 N 1.621397 -4.006308 0.895335 0
M  V30 29 H 0.569332 -6.332252 1.758849 0
M  V30 30 H 1.091697 -7.735169 0.853061 0
M  V30 31 H 4.931598 -4.745245 1.034951 0
M  V30 32 H -1.604152 2.785881 -0.745119 0
M  V30 33 H -0.381116 4.823933 -1.143295 0
M  V30 34 H 0.714155 3.368889 -1.457965 0
M  V30 35 H 1.926222 5.033520 -0.106823 0
M  V30 36 H 1.575802 3.508891 0.827774 0
M  V30 37 H 0.055985 4.038558 2.828593 0
M  V30 38 H -1.124708 5.292636 2.486381 0
M  V30 39 H -2.329443 3.946595 1.091552 0
M  V30 40 H -1.503103 2.626620 1.941685 0
M  V30 41 H -0.912503 -3.180786 0.976411 0
M  V30 42 H -1.107628 -0.364131 1.895914 0
M  V30 43 H -2.002084 -1.801218 2.388023 0
M  V30 44 H -3.544026 -0.384986 1.550978 0
M  V30 45 H -2.677701 0.077677 0.085214 0
M  V30 46 H -4.188382 -1.380171 -0.782837 0
M  V30 47 H -4.251489 -2.445034 0.661711 0
M  V30 48 H -3.005491 -3.011168 -1.594271 0
M  V30 49 H -0.735635 -2.684417 -1.492779 0
M  V30 50 H -1.540598 -1.112974 -1.148547 0
M  V30 END ATOM
M  V30 BEGIN BOND
M  V30 1 1 1 2
M  V30 2 2 2 3
M  V30 3 1 2 4
M  V30 4 2 4 5
M  V30 5 1 5 6
M  V30 6 1 6 7
M  V30 7 2 6 8
M  V30 8 1 8 9
M  V30 9 1 9 10
M  V30 10 2 9 11
M  V30 11 1 11 12
M  V30 12 3 12 13
M  V30 13 1 13 14
M  V30 14 1 14 15
M  V30 15 1 15 16
M  V30 16 1 16 17
M  V30 17 1 17 18
M  V30 18 1 18 19
M  V30 19 1 11 20
M  V30 20 1 20 21
M  V30 21 1 21 22
M  V30 22 1 22 23
M  V30 23 1 23 24
M  V30 24 1 24 25
M  V30 25 1 25 26
M  V30 26 1 20 27
M  V30 27 2 27 28
M  V30 28 1 28 4
M  V30 29 1 27 8
M  V30 30 1 19 14
M  V30 31 1 26 21
M  V30 32 1 1 29
M  V30 33 1 1 30
M  V30 34 1 5 31
M  V30 35 1 14 32
M  V30 36 1 15 33
M  V30 37 1 15 34
M  V30 38 1 16 35
M  V30 39 1 16 36
M  V30 40 1 18 37
M  V30 41 1 18 38
M  V30 42 1 19 39
M  V30 43 1 19 40
M  V30 44 1 21 41 CFG=1
M  V30 45 1 22 42
M  V30 46 1 22 43
M  V30 47 1 23 44
M  V30 48 1 23 45
M  V30 49 1 24 46
M  V30 50 1 24 47
M  V30 51 1 25 48
M  V30 52 1 26 49
M  V30 53 1 26 50
M  V30 END BOND
M  V30 END CTAB
M  END
>  <Dataset>  (767) 
ChEMBL_Kinases

>  <Ligand_Instance>  (767) 
nan

>  <PDB_ID>  (767) 
nan

>  <Standardized_SMILES>  (767) 
NC(=O)c1cc(Cl)c2c(Cl)c(C#CC3CCOCC3)n([C@H]3CCCNC3)c2n1

>  <Name>  (767) 
nan

>  <Pocket>  (767) 
nan

>  <ATP_Site>  (767) 
nan

>  <Peripheral>  (767) 
nan

>  <Num_H_Atoms_ProtBoundConf>  (767) 
nan

>  <Num_Resolved_Atoms>  (767) 
nan

>  <Num_Not_Resolved_Atoms>  (767) 
nan

$$$$
CHEMBL3699741
     RDKit          3D

  0  0  0  0  0  0  0  0  0  0999 V3000
M  V30 BEGIN CTAB
M  V30 COUNTS 61 66 0 0 0
M  V30 BEGIN ATOM
M  V30 1 N 7.728684 -1.371794 4.400471 0
M  V30 2 C 6.654851 -2.320650 4.416348 0
M  V30 3 O 6.982915 -3.525762 4.444694 0
M  V30 4 C 5.212698 -1.853982 4.399064 0
M  V30 5 C 5.051005 -0.374691 4.364000 0
M  V30 6 O 3.793034 0.159576 4.328576 0
M  V30 7 C 2.785881 0.081774 3.412045 0
M  V30 8 C 1.717667 0.831783 3.927033 0
M  V30 9 C 0.503415 0.975070 3.240512 0
M  V30 10 N 0.354239 0.374218 2.046978 0
M  V30 11 C -0.671405 0.318386 1.150324 0
M  V30 12 C -1.980754 0.974986 1.311109 0
M  V30 13 C -3.127376 0.207652 1.392930 0
M  V30 14 C -4.379324 0.815597 1.545008 0
M  V30 15 C -4.352446 2.192134 1.602077 0
M  V30 16 C -3.237964 2.979653 1.524326 0
M  V30 17 C -2.012751 2.367422 1.374709 0
M  V30 18 C -0.246302 -0.457664 0.088897 0
M  V30 19 C -1.064517 -0.756004 -1.079067 0
M  V30 20 C -1.561455 0.149277 -1.989292 0
M  V30 21 C -2.325272 -0.239707 -3.058615 0
M  V30 22 C -2.636563 -1.566074 -3.278341 0
M  V30 23 C -3.435039 -2.108595 -4.372471 0
M  V30 24 N -4.518782 -2.989093 -3.998278 0
M  V30 25 C -3.952531 -1.061917 -5.351656 0
M  V30 26 C -3.883891 -2.198998 -6.381401 0
M  V30 27 C -2.684294 -2.688456 -5.557062 0
M  V30 28 C -2.142084 -2.462701 -2.373562 0
M  V30 29 C -1.361085 -2.110052 -1.271659 0
M  V30 30 N 1.028902 -0.849610 0.376281 0
M  V30 31 C 1.384119 -0.339977 1.566582 0
M  V30 32 N 2.545919 -0.480675 2.217097 0
M  V30 33 C 4.236352 -2.860622 4.018146 0
M  V30 34 C 4.417788 -2.583283 5.505827 0
M  V30 35 H 8.440006 -0.676749 4.639490 0
M  V30 36 H 8.304447 -1.078351 3.577484 0
M  V30 37 H 5.619059 0.073595 5.220214 0
M  V30 38 H 5.596245 0.004196 3.436791 0
M  V30 39 H 1.634022 1.395105 4.872035 0
M  V30 40 H -0.359829 1.530606 3.566480 0
M  V30 41 H -3.117011 -0.879655 1.344508 0
M  V30 42 H -5.280532 0.232718 1.609864 0
M  V30 43 H -5.304698 2.681229 1.718977 0
M  V30 44 H -3.244948 4.052650 1.571703 0
M  V30 45 H -1.091115 2.923269 1.305896 0
M  V30 46 H -1.314615 1.183644 -1.812381 0
M  V30 47 H -2.714465 0.476750 -3.771569 0
M  V30 48 H -4.772966 -2.934966 -2.991007 0
M  V30 49 H -4.455854 -3.938601 -4.373651 0
M  V30 50 H -4.952841 -0.678145 -5.166882 0
M  V30 51 H -3.147650 -0.328551 -5.592372 0
M  V30 52 H -4.719520 -2.874435 -6.205251 0
M  V30 53 H -3.659811 -1.895667 -7.406996 0
M  V30 54 H -2.570367 -3.788712 -5.555353 0
M  V30 55 H -1.788189 -2.097833 -5.861064 0
M  V30 56 H -2.335131 -3.535011 -2.463259 0
M  V30 57 H -0.995380 -2.874173 -0.583272 0
M  V30 58 H 3.225423 -2.640945 3.685496 0
M  V30 59 H 4.602224 -3.843380 3.634313 0
M  V30 60 H 3.655604 -1.969598 6.039268 0
M  V30 61 H 4.896446 -3.406827 6.054338 0
M  V30 END ATOM
M  V30 BEGIN BOND
M  V30 1 1 1 2
M  V30 2 2 2 3
M  V30 3 1 2 4
M  V30 4 1 4 5
M  V30 5 1 5 6
M  V30 6 1 6 7
M  V30 7 1 7 8
M  V30 8 2 8 9
M  V30 9 1 9 10
M  V30 10 1 10 11
M  V30 11 1 11 12
M  V30 12 2 12 13
M  V30 13 1 13 14
M  V30 14 2 14 15
M  V30 15 1 15 16
M  V30 16 2 16 17
M  V30 17 2 11 18
M  V30 18 1 18 19
M  V30 19 2 19 20
M  V30 20 1 20 21
M  V30 21 2 21 22
M  V30 22 1 22 23
M  V30 23 1 23 24
M  V30 24 1 23 25
M  V30 25 1 25 26
M  V30 26 1 26 27
M  V30 27 1 22 28
M  V30 28 2 28 29
M  V30 29 1 18 30
M  V30 30 2 30 31
M  V30 31 1 31 32
M  V30 32 1 4 33
M  V30 33 1 33 34
M  V30 34 1 34 4
M  V30 35 2 32 7
M  V30 36 1 31 10
M  V30 37 1 17 12
M  V30 38 1 29 19
M  V30 39 1 27 23
M  V30 40 1 1 35
M  V30 41 1 1 36
M  V30 42 1 5 37
M  V30 43 1 5 38
M  V30 44 1 8 39
M  V30 45 1 9 40
M  V30 46 1 13 41
M  V30 47 1 14 42
M  V30 48 1 15 43
M  V30 49 1 16 44
M  V30 50 1 17 45
M  V30 51 1 20 46
M  V30 52 1 21 47
M  V30 53 1 24 48
M  V30 54 1 24 49
M  V30 55 1 25 50
M  V30 56 1 25 51
M  V30 57 1 26 52
M  V30 58 1 26 53
M  V30 59 1 27 54
M  V30 60 1 27 55
M  V30 61 1 28 56
M  V30 62 1 29 57
M  V30 63 1 33 58
M  V30 64 1 33 59
M  V30 65 1 34 60
M  V30 66 1 34 61
M  V30 END BOND
M  V30 END CTAB
M  END
>  <Dataset>  (768) 
ChEMBL_Kinases

>  <Ligand_Instance>  (768) 
nan

>  <PDB_ID>  (768) 
nan

>  <Standardized_SMILES>  (768) 
NC(=O)C1(COc2ccn3c(-c4ccccc4)c(-c4ccc(C5(N)CCC5)cc4)nc3n2)CC1

>  <Name>  (768) 
nan

>  <Pocket>  (768) 
nan

>  <ATP_Site>  (768) 
nan

>  <Peripheral>  (768) 
nan

>  <Num_H_Atoms_ProtBoundConf>  (768) 
nan

>  <Num_Resolved_Atoms>  (768) 
nan

>  <Num_Not_Resolved_Atoms>  (768) 
nan

$$$$
CHEMBL4527908
     RDKit          3D

  0  0  0  0  0  0  0  0  0  0999 V3000
M  V30 BEGIN CTAB
M  V30 COUNTS 49 53 0 0 0
M  V30 BEGIN ATOM
M  V30 1 C 3.646669 -3.777836 0.677474 0
M  V30 2 C 3.135573 -2.965187 1.834414 0
M  V30 3 C 3.491241 -3.265654 3.155023 0
M  V30 4 C 3.007168 -2.495665 4.213853 0
M  V30 5 C 2.167275 -1.424918 3.951672 0
M  V30 6 C 1.821844 -1.139626 2.623835 0
M  V30 7 C 0.951293 -0.041422 2.215723 0
M  V30 8 N 1.172881 1.282442 2.290342 0
M  V30 9 N 0.138051 1.952204 1.811495 0
M  V30 10 C -0.155024 3.364234 1.655097 0
M  V30 11 C 0.296863 3.894410 0.369906 0
M  V30 12 S 1.245003 5.222821 0.377003 0
M  V30 13 N -0.016169 3.354794 -0.901825 0
M  V30 14 C -0.729089 2.293487 -1.518762 0
M  V30 15 C -0.026048 1.140916 -1.858582 0
M  V30 16 C -0.598990 0.016031 -2.461002 0
M  V30 17 C -1.952927 0.138257 -2.699255 0
M  V30 18 C -2.724843 1.248093 -2.392814 0
M  V30 19 F -4.054566 1.284583 -2.661863 0
M  V30 20 C -2.085452 2.329392 -1.795245 0
M  V30 21 C -0.773245 1.014016 1.419391 0
M  V30 22 C -0.301597 -0.283538 1.656576 0
M  V30 23 C -1.041096 -1.499746 1.342959 0
M  V30 24 C -2.177775 -1.717803 2.085392 0
M  V30 25 C -2.903554 -2.843628 1.825452 0
M  V30 26 C -2.536039 -3.739788 0.865350 0
M  V30 27 N -3.241517 -4.964043 0.514448 0
M  V30 28 S -2.358548 -5.683764 -0.725809 0
M  V30 29 N -1.016939 -4.448636 -0.873891 0
M  V30 30 C -1.429524 -3.539416 0.133500 0
M  V30 31 C -0.691101 -2.416400 0.381387 0
M  V30 32 N 2.328439 -1.926962 1.660563 0
M  V30 33 H 2.958813 -4.606506 0.444928 0
M  V30 34 H 3.602203 -3.068295 -0.198922 0
M  V30 35 H 4.677719 -4.105088 0.898740 0
M  V30 36 H 4.154014 -4.110655 3.342995 0
M  V30 37 H 3.283560 -2.727415 5.246425 0
M  V30 38 H 1.756872 -0.788447 4.715332 0
M  V30 39 H -1.224556 3.563533 1.881415 0
M  V30 40 H 0.389507 3.850303 2.522771 0
M  V30 41 H 0.319876 3.771774 -1.794852 0
M  V30 42 H 1.036879 1.116598 -1.640125 0
M  V30 43 H -0.022127 -0.854039 -2.708033 0
M  V30 44 H -2.468651 -0.691151 -3.162751 0
M  V30 45 H -2.634967 3.222337 -1.533653 0
M  V30 46 H -1.749622 1.197647 0.977268 0
M  V30 47 H -2.495018 -1.033911 2.847944 0
M  V30 48 H -3.793137 -3.054622 2.377673 0
M  V30 49 H 0.213277 -2.151160 -0.143363 0
M  V30 END ATOM
M  V30 BEGIN BOND
M  V30 1 1 1 2
M  V30 2 2 2 3
M  V30 3 1 3 4
M  V30 4 2 4 5
M  V30 5 1 5 6
M  V30 6 1 6 7
M  V30 7 2 7 8
M  V30 8 1 8 9
M  V30 9 1 9 10
M  V30 10 1 10 11
M  V30 11 2 11 12
M  V30 12 1 11 13
M  V30 13 1 13 14
M  V30 14 2 14 15
M  V30 15 1 15 16
M  V30 16 2 16 17
M  V30 17 1 17 18
M  V30 18 1 18 19
M  V30 19 2 18 20
M  V30 20 1 9 21
M  V30 21 2 21 22
M  V30 22 1 22 23
M  V30 23 1 23 24
M  V30 24 2 24 25
M  V30 25 1 25 26
M  V30 26 2 26 27
M  V30 27 1 27 28
M  V30 28 1 28 29
M  V30 29 2 29 30
M  V30 30 1 30 31
M  V30 31 2 6 32
M  V30 32 1 32 2
M  V30 33 1 22 7
M  V30 34 2 31 23
M  V30 35 1 20 14
M  V30 36 1 30 26
M  V30 37 1 1 33
M  V30 38 1 1 34
M  V30 39 1 1 35
M  V30 40 1 3 36
M  V30 41 1 4 37
M  V30 42 1 5 38
M  V30 43 1 10 39
M  V30 44 1 10 40
M  V30 45 1 13 41
M  V30 46 1 15 42
M  V30 47 1 16 43
M  V30 48 1 17 44
M  V30 49 1 20 45
M  V30 50 1 21 46
M  V30 51 1 24 47
M  V30 52 1 25 48
M  V30 53 1 31 49
M  V30 END BOND
M  V30 END CTAB
M  END
>  <Dataset>  (769) 
ChEMBL_Kinases

>  <Ligand_Instance>  (769) 
nan

>  <PDB_ID>  (769) 
nan

>  <Standardized_SMILES>  (769) 
Cc1cccc(-c2nn(CC(=S)Nc3cccc(F)c3)cc2-c2ccc3nsnc3c2)n1

>  <Name>  (769) 
nan

>  <Pocket>  (769) 
nan

>  <ATP_Site>  (769) 
nan

>  <Peripheral>  (769) 
nan

>  <Num_H_Atoms_ProtBoundConf>  (769) 
nan

>  <Num_Resolved_Atoms>  (769) 
nan

>  <Num_Not_Resolved_Atoms>  (769) 
nan

$$$$
CHEMBL3699732
     RDKit          3D

  0  0  0  0  0  0  0  0  0  0999 V3000
M  V30 BEGIN CTAB
M  V30 COUNTS 61 65 0 0 0
M  V30 BEGIN ATOM
M  V30 1 C 8.058086 -1.152397 2.316225 0
M  V30 2 O 7.247708 -1.670859 3.340521 0
M  V30 3 C 7.188484 -0.837430 4.424190 0
M  V30 4 C 6.548755 0.499834 4.218144 0
M  V30 5 N 5.183273 0.490857 3.825066 0
M  V30 6 C 4.346337 0.027042 2.788499 0
M  V30 7 O 4.966816 -0.591973 1.886697 0
M  V30 8 C 2.905575 0.200607 2.689894 0
M  V30 9 C 2.103003 0.845448 3.605025 0
M  V30 10 C 0.738493 0.995310 3.480703 0
M  V30 11 C 0.158310 0.452114 2.350245 0
M  V30 12 N -1.128475 0.414329 1.913355 0
M  V30 13 C -1.134177 -0.253358 0.725376 0
M  V30 14 C -2.445985 -0.393103 0.102106 0
M  V30 15 C -2.689626 0.168981 -1.133259 0
M  V30 16 C -3.966012 -0.016105 -1.642183 0
M  V30 17 C -4.958653 -0.696787 -1.015422 0
M  V30 18 C -6.318574 -0.933690 -1.483020 0
M  V30 19 N -7.270328 -0.860857 -0.372424 0
M  V30 20 C -6.402788 -2.232633 -2.277187 0
M  V30 21 C -7.326240 -1.528810 -3.270307 0
M  V30 22 C -6.797684 -0.225631 -2.712208 0
M  V30 23 C -4.650054 -1.242039 0.231402 0
M  V30 24 C -3.409655 -1.099159 0.796540 0
M  V30 25 C 0.164786 -0.621997 0.443783 0
M  V30 26 C 0.421190 -1.348673 -0.774422 0
M  V30 27 C 1.253781 -0.833864 -1.771855 0
M  V30 28 C 1.473514 -1.560284 -2.923259 0
M  V30 29 C 0.906095 -2.798479 -3.157689 0
M  V30 30 C 0.081925 -3.330984 -2.194116 0
M  V30 31 C -0.131207 -2.600062 -1.049988 0
M  V30 32 N 0.942773 -0.181198 1.450418 0
M  V30 33 C 2.278430 -0.323206 1.580497 0
M  V30 34 H 7.646862 -0.193513 2.004861 0
M  V30 35 H 9.103741 -1.085659 2.704166 0
M  V30 36 H 8.087608 -1.851935 1.463992 0
M  V30 37 H 6.556119 -1.375766 5.193323 0
M  V30 38 H 8.189804 -0.739514 4.940394 0
M  V30 39 H 6.647856 1.039050 5.186552 0
M  V30 40 H 7.101402 1.114421 3.457219 0
M  V30 41 H 4.539232 0.995508 4.522461 0
M  V30 42 H 2.553710 1.266020 4.480831 0
M  V30 43 H 0.149364 1.504270 4.215487 0
M  V30 44 H -1.925490 0.718557 -1.664326 0
M  V30 45 H -4.192201 0.408784 -2.604510 0
M  V30 46 H -6.853883 -0.248841 0.379082 0
M  V30 47 H -7.546264 -1.805690 -0.016140 0
M  V30 48 H -5.458931 -2.525175 -2.765410 0
M  V30 49 H -6.850238 -3.088886 -1.741617 0
M  V30 50 H -7.086068 -1.696122 -4.334921 0
M  V30 51 H -8.385579 -1.765475 -2.992777 0
M  V30 52 H -7.661139 0.442433 -2.460433 0
M  V30 53 H -6.086595 0.309112 -3.332860 0
M  V30 54 H -5.368116 -1.805365 0.819772 0
M  V30 55 H -3.153274 -1.524557 1.779915 0
M  V30 56 H 1.725837 0.134852 -1.640212 0
M  V30 57 H 2.121440 -1.157581 -3.697292 0
M  V30 58 H 1.111946 -3.325345 -4.078136 0
M  V30 59 H -0.397426 -4.299177 -2.312291 0
M  V30 60 H -0.786059 -3.022954 -0.284455 0
M  V30 61 H 2.850648 -0.843012 0.821408 0
M  V30 END ATOM
M  V30 BEGIN BOND
M  V30 1 1 1 2
M  V30 2 1 2 3
M  V30 3 1 3 4
M  V30 4 1 4 5
M  V30 5 1 5 6
M  V30 6 2 6 7
M  V30 7 1 6 8
M  V30 8 1 8 9
M  V30 9 2 9 10
M  V30 10 1 10 11
M  V30 11 2 11 12
M  V30 12 1 12 13
M  V30 13 1 13 14
M  V30 14 2 14 15
M  V30 15 1 15 16
M  V30 16 2 16 17
M  V30 17 1 17 18
M  V30 18 1 18 19
M  V30 19 1 18 20
M  V30 20 1 20 21
M  V30 21 1 21 22
M  V30 22 1 17 23
M  V30 23 2 23 24
M  V30 24 2 13 25
M  V30 25 1 25 26
M  V30 26 2 26 27
M  V30 27 1 27 28
M  V30 28 2 28 29
M  V30 29 1 29 30
M  V30 30 2 30 31
M  V30 31 1 25 32
M  V30 32 1 32 33
M  V30 33 2 33 8
M  V30 34 1 32 11
M  V30 35 1 24 14
M  V30 36 1 31 26
M  V30 37 1 22 18
M  V30 38 1 1 34
M  V30 39 1 1 35
M  V30 40 1 1 36
M  V30 41 1 3 37
M  V30 42 1 3 38
M  V30 43 1 4 39
M  V30 44 1 4 40
M  V30 45 1 5 41
M  V30 46 1 9 42
M  V30 47 1 10 43
M  V30 48 1 15 44
M  V30 49 1 16 45
M  V30 50 1 19 46
M  V30 51 1 19 47
M  V30 52 1 20 48
M  V30 53 1 20 49
M  V30 54 1 21 50
M  V30 55 1 21 51
M  V30 56 1 22 52
M  V30 57 1 22 53
M  V30 58 1 23 54
M  V30 59 1 24 55
M  V30 60 1 27 56
M  V30 61 1 28 57
M  V30 62 1 29 58
M  V30 63 1 30 59
M  V30 64 1 31 60
M  V30 65 1 33 61
M  V30 END BOND
M  V30 END CTAB
M  END
>  <Dataset>  (770) 
ChEMBL_Kinases

>  <Ligand_Instance>  (770) 
nan

>  <PDB_ID>  (770) 
nan

>  <Standardized_SMILES>  (770) 
COCCNC(=O)c1ccc2nc(-c3ccc(C4(N)CCC4)cc3)c(-c3ccccc3)n2c1

>  <Name>  (770) 
nan

>  <Pocket>  (770) 
nan

>  <ATP_Site>  (770) 
nan

>  <Peripheral>  (770) 
nan

>  <Num_H_Atoms_ProtBoundConf>  (770) 
nan

>  <Num_Resolved_Atoms>  (770) 
nan

>  <Num_Not_Resolved_Atoms>  (770) 
nan

$$$$
CHEMBL3699731
     RDKit          3D

  0  0  0  0  0  0  0  0  0  0999 V3000
M  V30 BEGIN CTAB
M  V30 COUNTS 58 62 0 0 0
M  V30 BEGIN ATOM
M  V30 1 N -2.944525 -5.351339 -3.152198 0
M  V30 2 C -1.805137 -4.653425 -3.769870 0
M  V30 3 C -1.228525 -3.664735 -2.860108 0
M  V30 4 C -1.010488 -2.325298 -3.105553 0
M  V30 5 C -0.455374 -1.456802 -2.189897 0
M  V30 6 C -0.111901 -1.998580 -0.968927 0
M  V30 7 C 0.478183 -1.086943 0.003620 0
M  V30 8 N 1.809822 -0.883860 -0.060745 0
M  V30 9 C 2.194295 -0.026861 0.893750 0
M  V30 10 C 3.377223 0.539928 1.309795 0
M  V30 11 C 3.515887 1.429627 2.364420 0
M  V30 12 C 2.322249 1.730923 3.010942 0
M  V30 13 C 2.354703 2.646286 4.131098 0
M  V30 14 O 1.284549 2.961632 4.702150 0
M  V30 15 N 3.507490 3.251122 4.677477 0
M  V30 16 C 3.560903 4.169218 5.795123 0
M  V30 17 C 2.749298 5.409331 5.476635 0
M  V30 18 O 3.299051 6.009715 4.331955 0
M  V30 19 C 1.131798 1.169794 2.603305 0
M  V30 20 N 1.081772 0.313510 1.569068 0
M  V30 21 C 0.014298 -0.317664 1.049933 0
M  V30 22 C -1.405301 -0.324444 1.378539 0
M  V30 23 C -2.436319 0.076678 0.555799 0
M  V30 24 C -3.755118 0.026161 0.973089 0
M  V30 25 C -4.004496 -0.447639 2.263099 0
M  V30 26 C -3.022871 -0.862949 3.133745 0
M  V30 27 C -1.720602 -0.780508 2.636287 0
M  V30 28 C -0.307034 -3.346356 -0.658412 0
M  V30 29 C -0.869548 -4.184948 -1.611978 0
M  V30 30 C -2.198739 -4.210256 -5.143798 0
M  V30 31 C -1.462466 -5.410816 -5.727407 0
M  V30 32 C -0.861157 -5.653976 -4.366926 0
M  V30 33 H -2.679088 -5.615029 -2.188998 0
M  V30 34 H -3.761866 -4.714537 -3.235810 0
M  V30 35 H -1.298499 -1.970980 -4.067345 0
M  V30 36 H -0.303388 -0.407512 -2.432013 0
M  V30 37 H 4.268714 0.261259 0.761557 0
M  V30 38 H 4.493824 1.811799 2.601927 0
M  V30 39 H 4.428468 3.000092 4.214037 0
M  V30 40 H 3.097731 3.623960 6.648171 0
M  V30 41 H 4.602021 4.443316 6.007127 0
M  V30 42 H 2.884563 6.160869 6.309625 0
M  V30 43 H 1.700101 5.169811 5.289814 0
M  V30 44 H 2.695709 5.894957 3.580707 0
M  V30 45 H 0.206665 1.431418 3.138968 0
M  V30 46 H -2.142422 0.427331 -0.421811 0
M  V30 47 H -4.541828 0.347237 0.304844 0
M  V30 48 H -5.073234 -0.454772 2.513018 0
M  V30 49 H -3.290524 -1.213260 4.106560 0
M  V30 50 H -0.951950 -1.116337 3.347086 0
M  V30 51 H 0.010380 -3.633907 0.340921 0
M  V30 52 H -0.949009 -5.189911 -1.212452 0
M  V30 53 H -1.759808 -3.294230 -5.547956 0
M  V30 54 H -3.295435 -4.282745 -5.362874 0
M  V30 55 H -0.722491 -5.156177 -6.519671 0
M  V30 56 H -2.125915 -6.213343 -6.111430 0
M  V30 57 H 0.215845 -5.393134 -4.380215 0
M  V30 58 H -1.045876 -6.700556 -4.040533 0
M  V30 END ATOM
M  V30 BEGIN BOND
M  V30 1 1 1 2
M  V30 2 1 2 3
M  V30 3 2 3 4
M  V30 4 1 4 5
M  V30 5 2 5 6
M  V30 6 1 6 7
M  V30 7 1 7 8
M  V30 8 2 8 9
M  V30 9 1 9 10
M  V30 10 2 10 11
M  V30 11 1 11 12
M  V30 12 1 12 13
M  V30 13 2 13 14
M  V30 14 1 13 15
M  V30 15 1 15 16
M  V30 16 1 16 17
M  V30 17 1 17 18
M  V30 18 2 12 19
M  V30 19 1 19 20
M  V30 20 1 20 21
M  V30 21 1 21 22
M  V30 22 2 22 23
M  V30 23 1 23 24
M  V30 24 2 24 25
M  V30 25 1 25 26
M  V30 26 2 26 27
M  V30 27 1 6 28
M  V30 28 2 28 29
M  V30 29 1 2 30
M  V30 30 1 30 31
M  V30 31 1 31 32
M  V30 32 1 32 2
M  V30 33 1 29 3
M  V30 34 2 21 7
M  V30 35 1 27 22
M  V30 36 1 20 9
M  V30 37 1 1 33
M  V30 38 1 1 34
M  V30 39 1 4 35
M  V30 40 1 5 36
M  V30 41 1 10 37
M  V30 42 1 11 38
M  V30 43 1 15 39
M  V30 44 1 16 40
M  V30 45 1 16 41
M  V30 46 1 17 42
M  V30 47 1 17 43
M  V30 48 1 18 44
M  V30 49 1 19 45
M  V30 50 1 23 46
M  V30 51 1 24 47
M  V30 52 1 25 48
M  V30 53 1 26 49
M  V30 54 1 27 50
M  V30 55 1 28 51
M  V30 56 1 29 52
M  V30 57 1 30 53
M  V30 58 1 30 54
M  V30 59 1 31 55
M  V30 60 1 31 56
M  V30 61 1 32 57
M  V30 62 1 32 58
M  V30 END BOND
M  V30 END CTAB
M  END
>  <Dataset>  (771) 
ChEMBL_Kinases

>  <Ligand_Instance>  (771) 
nan

>  <PDB_ID>  (771) 
nan

>  <Standardized_SMILES>  (771) 
NC1(c2ccc(-c3nc4ccc(C(=O)NCCO)cn4c3-c3ccccc3)cc2)CCC1

>  <Name>  (771) 
nan

>  <Pocket>  (771) 
nan

>  <ATP_Site>  (771) 
nan

>  <Peripheral>  (771) 
nan

>  <Num_H_Atoms_ProtBoundConf>  (771) 
nan

>  <Num_Resolved_Atoms>  (771) 
nan

>  <Num_Not_Resolved_Atoms>  (771) 
nan

$$$$
CHEMBL4527526
     RDKit          3D

  0  0  0  0  0  0  0  0  0  0999 V3000
M  V30 BEGIN CTAB
M  V30 COUNTS 52 55 0 0 0
M  V30 BEGIN ATOM
M  V30 1 C 5.682856 3.982035 0.508179 0
M  V30 2 C 5.398426 2.675369 1.157168 0
M  V30 3 N 6.363679 1.742032 1.245823 0
M  V30 4 N 5.871642 0.681939 1.864313 0
M  V30 5 C 4.570941 0.946338 2.173791 0
M  V30 6 C 3.633800 0.039496 2.877061 0
M  V30 7 C 4.234140 2.223315 1.731612 0
M  V30 8 N 2.995868 2.891119 1.845495 0
M  V30 9 C 1.992014 2.781302 0.817152 0
M  V30 10 N 1.812333 3.676567 -0.186653 0
M  V30 11 C 0.821517 3.397691 -1.052532 0
M  V30 12 C 0.011695 2.280877 -0.965351 0
M  V30 13 C 0.213720 1.394306 0.054741 0
M  V30 14 C -0.555513 0.170856 0.263535 0
M  V30 15 C -0.251413 -0.656867 1.322753 0
M  V30 16 C -0.960710 -1.840792 1.567350 0
M  V30 17 N -1.985909 -2.201888 0.743869 0
M  V30 18 C -2.636760 -3.431170 1.092197 0 CFG=2
M  V30 19 C -1.718339 -4.594988 1.315655 0
M  V30 20 O -0.936595 -4.952613 0.248096 0
M  V30 21 C -3.799572 -3.773108 0.239246 0
M  V30 22 C -3.673190 -4.474955 -0.963018 0
M  V30 23 C -4.792072 -4.792067 -1.744729 0
M  V30 24 C -6.022369 -4.401227 -1.310753 0
M  V30 25 Cl -7.447284 -4.785355 -2.272807 0
M  V30 26 C -6.241408 -3.706852 -0.141125 0
M  V30 27 F -7.458774 -3.313352 0.299859 0
M  V30 28 C -5.108870 -3.419799 0.590871 0
M  V30 29 C -2.248539 -1.369643 -0.273168 0
M  V30 30 O -3.210481 -1.754342 -1.005734 0
M  V30 31 C -1.593441 -0.196800 -0.567877 0
M  V30 32 N 1.207502 1.697885 0.902407 0
M  V30 33 H 6.610910 4.363605 0.996903 0
M  V30 34 H 5.997988 3.813457 -0.560907 0
M  V30 35 H 4.834329 4.660671 0.600155 0
M  V30 36 H 6.346033 -0.218282 2.098288 0
M  V30 37 H 2.942748 -0.359954 2.110212 0
M  V30 38 H 4.229387 -0.805184 3.288120 0
M  V30 39 H 3.128724 0.590402 3.694007 0
M  V30 40 H 2.660500 3.514347 2.635561 0
M  V30 41 H 0.649359 4.092653 -1.867380 0
M  V30 42 H -0.775181 2.082843 -1.675466 0
M  V30 43 H 0.552163 -0.350455 1.948844 0
M  V30 44 H -0.600050 -2.382097 2.439457 0
M  V30 45 H -3.096735 -3.238518 2.113598 0
M  V30 46 H -2.354701 -5.426301 1.688890 0
M  V30 47 H -1.038203 -4.342178 2.159762 0
M  V30 48 H -0.532939 -4.220054 -0.235733 0
M  V30 49 H -2.676935 -4.770913 -1.281403 0
M  V30 50 H -4.613014 -5.341356 -2.668355 0
M  V30 51 H -5.190790 -2.876491 1.526878 0
M  V30 52 H -1.878150 0.401953 -1.405172 0
M  V30 END ATOM
M  V30 BEGIN BOND
M  V30 1 1 1 2
M  V30 2 2 2 3
M  V30 3 1 3 4
M  V30 4 1 4 5
M  V30 5 1 5 6
M  V30 6 2 5 7
M  V30 7 1 7 8
M  V30 8 1 8 9
M  V30 9 2 9 10
M  V30 10 1 10 11
M  V30 11 2 11 12
M  V30 12 1 12 13
M  V30 13 1 13 14
M  V30 14 1 14 15
M  V30 15 2 15 16
M  V30 16 1 16 17
M  V30 17 1 17 18
M  V30 18 1 18 19
M  V30 19 1 19 20
M  V30 20 1 18 21
M  V30 21 2 21 22
M  V30 22 1 22 23
M  V30 23 2 23 24
M  V30 24 1 24 25
M  V30 25 1 24 26
M  V30 26 1 26 27
M  V30 27 2 26 28
M  V30 28 1 17 29
M  V30 29 2 29 30
M  V30 30 1 29 31
M  V30 31 2 13 32
M  V30 32 1 7 2
M  V30 33 1 32 9
M  V30 34 2 31 14
M  V30 35 1 28 21
M  V30 36 1 1 33
M  V30 37 1 1 34
M  V30 38 1 1 35
M  V30 39 1 4 36
M  V30 40 1 6 37
M  V30 41 1 6 38
M  V30 42 1 6 39
M  V30 43 1 8 40
M  V30 44 1 11 41
M  V30 45 1 12 42
M  V30 46 1 15 43
M  V30 47 1 16 44
M  V30 48 1 18 45 CFG=1
M  V30 49 1 19 46
M  V30 50 1 19 47
M  V30 51 1 20 48
M  V30 52 1 22 49
M  V30 53 1 23 50
M  V30 54 1 28 51
M  V30 55 1 31 52
M  V30 END BOND
M  V30 END CTAB
M  END
>  <Dataset>  (772) 
ChEMBL_Kinases

>  <Ligand_Instance>  (772) 
nan

>  <PDB_ID>  (772) 
nan

>  <Standardized_SMILES>  (772) 
Cc1n[nH]c(C)c1Nc1nccc(-c2ccn([C@H](CO)c3ccc(Cl)c(F)c3)c(=O)c2)n1

>  <Name>  (772) 
nan

>  <Pocket>  (772) 
nan

>  <ATP_Site>  (772) 
nan

>  <Peripheral>  (772) 
nan

>  <Num_H_Atoms_ProtBoundConf>  (772) 
nan

>  <Num_Resolved_Atoms>  (772) 
nan

>  <Num_Not_Resolved_Atoms>  (772) 
nan

$$$$
CHEMBL4527170
     RDKit          3D

  0  0  0  0  0  0  0  0  0  0999 V3000
M  V30 BEGIN CTAB
M  V30 COUNTS 25 26 0 0 0
M  V30 BEGIN ATOM
M  V30 1 O 0.822931 -1.417285 5.313143 0
M  V30 2 C 1.204198 -2.188562 4.220430 0
M  V30 3 C 1.034965 -1.464289 2.928244 0
M  V30 4 C -0.191779 -1.610731 2.311403 0
M  V30 5 C -0.495121 -0.990173 1.094056 0
M  V30 6 C 0.515999 -0.212054 0.536614 0
M  V30 7 C 0.179914 0.427589 -0.734346 0
M  V30 8 C -1.115445 0.821533 -1.003704 0
M  V30 9 C -1.556061 1.432194 -2.160791 0
M  V30 10 C -0.559970 1.646710 -3.110227 0
M  V30 11 N 0.729048 1.272535 -2.882010 0
M  V30 12 C 1.096255 0.680186 -1.731243 0
M  V30 13 C 1.750099 -0.054465 1.140511 0
M  V30 14 C 2.019739 -0.686402 2.352795 0
M  V30 15 H -0.082934 -1.006514 5.161862 0
M  V30 16 H 2.279762 -2.426197 4.391530 0
M  V30 17 H 0.665632 -3.137638 4.263099 0
M  V30 18 H -0.990824 -2.219965 2.742594 0
M  V30 19 H -1.466230 -1.126401 0.638597 0
M  V30 20 H -1.907151 0.654044 -0.255985 0
M  V30 21 H -2.589058 1.712236 -2.299511 0
M  V30 22 H -0.871764 2.130795 -4.044934 0
M  V30 23 H 2.139039 0.387245 -1.568303 0
M  V30 24 H 2.505452 0.561878 0.667290 0
M  V30 25 H 2.968752 -0.590904 2.858846 0
M  V30 END ATOM
M  V30 BEGIN BOND
M  V30 1 1 1 2
M  V30 2 1 2 3
M  V30 3 2 3 4
M  V30 4 1 4 5
M  V30 5 2 5 6
M  V30 6 1 6 7
M  V30 7 2 7 8
M  V30 8 1 8 9
M  V30 9 2 9 10
M  V30 10 1 10 11
M  V30 11 2 11 12
M  V30 12 1 6 13
M  V30 13 2 13 14
M  V30 14 1 14 3
M  V30 15 1 12 7
M  V30 16 1 1 15
M  V30 17 1 2 16
M  V30 18 1 2 17
M  V30 19 1 4 18
M  V30 20 1 5 19
M  V30 21 1 8 20
M  V30 22 1 9 21
M  V30 23 1 10 22
M  V30 24 1 12 23
M  V30 25 1 13 24
M  V30 26 1 14 25
M  V30 END BOND
M  V30 END CTAB
M  END
>  <Dataset>  (773) 
ChEMBL_Kinases

>  <Ligand_Instance>  (773) 
nan

>  <PDB_ID>  (773) 
nan

>  <Standardized_SMILES>  (773) 
OCc1ccc(-c2cccnc2)cc1

>  <Name>  (773) 
nan

>  <Pocket>  (773) 
nan

>  <ATP_Site>  (773) 
nan

>  <Peripheral>  (773) 
nan

>  <Num_H_Atoms_ProtBoundConf>  (773) 
nan

>  <Num_Resolved_Atoms>  (773) 
nan

>  <Num_Not_Resolved_Atoms>  (773) 
nan

$$$$
CHEMBL4527131
     RDKit          3D

  0  0  0  0  0  0  0  0  0  0999 V3000
M  V30 BEGIN CTAB
M  V30 COUNTS 45 48 0 0 0
M  V30 BEGIN ATOM
M  V30 1 C -0.129347 -5.131700 1.203672 0
M  V30 2 C 0.310464 -3.859029 0.554923 0
M  V30 3 N 1.029720 -3.900591 -0.570991 0
M  V30 4 C 1.419418 -2.755509 -1.145359 0
M  V30 5 C 2.155446 -2.919296 -2.301011 0
M  V30 6 C 2.599848 -1.796886 -2.961606 0
M  V30 7 C 2.285602 -0.567294 -2.433048 0
M  V30 8 C 1.540634 -0.435580 -1.264452 0
M  V30 9 C 1.255952 0.883789 -0.783182 0
M  V30 10 C 1.581093 2.114945 -1.249698 0
M  V30 11 C 1.166294 3.226397 -0.573135 0
M  V30 12 C 0.435071 3.025892 0.553980 0
M  V30 13 S 0.308966 1.225400 0.694767 0
M  V30 14 C 0.032949 4.287575 1.215307 0
M  V30 15 O -0.645509 4.344873 2.268465 0
M  V30 16 N 0.593236 5.277025 0.376931 0
M  V30 17 C 1.301028 4.698811 -0.737117 0
M  V30 18 C 1.084019 -1.541190 -0.583913 0
M  V30 19 N 0.357502 -1.481194 0.554075 0
M  V30 20 C -0.041806 -2.638433 1.143125 0
M  V30 21 N -0.819271 -2.645760 2.353067 0
M  V30 22 C -1.272843 -1.509637 3.101434 0
M  V30 23 C -2.095102 -1.923695 4.311058 0
M  V30 24 C -0.066551 -0.708708 3.562939 0
M  V30 25 C -2.177765 -0.671903 2.248008 0
M  V30 26 H -1.233167 -5.195120 1.315629 0
M  V30 27 H 0.232576 -5.981663 0.627431 0
M  V30 28 H 0.274546 -5.216678 2.237466 0
M  V30 29 H 2.399508 -3.889204 -2.712064 0
M  V30 30 H 3.180290 -1.864474 -3.871019 0
M  V30 31 H 2.646466 0.296234 -2.970969 0
M  V30 32 H 2.180194 2.118860 -2.178008 0
M  V30 33 H 0.504089 6.298951 0.545763 0
M  V30 34 H 2.344199 5.034593 -0.736182 0
M  V30 35 H 0.794332 4.967395 -1.688746 0
M  V30 36 H -1.088772 -3.584684 2.737724 0
M  V30 37 H -1.776685 -2.923351 4.681947 0
M  V30 38 H -3.180247 -1.986494 4.048305 0
M  V30 39 H -1.954900 -1.151037 5.092026 0
M  V30 40 H -0.328975 0.349899 3.494444 0
M  V30 41 H 0.185101 -1.002957 4.602562 0
M  V30 42 H 0.767204 -0.931333 2.859668 0
M  V30 43 H -3.257768 -0.828236 2.481996 0
M  V30 44 H -2.078785 -0.883997 1.157817 0
M  V30 45 H -1.989420 0.401991 2.456115 0
M  V30 END ATOM
M  V30 BEGIN BOND
M  V30 1 1 1 2
M  V30 2 2 2 3
M  V30 3 1 3 4
M  V30 4 2 4 5
M  V30 5 1 5 6
M  V30 6 2 6 7
M  V30 7 1 7 8
M  V30 8 1 8 9
M  V30 9 2 9 10
M  V30 10 1 10 11
M  V30 11 2 11 12
M  V30 12 1 12 13
M  V30 13 1 12 14
M  V30 14 2 14 15
M  V30 15 1 14 16
M  V30 16 1 16 17
M  V30 17 2 8 18
M  V30 18 1 18 19
M  V30 19 2 19 20
M  V30 20 1 20 21
M  V30 21 1 21 22
M  V30 22 1 22 23
M  V30 23 1 22 24
M  V30 24 1 22 25
M  V30 25 1 20 2
M  V30 26 1 18 4
M  V30 27 1 13 9
M  V30 28 1 17 11
M  V30 29 1 1 26
M  V30 30 1 1 27
M  V30 31 1 1 28
M  V30 32 1 5 29
M  V30 33 1 6 30
M  V30 34 1 7 31
M  V30 35 1 10 32
M  V30 36 1 16 33
M  V30 37 1 17 34
M  V30 38 1 17 35
M  V30 39 1 21 36
M  V30 40 1 23 37
M  V30 41 1 23 38
M  V30 42 1 23 39
M  V30 43 1 24 40
M  V30 44 1 24 41
M  V30 45 1 24 42
M  V30 46 1 25 43
M  V30 47 1 25 44
M  V30 48 1 25 45
M  V30 END BOND
M  V30 END CTAB
M  END
>  <Dataset>  (774) 
ChEMBL_Kinases

>  <Ligand_Instance>  (774) 
nan

>  <PDB_ID>  (774) 
nan

>  <Standardized_SMILES>  (774) 
Cc1nc2cccc(-c3cc4c(s3)C(=O)NC4)c2nc1NC(C)(C)C

>  <Name>  (774) 
nan

>  <Pocket>  (774) 
nan

>  <ATP_Site>  (774) 
nan

>  <Peripheral>  (774) 
nan

>  <Num_H_Atoms_ProtBoundConf>  (774) 
nan

>  <Num_Resolved_Atoms>  (774) 
nan

>  <Num_Not_Resolved_Atoms>  (774) 
nan

$$$$
CHEMBL3699730
     RDKit          3D

  0  0  0  0  0  0  0  0  0  0999 V3000
M  V30 BEGIN CTAB
M  V30 COUNTS 57 61 0 0 0
M  V30 BEGIN ATOM
M  V30 1 N -2.723227 -5.052066 -3.536311 0
M  V30 2 C -1.728268 -4.195829 -4.167443 0
M  V30 3 C -1.198805 -3.180838 -3.231614 0
M  V30 4 C -0.877601 -1.853598 -3.403599 0
M  V30 5 C -0.391019 -1.093928 -2.363474 0
M  V30 6 C -0.197994 -1.612430 -1.098443 0
M  V30 7 C 0.319589 -0.762045 -0.032345 0
M  V30 8 N 1.554315 -0.266374 -0.248648 0
M  V30 9 C 1.917642 0.506628 0.815346 0
M  V30 10 C 3.050619 1.228941 1.098415 0
M  V30 11 C 3.038881 1.888512 2.295245 0
M  V30 12 C 1.995671 1.869864 3.197412 0
M  V30 13 C 1.986288 2.575138 4.475024 0
M  V30 14 O 0.995417 2.532981 5.260162 0
M  V30 15 N 3.058044 3.355141 4.948095 0
M  V30 16 C 2.892545 3.996869 6.245315 0
M  V30 17 C 4.200556 4.760401 6.492844 0
M  V30 18 F 5.189038 3.770214 6.480077 0
M  V30 19 C 0.872791 1.124491 2.863846 0
M  V30 20 N 0.884624 0.474444 1.684044 0
M  V30 21 C -0.119690 -0.302505 1.187898 0
M  V30 22 C -1.420651 -0.692045 1.654515 0
M  V30 23 C -1.733320 -1.406895 2.797393 0
M  V30 24 C -3.028236 -1.727955 3.149043 0
M  V30 25 C -4.042284 -1.306502 2.307615 0
M  V30 26 C -3.795787 -0.595476 1.161858 0
M  V30 27 C -2.482502 -0.303651 0.861189 0
M  V30 28 C -0.512119 -2.933539 -0.906328 0
M  V30 29 C -0.999426 -3.696138 -1.946022 0
M  V30 30 C -0.652093 -5.005770 -4.908808 0
M  V30 31 C -1.560819 -4.950029 -6.146350 0
M  V30 32 C -2.145049 -3.688592 -5.532493 0
M  V30 33 H -2.787954 -5.982099 -4.011769 0
M  V30 34 H -3.640276 -4.575776 -3.428058 0
M  V30 35 H -1.049933 -1.506509 -4.407950 0
M  V30 36 H -0.165358 -0.062048 -2.588408 0
M  V30 37 H 3.886083 1.274125 0.430268 0
M  V30 38 H 3.925712 2.475898 2.556281 0
M  V30 39 H 3.920101 3.439560 4.352607 0
M  V30 40 H 2.761462 3.302679 7.074326 0
M  V30 41 H 2.026986 4.702847 6.230611 0
M  V30 42 H 4.191267 5.346224 7.410211 0
M  V30 43 H 4.455633 5.418572 5.627498 0
M  V30 44 H 0.037514 1.086789 3.545761 0
M  V30 45 H -0.860565 -1.689616 3.388628 0
M  V30 46 H -3.206534 -2.286599 4.051255 0
M  V30 47 H -5.083506 -1.535436 2.541995 0
M  V30 48 H -4.613821 -0.267218 0.501204 0
M  V30 49 H -2.341512 0.267172 -0.066074 0
M  V30 50 H -0.350386 -3.308277 0.092261 0
M  V30 51 H -1.203439 -4.717665 -1.650076 0
M  V30 52 H 0.229519 -4.357966 -5.061348 0
M  V30 53 H -0.495120 -6.021827 -4.548677 0
M  V30 54 H -0.953705 -4.778325 -7.046993 0
M  V30 55 H -2.229099 -5.802450 -6.261658 0
M  V30 56 H -1.502934 -2.839960 -5.840008 0
M  V30 57 H -3.235246 -3.553263 -5.654257 0
M  V30 END ATOM
M  V30 BEGIN BOND
M  V30 1 1 1 2
M  V30 2 1 2 3
M  V30 3 2 3 4
M  V30 4 1 4 5
M  V30 5 2 5 6
M  V30 6 1 6 7
M  V30 7 1 7 8
M  V30 8 2 8 9
M  V30 9 1 9 10
M  V30 10 2 10 11
M  V30 11 1 11 12
M  V30 12 1 12 13
M  V30 13 2 13 14
M  V30 14 1 13 15
M  V30 15 1 15 16
M  V30 16 1 16 17
M  V30 17 1 17 18
M  V30 18 2 12 19
M  V30 19 1 19 20
M  V30 20 1 20 21
M  V30 21 1 21 22
M  V30 22 2 22 23
M  V30 23 1 23 24
M  V30 24 2 24 25
M  V30 25 1 25 26
M  V30 26 2 26 27
M  V30 27 1 6 28
M  V30 28 2 28 29
M  V30 29 1 2 30
M  V30 30 1 30 31
M  V30 31 1 31 32
M  V30 32 1 32 2
M  V30 33 1 29 3
M  V30 34 2 21 7
M  V30 35 1 27 22
M  V30 36 1 20 9
M  V30 37 1 1 33
M  V30 38 1 1 34
M  V30 39 1 4 35
M  V30 40 1 5 36
M  V30 41 1 10 37
M  V30 42 1 11 38
M  V30 43 1 15 39
M  V30 44 1 16 40
M  V30 45 1 16 41
M  V30 46 1 17 42
M  V30 47 1 17 43
M  V30 48 1 19 44
M  V30 49 1 23 45
M  V30 50 1 24 46
M  V30 51 1 25 47
M  V30 52 1 26 48
M  V30 53 1 27 49
M  V30 54 1 28 50
M  V30 55 1 29 51
M  V30 56 1 30 52
M  V30 57 1 30 53
M  V30 58 1 31 54
M  V30 59 1 31 55
M  V30 60 1 32 56
M  V30 61 1 32 57
M  V30 END BOND
M  V30 END CTAB
M  END
>  <Dataset>  (775) 
ChEMBL_Kinases

>  <Ligand_Instance>  (775) 
nan

>  <PDB_ID>  (775) 
nan

>  <Standardized_SMILES>  (775) 
NC1(c2ccc(-c3nc4ccc(C(=O)NCCF)cn4c3-c3ccccc3)cc2)CCC1

>  <Name>  (775) 
nan

>  <Pocket>  (775) 
nan

>  <ATP_Site>  (775) 
nan

>  <Peripheral>  (775) 
nan

>  <Num_H_Atoms_ProtBoundConf>  (775) 
nan

>  <Num_Resolved_Atoms>  (775) 
nan

>  <Num_Not_Resolved_Atoms>  (775) 
nan

$$$$
CHEMBL3699729
     RDKit          3D

  0  0  0  0  0  0  0  0  0  0999 V3000
M  V30 BEGIN CTAB
M  V30 COUNTS 60 64 0 0 0
M  V30 BEGIN ATOM
M  V30 1 C 6.452965 -1.589373 3.962728 0
M  V30 2 C 6.623234 -1.885369 2.488574 0
M  V30 3 C 6.716337 -3.369156 2.315571 0
M  V30 4 N 5.555612 -1.281823 1.752760 0
M  V30 5 C 5.503345 -0.272319 0.753839 0
M  V30 6 O 6.531073 0.287642 0.341885 0
M  V30 7 C 4.221378 0.130722 0.185482 0
M  V30 8 C 4.252417 1.115056 -0.781580 0
M  V30 9 C 3.041499 1.528407 -1.351905 0
M  V30 10 C 1.829718 0.984511 -0.977966 0
M  V30 11 N 0.541000 1.170642 -1.335405 0
M  V30 12 C -0.236179 0.331343 -0.612012 0
M  V30 13 C -1.689319 0.244101 -0.722412 0
M  V30 14 C -2.615944 0.521782 0.267181 0
M  V30 15 C -3.968631 0.397428 0.025031 0
M  V30 16 C -4.459414 -0.006268 -1.204709 0
M  V30 17 C -5.917038 -0.104717 -1.352559 0
M  V30 18 N -6.500425 -0.880584 -0.255348 0
M  V30 19 C -6.444653 -0.530768 -2.702472 0
M  V30 20 C -7.631290 0.402437 -2.424054 0
M  V30 21 C -6.661080 1.199566 -1.542721 0
M  V30 22 C -3.516162 -0.277275 -2.174613 0
M  V30 23 C -2.157223 -0.164219 -1.969161 0
M  V30 24 C 0.582919 -0.401628 0.221746 0
M  V30 25 C 0.056703 -1.403586 1.139718 0
M  V30 26 C -0.615206 -2.554830 0.785284 0
M  V30 27 C -1.076914 -3.444946 1.724846 0
M  V30 28 C -0.883879 -3.218409 3.071476 0
M  V30 29 C -0.218107 -2.080486 3.457028 0
M  V30 30 C 0.252439 -1.173569 2.502758 0
M  V30 31 N 1.849883 0.028013 -0.031443 0
M  V30 32 C 2.999207 -0.397446 0.542715 0
M  V30 33 H 5.469901 -1.982781 4.301424 0
M  V30 34 H 7.246261 -2.004735 4.586523 0
M  V30 35 H 6.434593 -0.478456 4.103870 0
M  V30 36 H 7.626718 -1.464721 2.210198 0
M  V30 37 H 5.759789 -3.889848 2.333128 0
M  V30 38 H 7.254924 -3.682888 1.399359 0
M  V30 39 H 7.326363 -3.762931 3.170583 0
M  V30 40 H 4.716420 -1.776128 2.126439 0
M  V30 41 H 5.137366 1.607714 -1.148904 0
M  V30 42 H 3.055290 2.305654 -2.117195 0
M  V30 43 H -2.165052 0.830239 1.198477 0
M  V30 44 H -4.540030 0.653006 0.902380 0
M  V30 45 H -6.060356 -1.816429 -0.287870 0
M  V30 46 H -6.244031 -0.427881 0.644908 0
M  V30 47 H -5.821925 -0.221702 -3.540228 0
M  V30 48 H -6.737556 -1.614432 -2.690948 0
M  V30 49 H -8.017566 0.941774 -3.288669 0
M  V30 50 H -8.383498 -0.155544 -1.815243 0
M  V30 51 H -7.144153 1.565932 -0.612919 0
M  V30 52 H -6.133851 1.961635 -2.131666 0
M  V30 53 H -3.866432 -0.589158 -3.126255 0
M  V30 54 H -1.492903 -0.395045 -2.779788 0
M  V30 55 H -0.757099 -2.715814 -0.260276 0
M  V30 56 H -1.601850 -4.344663 1.447709 0
M  V30 57 H -1.216986 -3.870478 3.868925 0
M  V30 58 H -0.044894 -1.864000 4.506740 0
M  V30 59 H 0.766598 -0.301233 2.875114 0
M  V30 60 H 2.972369 -1.156928 1.288790 0
M  V30 END ATOM
M  V30 BEGIN BOND
M  V30 1 1 1 2
M  V30 2 1 2 3
M  V30 3 1 2 4
M  V30 4 1 4 5
M  V30 5 2 5 6
M  V30 6 1 5 7
M  V30 7 1 7 8
M  V30 8 2 8 9
M  V30 9 1 9 10
M  V30 10 2 10 11
M  V30 11 1 11 12
M  V30 12 1 12 13
M  V30 13 2 13 14
M  V30 14 1 14 15
M  V30 15 2 15 16
M  V30 16 1 16 17
M  V30 17 1 17 18
M  V30 18 1 17 19
M  V30 19 1 19 20
M  V30 20 1 20 21
M  V30 21 1 16 22
M  V30 22 2 22 23
M  V30 23 2 12 24
M  V30 24 1 24 25
M  V30 25 2 25 26
M  V30 26 1 26 27
M  V30 27 2 27 28
M  V30 28 1 28 29
M  V30 29 2 29 30
M  V30 30 1 24 31
M  V30 31 1 31 32
M  V30 32 2 32 7
M  V30 33 1 31 10
M  V30 34 1 23 13
M  V30 35 1 30 25
M  V30 36 1 21 17
M  V30 37 1 1 33
M  V30 38 1 1 34
M  V30 39 1 1 35
M  V30 40 1 2 36
M  V30 41 1 3 37
M  V30 42 1 3 38
M  V30 43 1 3 39
M  V30 44 1 4 40
M  V30 45 1 8 41
M  V30 46 1 9 42
M  V30 47 1 14 43
M  V30 48 1 15 44
M  V30 49 1 18 45
M  V30 50 1 18 46
M  V30 51 1 19 47
M  V30 52 1 19 48
M  V30 53 1 20 49
M  V30 54 1 20 50
M  V30 55 1 21 51
M  V30 56 1 21 52
M  V30 57 1 22 53
M  V30 58 1 23 54
M  V30 59 1 26 55
M  V30 60 1 27 56
M  V30 61 1 28 57
M  V30 62 1 29 58
M  V30 63 1 30 59
M  V30 64 1 32 60
M  V30 END BOND
M  V30 END CTAB
M  END
>  <Dataset>  (776) 
ChEMBL_Kinases

>  <Ligand_Instance>  (776) 
nan

>  <PDB_ID>  (776) 
nan

>  <Standardized_SMILES>  (776) 
CC(C)NC(=O)c1ccc2nc(-c3ccc(C4(N)CCC4)cc3)c(-c3ccccc3)n2c1

>  <Name>  (776) 
nan

>  <Pocket>  (776) 
nan

>  <ATP_Site>  (776) 
nan

>  <Peripheral>  (776) 
nan

>  <Num_H_Atoms_ProtBoundConf>  (776) 
nan

>  <Num_Resolved_Atoms>  (776) 
nan

>  <Num_Not_Resolved_Atoms>  (776) 
nan

$$$$
CHEMBL3699728
     RDKit          3D

  0  0  0  0  0  0  0  0  0  0999 V3000
M  V30 BEGIN CTAB
M  V30 COUNTS 51 55 0 0 0
M  V30 BEGIN ATOM
M  V30 1 C 3.112082 -5.563395 4.093858 0
M  V30 2 O 2.474079 -4.522318 3.415472 0
M  V30 3 C 3.190912 -3.552171 2.768884 0
M  V30 4 C 4.558570 -3.414185 2.663349 0
M  V30 5 C 5.145448 -2.377255 1.974072 0
M  V30 6 Br 7.041501 -2.257429 1.874462 0
M  V30 7 C 4.362547 -1.426365 1.356175 0
M  V30 8 N 3.011968 -1.577428 1.470236 0
M  V30 9 C 2.109084 -0.740498 0.928865 0
M  V30 10 C 2.265789 0.464129 0.134249 0
M  V30 11 C 1.809018 0.591398 -1.168266 0
M  V30 12 C 2.002634 1.781625 -1.853862 0
M  V30 13 C 2.645713 2.867420 -1.278506 0
M  V30 14 C 3.122342 2.784283 0.031171 0
M  V30 15 C 2.900250 1.564576 0.672772 0
M  V30 16 C 0.895718 -1.262654 1.285930 0
M  V30 17 C -0.453017 -0.762191 0.969845 0
M  V30 18 C -0.967590 0.459601 1.365715 0
M  V30 19 C -2.263398 0.766679 0.975662 0
M  V30 20 C -3.026754 -0.102703 0.220001 0
M  V30 21 C -4.376378 0.347109 -0.122204 0
M  V30 22 N -5.103743 1.021147 0.939169 0
M  V30 23 C -4.546644 1.113688 -1.410329 0
M  V30 24 C -5.941193 0.488069 -1.449521 0
M  V30 25 C -5.270692 -0.703158 -0.746598 0
M  V30 26 C -2.481246 -1.316253 -0.158764 0
M  V30 27 C -1.193470 -1.652754 0.213129 0
M  V30 28 N 1.081272 -2.376979 2.017815 0
M  V30 29 C 2.411475 -2.584693 2.140122 0
M  V30 30 H 3.177507 -5.383424 5.196546 0
M  V30 31 H 2.488953 -6.494634 3.974095 0
M  V30 32 H 4.109033 -5.836329 3.694653 0
M  V30 33 H 5.132652 -4.164785 3.151887 0
M  V30 34 H 4.830016 -0.632472 0.828417 0
M  V30 35 H 1.313377 -0.264128 -1.592618 0
M  V30 36 H 1.647449 1.884314 -2.870145 0
M  V30 37 H 2.789137 3.801289 -1.837792 0
M  V30 38 H 3.625667 3.584276 0.531097 0
M  V30 39 H 3.267224 1.483055 1.698271 0
M  V30 40 H -0.311488 1.076565 1.949990 0
M  V30 41 H -2.615638 1.743670 1.316922 0
M  V30 42 H -4.550660 0.858243 1.819499 0
M  V30 43 H -5.051429 2.050199 0.743849 0
M  V30 44 H -4.646272 2.208207 -1.306831 0
M  V30 45 H -3.885907 0.757378 -2.226282 0
M  V30 46 H -6.326168 0.260655 -2.459536 0
M  V30 47 H -6.617285 1.026759 -0.763329 0
M  V30 48 H -4.824179 -1.313039 -1.555554 0
M  V30 49 H -5.910375 -1.227252 -0.028717 0
M  V30 50 H -3.072162 -1.982537 -0.740519 0
M  V30 51 H -0.838027 -2.620009 -0.122145 0
M  V30 END ATOM
M  V30 BEGIN BOND
M  V30 1 1 1 2
M  V30 2 1 2 3
M  V30 3 2 3 4
M  V30 4 1 4 5
M  V30 5 1 5 6
M  V30 6 2 5 7
M  V30 7 1 7 8
M  V30 8 1 8 9
M  V30 9 1 9 10
M  V30 10 2 10 11
M  V30 11 1 11 12
M  V30 12 2 12 13
M  V30 13 1 13 14
M  V30 14 2 14 15
M  V30 15 2 9 16
M  V30 16 1 16 17
M  V30 17 2 17 18
M  V30 18 1 18 19
M  V30 19 2 19 20
M  V30 20 1 20 21
M  V30 21 1 21 22
M  V30 22 1 21 23
M  V30 23 1 23 24
M  V30 24 1 24 25
M  V30 25 1 20 26
M  V30 26 2 26 27
M  V30 27 1 16 28
M  V30 28 2 28 29
M  V30 29 1 29 3
M  V30 30 1 29 8
M  V30 31 1 15 10
M  V30 32 1 27 17
M  V30 33 1 25 21
M  V30 34 1 1 30
M  V30 35 1 1 31
M  V30 36 1 1 32
M  V30 37 1 4 33
M  V30 38 1 7 34
M  V30 39 1 11 35
M  V30 40 1 12 36
M  V30 41 1 13 37
M  V30 42 1 14 38
M  V30 43 1 15 39
M  V30 44 1 18 40
M  V30 45 1 19 41
M  V30 46 1 22 42
M  V30 47 1 22 43
M  V30 48 1 23 44
M  V30 49 1 23 45
M  V30 50 1 24 46
M  V30 51 1 24 47
M  V30 52 1 25 48
M  V30 53 1 25 49
M  V30 54 1 26 50
M  V30 55 1 27 51
M  V30 END BOND
M  V30 END CTAB
M  END
>  <Dataset>  (777) 
ChEMBL_Kinases

>  <Ligand_Instance>  (777) 
nan

>  <PDB_ID>  (777) 
nan

>  <Standardized_SMILES>  (777) 
COc1cc(Br)cn2c(-c3ccccc3)c(-c3ccc(C4(N)CCC4)cc3)nc12

>  <Name>  (777) 
nan

>  <Pocket>  (777) 
nan

>  <ATP_Site>  (777) 
nan

>  <Peripheral>  (777) 
nan

>  <Num_H_Atoms_ProtBoundConf>  (777) 
nan

>  <Num_Resolved_Atoms>  (777) 
nan

>  <Num_Not_Resolved_Atoms>  (777) 
nan

$$$$
CHEMBL452812
     RDKit          3D

  0  0  0  0  0  0  0  0  0  0999 V3000
M  V30 BEGIN CTAB
M  V30 COUNTS 39 42 0 0 0
M  V30 BEGIN ATOM
M  V30 1 C -2.003069 -5.169204 3.682944 0
M  V30 2 O -0.799464 -4.513492 4.035426 0
M  V30 3 C -0.167133 -3.667401 3.143294 0
M  V30 4 C 1.002332 -3.016305 3.467059 0
M  V30 5 C 1.581784 -2.183934 2.527218 0
M  V30 6 C 1.055106 -1.947848 1.237854 0
M  V30 7 C 1.828671 -1.022968 0.411851 0
M  V30 8 C 1.379780 -0.006888 -0.356157 0
M  V30 9 C 0.088712 0.567534 -0.685662 0
M  V30 10 C -1.115068 0.111112 -1.165296 0
M  V30 11 N -2.046963 1.071515 -1.254303 0
M  V30 12 C -1.497278 2.222939 -0.833790 0
M  V30 13 C -2.000648 3.504578 -0.714775 0
M  V30 14 C -1.186730 4.523650 -0.232988 0
M  V30 15 C 0.122242 4.274030 0.129402 0
M  V30 16 C 0.568087 2.983215 -0.010421 0
M  V30 17 C -0.198863 1.928977 -0.485219 0
M  V30 18 C 2.562053 0.613841 -0.977508 0
M  V30 19 O 2.764194 1.566319 -1.767591 0
M  V30 20 N 3.702396 -0.094576 -0.524022 0
M  V30 21 C 3.305437 -1.175691 0.341705 0
M  V30 22 C -0.090520 -2.620009 0.994488 0
M  V30 23 C -0.696120 -3.455843 1.904925 0
M  V30 24 H -2.775035 -4.348958 3.666868 0
M  V30 25 H -2.235886 -5.931799 4.443528 0
M  V30 26 H -1.930928 -5.653292 2.700719 0
M  V30 27 H 1.452997 -3.154956 4.430510 0
M  V30 28 H 2.497987 -1.701289 2.838262 0
M  V30 29 H -1.290637 -0.905439 -1.450752 0
M  V30 30 H -3.037916 0.910564 -1.600337 0
M  V30 31 H -3.025920 3.690783 -1.002798 0
M  V30 32 H -1.562546 5.536205 -0.130699 0
M  V30 33 H 0.740029 5.078082 0.499860 0
M  V30 34 H 1.608093 2.858092 0.303772 0
M  V30 35 H 4.708979 0.022710 -0.695548 0
M  V30 36 H 3.789358 -0.969279 1.333795 0
M  V30 37 H 3.614537 -2.162976 -0.057361 0
M  V30 38 H -0.504171 -2.472577 0.034616 0
M  V30 39 H -1.620915 -3.930227 1.563245 0
M  V30 END ATOM
M  V30 BEGIN BOND
M  V30 1 1 1 2
M  V30 2 1 2 3
M  V30 3 2 3 4
M  V30 4 1 4 5
M  V30 5 2 5 6
M  V30 6 1 6 7
M  V30 7 2 7 8
M  V30 8 1 8 9
M  V30 9 2 9 10
M  V30 10 1 10 11
M  V30 11 1 11 12
M  V30 12 2 12 13
M  V30 13 1 13 14
M  V30 14 2 14 15
M  V30 15 1 15 16
M  V30 16 2 16 17
M  V30 17 1 8 18
M  V30 18 2 18 19
M  V30 19 1 18 20
M  V30 20 1 20 21
M  V30 21 1 6 22
M  V30 22 2 22 23
M  V30 23 1 23 3
M  V30 24 1 21 7
M  V30 25 1 17 9
M  V30 26 1 17 12
M  V30 27 1 1 24
M  V30 28 1 1 25
M  V30 29 1 1 26
M  V30 30 1 4 27
M  V30 31 1 5 28
M  V30 32 1 10 29
M  V30 33 1 11 30
M  V30 34 1 13 31
M  V30 35 1 14 32
M  V30 36 1 15 33
M  V30 37 1 16 34
M  V30 38 1 20 35
M  V30 39 1 21 36
M  V30 40 1 21 37
M  V30 41 1 22 38
M  V30 42 1 23 39
M  V30 END BOND
M  V30 END CTAB
M  END
>  <Dataset>  (778) 
ChEMBL_Kinases

>  <Ligand_Instance>  (778) 
nan

>  <PDB_ID>  (778) 
nan

>  <Standardized_SMILES>  (778) 
COc1ccc(C2=C(c3c[nH]c4ccccc34)C(=O)NC2)cc1

>  <Name>  (778) 
nan

>  <Pocket>  (778) 
nan

>  <ATP_Site>  (778) 
nan

>  <Peripheral>  (778) 
nan

>  <Num_H_Atoms_ProtBoundConf>  (778) 
nan

>  <Num_Resolved_Atoms>  (778) 
nan

>  <Num_Not_Resolved_Atoms>  (778) 
nan

$$$$
CHEMBL4531946
     RDKit          3D

  0  0  0  0  0  0  0  0  0  0999 V3000
M  V30 BEGIN CTAB
M  V30 COUNTS 65 68 0 0 0
M  V30 BEGIN ATOM
M  V30 1 N 6.541272 0.944332 -2.292963 0
M  V30 2 C 5.285478 1.439231 -1.814378 0
M  V30 3 O 5.009834 2.460626 -2.507735 0
M  V30 4 C 4.783061 0.606597 -0.721417 0 CFG=2
M  V30 5 C 4.614578 -0.829019 -1.171223 0
M  V30 6 C 3.634240 -0.930520 -2.325775 0
M  V30 7 C 3.475062 -2.371510 -2.769047 0
M  V30 8 C 2.509434 -2.507318 -3.913235 0
M  V30 9 C 2.240110 -3.980431 -4.135271 0
M  V30 10 C 3.495115 -4.805874 -4.084987 0
M  V30 11 C 4.707173 -3.907053 -4.329675 0
M  V30 12 C 4.810599 -2.909455 -3.194629 0
M  V30 13 N 3.506171 1.042965 -0.175615 0
M  V30 14 C 3.472962 1.329068 1.212505 0
M  V30 15 O 4.506604 1.200808 1.896929 0
M  V30 16 C 2.125259 1.765230 1.664482 0
M  V30 17 C 1.973808 2.079277 3.041339 0
M  V30 18 N 0.789282 2.470008 3.475700 0
M  V30 19 C -0.182209 2.581686 2.787590 0
M  V30 20 C -1.621343 2.960256 2.823389 0
M  V30 21 N -2.437823 1.798117 3.102491 0
M  V30 22 C -3.862552 1.977608 3.175408 0
M  V30 23 O -4.216319 3.176593 2.976970 0
M  V30 24 C -4.717794 0.829172 3.454825 0
M  V30 25 C -4.468791 -0.511605 3.686554 0
M  V30 26 N -5.674858 -1.104270 3.888929 0
M  V30 27 N -6.633214 -0.181302 3.789190 0
M  V30 28 C -7.929769 -0.739071 3.992251 0
M  V30 29 C -8.675522 -1.483919 3.105582 0
M  V30 30 C -9.920756 -1.955692 3.452888 0
M  V30 31 C -10.488779 -1.708606 4.705948 0
M  V30 32 C -9.708504 -0.965247 5.548431 0
M  V30 33 C -8.455659 -0.473574 5.239317 0
M  V30 34 C -6.100908 1.026413 3.523012 0
M  V30 35 S 0.458346 2.075982 1.079936 0
M  V30 36 H 7.393911 0.727417 -1.715749 0
M  V30 37 H 7.026983 0.664713 -3.147566 0
M  V30 38 H 5.570818 0.581809 0.062409 0
M  V30 39 H 4.125630 -1.384936 -0.317385 0
M  V30 40 H 5.571382 -1.303718 -1.392402 0
M  V30 41 H 2.665473 -0.472733 -2.073153 0
M  V30 42 H 4.057160 -0.316186 -3.145907 0
M  V30 43 H 3.028243 -2.905729 -1.898685 0
M  V30 44 H 2.914472 -2.017905 -4.812733 0
M  V30 45 H 1.542115 -2.011808 -3.682640 0
M  V30 46 H 1.725994 -4.179379 -5.096985 0
M  V30 47 H 1.592119 -4.318684 -3.304671 0
M  V30 48 H 3.519543 -5.640157 -4.809533 0
M  V30 49 H 3.677366 -5.254760 -3.065712 0
M  V30 50 H 5.584658 -4.573289 -4.256301 0
M  V30 51 H 4.625652 -3.374945 -5.296534 0
M  V30 52 H 5.393958 -2.040182 -3.578020 0
M  V30 53 H 5.373365 -3.338678 -2.315785 0
M  V30 54 H 2.693367 1.123110 -0.823947 0
M  V30 55 H 2.735172 2.043340 3.838912 0
M  V30 56 H -1.822385 3.711100 3.613216 0
M  V30 57 H -1.935581 3.447965 1.873297 0
M  V30 58 H -2.085747 0.813846 3.260761 0
M  V30 59 H -3.450476 -0.891864 3.680331 0
M  V30 60 H -8.204041 -1.654256 2.147720 0
M  V30 61 H -10.488960 -2.538026 2.742214 0
M  V30 62 H -11.468340 -2.084310 4.968298 0
M  V30 63 H -10.151728 -0.768425 6.535809 0
M  V30 64 H -7.950112 0.101485 6.006401 0
M  V30 65 H -6.784663 1.847878 3.421416 0
M  V30 END ATOM
M  V30 BEGIN BOND
M  V30 1 1 1 2
M  V30 2 2 2 3
M  V30 3 1 2 4
M  V30 4 1 4 5
M  V30 5 1 5 6
M  V30 6 1 6 7
M  V30 7 1 7 8
M  V30 8 1 8 9
M  V30 9 1 9 10
M  V30 10 1 10 11
M  V30 11 1 11 12
M  V30 12 1 4 13
M  V30 13 1 13 14
M  V30 14 2 14 15
M  V30 15 1 14 16
M  V30 16 2 16 17
M  V30 17 1 17 18
M  V30 18 2 18 19
M  V30 19 1 19 20
M  V30 20 1 20 21
M  V30 21 1 21 22
M  V30 22 2 22 23
M  V30 23 1 22 24
M  V30 24 1 24 25
M  V30 25 2 25 26
M  V30 26 1 26 27
M  V30 27 1 27 28
M  V30 28 2 28 29
M  V30 29 1 29 30
M  V30 30 2 30 31
M  V30 31 1 31 32
M  V30 32 2 32 33
M  V30 33 1 27 34
M  V30 34 1 19 35
M  V30 35 1 12 7
M  V30 36 1 35 16
M  V30 37 2 34 24
M  V30 38 1 33 28
M  V30 39 1 1 36
M  V30 40 1 1 37
M  V30 41 1 4 38 CFG=1
M  V30 42 1 5 39
M  V30 43 1 5 40
M  V30 44 1 6 41
M  V30 45 1 6 42
M  V30 46 1 7 43
M  V30 47 1 8 44
M  V30 48 1 8 45
M  V30 49 1 9 46
M  V30 50 1 9 47
M  V30 51 1 10 48
M  V30 52 1 10 49
M  V30 53 1 11 50
M  V30 54 1 11 51
M  V30 55 1 12 52
M  V30 56 1 12 53
M  V30 57 1 13 54
M  V30 58 1 17 55
M  V30 59 1 20 56
M  V30 60 1 20 57
M  V30 61 1 21 58
M  V30 62 1 25 59
M  V30 63 1 29 60
M  V30 64 1 30 61
M  V30 65 1 31 62
M  V30 66 1 32 63
M  V30 67 1 33 64
M  V30 68 1 34 65
M  V30 END BOND
M  V30 END CTAB
M  END
>  <Dataset>  (779) 
ChEMBL_Kinases

>  <Ligand_Instance>  (779) 
nan

>  <PDB_ID>  (779) 
nan

>  <Standardized_SMILES>  (779) 
NC(=O)[C@H](CCC1CCCCC1)NC(=O)c1cnc(CNC(=O)c2cnn(-c3ccccc3)c2)s1

>  <Name>  (779) 
nan

>  <Pocket>  (779) 
nan

>  <ATP_Site>  (779) 
nan

>  <Peripheral>  (779) 
nan

>  <Num_H_Atoms_ProtBoundConf>  (779) 
nan

>  <Num_Resolved_Atoms>  (779) 
nan

>  <Num_Not_Resolved_Atoms>  (779) 
nan

$$$$
CHEMBL3699740
     RDKit          3D

  0  0  0  0  0  0  0  0  0  0999 V3000
M  V30 BEGIN CTAB
M  V30 COUNTS 64 69 0 0 0
M  V30 BEGIN ATOM
M  V30 1 N -0.309389 -4.919805 5.337353 0
M  V30 2 C -1.004594 -3.659336 5.172036 0
M  V30 3 C -0.744138 -2.988842 3.902328 0
M  V30 4 C 0.628363 -2.965579 3.627806 0
M  V30 5 C 1.153247 -2.387144 2.485248 0
M  V30 6 C 0.315917 -1.801278 1.559220 0
M  V30 7 C 0.639596 -1.141905 0.299634 0
M  V30 8 N 0.401392 0.196051 0.129002 0
M  V30 9 C 0.796974 0.524155 -1.115907 0
M  V30 10 N 0.738864 1.733668 -1.686028 0
M  V30 11 C 1.150678 1.995436 -2.933462 0
M  V30 12 O 1.256926 3.018762 -3.818027 0
M  V30 13 C 0.915225 4.351965 -3.735352 0
M  V30 14 C -0.495796 4.758238 -3.585791 0
M  V30 15 N -1.212741 4.281060 -2.448019 0
M  V30 16 C -1.257765 4.904796 -1.140578 0
M  V30 17 C -2.260514 4.125904 -0.355264 0
M  V30 18 C -2.503143 2.811077 -1.041856 0
M  V30 19 C -2.017355 3.082674 -2.424710 0
M  V30 20 O -2.339874 2.297372 -3.341048 0
M  V30 21 C 1.662176 0.879418 -3.620274 0
M  V30 22 C 1.724986 -0.393110 -3.024949 0
M  V30 23 N 1.283688 -0.549404 -1.762284 0
M  V30 24 C 1.186777 -1.577066 -0.890046 0
M  V30 25 C 1.581723 -2.930473 -1.132104 0
M  V30 26 C 2.557986 -3.722143 -0.565450 0
M  V30 27 C 2.762659 -5.027299 -0.961141 0
M  V30 28 C 1.977956 -5.578709 -1.953041 0
M  V30 29 C 0.974458 -4.823061 -2.562033 0
M  V30 30 C 0.801768 -3.517847 -2.136066 0
M  V30 31 C -1.046016 -1.819645 1.823271 0
M  V30 32 C -1.565411 -2.396877 2.962863 0
M  V30 33 C -2.446329 -3.735133 5.538548 0
M  V30 34 C -2.287713 -2.386417 6.209696 0
M  V30 35 C -0.816029 -2.777631 6.411154 0
M  V30 36 H -0.890864 -5.639392 5.825577 0
M  V30 37 H 0.568260 -4.695184 5.894456 0
M  V30 38 H 1.436726 -3.380388 4.246358 0
M  V30 39 H 2.190064 -2.336860 2.221748 0
M  V30 40 H 1.444744 4.965640 -4.536528 0
M  V30 41 H 1.437296 4.772345 -2.797648 0
M  V30 42 H -1.084600 4.456274 -4.494261 0
M  V30 43 H -0.480404 5.899319 -3.539896 0
M  V30 44 H -0.251388 4.878223 -0.632609 0
M  V30 45 H -1.620217 5.966336 -1.180535 0
M  V30 46 H -1.891977 3.908811 0.671978 0
M  V30 47 H -3.231506 4.659592 -0.221434 0
M  V30 48 H -3.574950 2.504247 -1.043083 0
M  V30 49 H -1.872629 1.998725 -0.575524 0
M  V30 50 H 2.070082 0.758060 -4.628605 0
M  V30 51 H 2.093081 -1.317592 -3.446437 0
M  V30 52 H 3.113637 -3.192995 0.196071 0
M  V30 53 H 3.554083 -5.585398 -0.464440 0
M  V30 54 H 2.134304 -6.613201 -2.271734 0
M  V30 55 H 0.403527 -5.304101 -3.320398 0
M  V30 56 H -0.015482 -3.028545 -2.689111 0
M  V30 57 H -1.842030 -1.400915 1.195978 0
M  V30 58 H -2.597690 -2.455335 3.245965 0
M  V30 59 H -2.723057 -4.561169 6.225951 0
M  V30 60 H -3.197706 -3.669894 4.741877 0
M  V30 61 H -2.443150 -1.532831 5.522811 0
M  V30 62 H -2.847554 -2.240573 7.150391 0
M  V30 63 H -0.148119 -1.920632 6.263446 0
M  V30 64 H -0.726564 -3.339820 7.348621 0
M  V30 END ATOM
M  V30 BEGIN BOND
M  V30 1 1 1 2
M  V30 2 1 2 3
M  V30 3 2 3 4
M  V30 4 1 4 5
M  V30 5 2 5 6
M  V30 6 1 6 7
M  V30 7 1 7 8
M  V30 8 2 8 9
M  V30 9 1 9 10
M  V30 10 2 10 11
M  V30 11 1 11 12
M  V30 12 1 12 13
M  V30 13 1 13 14
M  V30 14 1 14 15
M  V30 15 1 15 16
M  V30 16 1 16 17
M  V30 17 1 17 18
M  V30 18 1 18 19
M  V30 19 2 19 20
M  V30 20 1 11 21
M  V30 21 2 21 22
M  V30 22 1 22 23
M  V30 23 1 23 24
M  V30 24 1 24 25
M  V30 25 2 25 26
M  V30 26 1 26 27
M  V30 27 2 27 28
M  V30 28 1 28 29
M  V30 29 2 29 30
M  V30 30 1 6 31
M  V30 31 2 31 32
M  V30 32 1 2 33
M  V30 33 1 33 34
M  V30 34 1 34 35
M  V30 35 1 35 2
M  V30 36 1 32 3
M  V30 37 2 24 7
M  V30 38 1 30 25
M  V30 39 1 23 9
M  V30 40 1 19 15
M  V30 41 1 1 36
M  V30 42 1 1 37
M  V30 43 1 4 38
M  V30 44 1 5 39
M  V30 45 1 13 40
M  V30 46 1 13 41
M  V30 47 1 14 42
M  V30 48 1 14 43
M  V30 49 1 16 44
M  V30 50 1 16 45
M  V30 51 1 17 46
M  V30 52 1 17 47
M  V30 53 1 18 48
M  V30 54 1 18 49
M  V30 55 1 21 50
M  V30 56 1 22 51
M  V30 57 1 26 52
M  V30 58 1 27 53
M  V30 59 1 28 54
M  V30 60 1 29 55
M  V30 61 1 30 56
M  V30 62 1 31 57
M  V30 63 1 32 58
M  V30 64 1 33 59
M  V30 65 1 33 60
M  V30 66 1 34 61
M  V30 67 1 34 62
M  V30 68 1 35 63
M  V30 69 1 35 64
M  V30 END BOND
M  V30 END CTAB
M  END
>  <Dataset>  (780) 
ChEMBL_Kinases

>  <Ligand_Instance>  (780) 
nan

>  <PDB_ID>  (780) 
nan

>  <Standardized_SMILES>  (780) 
NC1(c2ccc(-c3nc4nc(OCCN5CCCC5=O)ccn4c3-c3ccccc3)cc2)CCC1

>  <Name>  (780) 
nan

>  <Pocket>  (780) 
nan

>  <ATP_Site>  (780) 
nan

>  <Peripheral>  (780) 
nan

>  <Num_H_Atoms_ProtBoundConf>  (780) 
nan

>  <Num_Resolved_Atoms>  (780) 
nan

>  <Num_Not_Resolved_Atoms>  (780) 
nan

$$$$
CHEMBL3699739
     RDKit          3D

  0  0  0  0  0  0  0  0  0  0999 V3000
M  V30 BEGIN CTAB
M  V30 COUNTS 54 59 0 0 0
M  V30 BEGIN ATOM
M  V30 1 N -0.246276 -6.344047 -1.327938 0
M  V30 2 C -1.114493 -5.324263 -1.881030 0
M  V30 3 C -0.817182 -3.964120 -1.411123 0
M  V30 4 C 0.560939 -3.742870 -1.301344 0
M  V30 5 C 1.047702 -2.512941 -0.871728 0
M  V30 6 C 0.173506 -1.470417 -0.539972 0
M  V30 7 C 0.621061 -0.159503 -0.083306 0
M  V30 8 N 1.403113 0.621878 -0.856338 0
M  V30 9 C 1.698117 1.782501 -0.245540 0
M  V30 10 C 2.449125 2.888470 -0.617474 0
M  V30 11 C 2.543065 3.921651 0.267680 0
M  V30 12 C 1.913853 3.859465 1.479423 0
M  V30 13 C 2.061647 5.029691 2.398979 0
M  V30 14 C 1.995446 4.844876 3.877812 0
M  V30 15 C 0.848561 5.452584 3.151486 0
M  V30 16 C 1.166433 2.774302 1.866037 0
M  V30 17 N 1.087583 1.754316 0.964083 0
M  V30 18 C 0.434342 0.582006 1.068016 0
M  V30 19 C -0.379112 0.051178 2.167699 0
M  V30 20 C -1.502218 0.822503 2.435313 0
M  V30 21 C -2.373515 0.471413 3.432970 0
M  V30 22 C -2.129596 -0.666629 4.182514 0
M  V30 23 C -1.016331 -1.436683 3.921727 0
M  V30 24 C -0.116944 -1.102546 2.915425 0
M  V30 25 C -1.190719 -1.721521 -0.659467 0
M  V30 26 C -1.647128 -2.934064 -1.082400 0
M  V30 27 C -2.545267 -5.713795 -2.048827 0
M  V30 28 C -2.172338 -6.295263 -3.401202 0
M  V30 29 C -1.009278 -5.323801 -3.412441 0
M  V30 30 H 0.134807 -6.046921 -0.400408 0
M  V30 31 H 0.583816 -6.410567 -1.962387 0
M  V30 32 H 1.352157 -4.476037 -1.530063 0
M  V30 33 H 2.120148 -2.326713 -0.781925 0
M  V30 34 H 2.934811 2.919383 -1.571499 0
M  V30 35 H 3.131007 4.771946 -0.038942 0
M  V30 36 H 2.692998 5.866204 2.040121 0
M  V30 37 H 1.914421 3.792750 4.223353 0
M  V30 38 H 2.592662 5.483114 4.542213 0
M  V30 39 H -0.080042 4.843098 3.092003 0
M  V30 40 H 0.630582 6.533633 3.256682 0
M  V30 41 H 0.677990 2.733459 2.814792 0
M  V30 42 H -1.769776 1.726668 1.900015 0
M  V30 43 H -3.267918 1.072075 3.657700 0
M  V30 44 H -2.795004 -0.965410 4.971256 0
M  V30 45 H -0.758252 -2.346405 4.470025 0
M  V30 46 H 0.776311 -1.632272 2.632649 0
M  V30 47 H -1.947125 -1.009313 -0.436176 0
M  V30 48 H -2.694429 -3.181362 -1.192911 0
M  V30 49 H -2.765459 -6.580199 -1.368389 0
M  V30 50 H -3.290064 -4.923130 -2.063261 0
M  V30 51 H -2.893193 -6.046271 -4.210082 0
M  V30 52 H -1.822825 -7.340434 -3.380409 0
M  V30 53 H -1.262368 -4.357109 -3.887124 0
M  V30 54 H -0.048392 -5.768010 -3.757570 0
M  V30 END ATOM
M  V30 BEGIN BOND
M  V30 1 1 1 2
M  V30 2 1 2 3
M  V30 3 2 3 4
M  V30 4 1 4 5
M  V30 5 2 5 6
M  V30 6 1 6 7
M  V30 7 1 7 8
M  V30 8 2 8 9
M  V30 9 1 9 10
M  V30 10 2 10 11
M  V30 11 1 11 12
M  V30 12 1 12 13
M  V30 13 1 13 14
M  V30 14 1 14 15
M  V30 15 2 12 16
M  V30 16 1 16 17
M  V30 17 1 17 18
M  V30 18 1 18 19
M  V30 19 2 19 20
M  V30 20 1 20 21
M  V30 21 2 21 22
M  V30 22 1 22 23
M  V30 23 2 23 24
M  V30 24 1 6 25
M  V30 25 2 25 26
M  V30 26 1 2 27
M  V30 27 1 27 28
M  V30 28 1 28 29
M  V30 29 1 29 2
M  V30 30 1 26 3
M  V30 31 2 18 7
M  V30 32 1 24 19
M  V30 33 1 17 9
M  V30 34 1 15 13
M  V30 35 1 1 30
M  V30 36 1 1 31
M  V30 37 1 4 32
M  V30 38 1 5 33
M  V30 39 1 10 34
M  V30 40 1 11 35
M  V30 41 1 13 36
M  V30 42 1 14 37
M  V30 43 1 14 38
M  V30 44 1 15 39
M  V30 45 1 15 40
M  V30 46 1 16 41
M  V30 47 1 20 42
M  V30 48 1 21 43
M  V30 49 1 22 44
M  V30 50 1 23 45
M  V30 51 1 24 46
M  V30 52 1 25 47
M  V30 53 1 26 48
M  V30 54 1 27 49
M  V30 55 1 27 50
M  V30 56 1 28 51
M  V30 57 1 28 52
M  V30 58 1 29 53
M  V30 59 1 29 54
M  V30 END BOND
M  V30 END CTAB
M  END
>  <Dataset>  (781) 
ChEMBL_Kinases

>  <Ligand_Instance>  (781) 
nan

>  <PDB_ID>  (781) 
nan

>  <Standardized_SMILES>  (781) 
NC1(c2ccc(-c3nc4ccc(C5CC5)cn4c3-c3ccccc3)cc2)CCC1

>  <Name>  (781) 
nan

>  <Pocket>  (781) 
nan

>  <ATP_Site>  (781) 
nan

>  <Peripheral>  (781) 
nan

>  <Num_H_Atoms_ProtBoundConf>  (781) 
nan

>  <Num_Resolved_Atoms>  (781) 
nan

>  <Num_Not_Resolved_Atoms>  (781) 
nan

$$$$
CHEMBL4531667
     RDKit          3D

  0  0  0  0  0  0  0  0  0  0999 V3000
M  V30 BEGIN CTAB
M  V30 COUNTS 29 30 0 0 0
M  V30 BEGIN ATOM
M  V30 1 C -2.247315 -2.195863 1.469701 0
M  V30 2 O -1.416951 -1.098509 1.148899 0
M  V30 3 C -0.043575 -1.196651 0.970545 0
M  V30 4 C 0.680851 -2.366978 1.082423 0
M  V30 5 C 2.055017 -2.325306 0.878219 0
M  V30 6 C 2.823092 -3.541442 0.992334 0
M  V30 7 N 2.207585 -4.781105 1.308719 0
M  V30 8 O 4.074413 -3.564628 0.817592 0
M  V30 9 C 2.707315 -1.146015 0.567793 0
M  V30 10 C 1.952500 0.013180 0.462308 0
M  V30 11 C 0.577794 0.004879 0.660448 0
M  V30 12 C -0.166421 1.264214 0.535022 0
M  V30 13 C 0.056257 2.138098 -0.510357 0
M  V30 14 C -0.666824 3.332432 -0.606953 0
M  V30 15 C -1.584253 3.543324 0.399965 0
M  V30 16 N -1.800742 2.691967 1.417822 0
M  V30 17 C -1.104215 1.525296 1.524890 0
M  V30 18 H -1.885716 -3.119328 0.979487 0
M  V30 19 H -2.300694 -2.291011 2.587074 0
M  V30 20 H -3.286382 -2.017668 1.095521 0
M  V30 21 H 0.129797 -3.264099 1.326421 0
M  V30 22 H 1.346938 -5.040122 1.799828 0
M  V30 23 H 2.631740 -5.708040 1.031839 0
M  V30 24 H 3.780900 -1.169671 0.418600 0
M  V30 25 H 2.446261 0.953701 0.218512 0
M  V30 26 H 0.791967 1.911366 -1.267935 0
M  V30 27 H -0.514001 4.035776 -1.414111 0
M  V30 28 H -2.183256 4.446963 0.394223 0
M  V30 29 H -1.339187 0.912841 2.359866 0
M  V30 END ATOM
M  V30 BEGIN BOND
M  V30 1 1 1 2
M  V30 2 1 2 3
M  V30 3 2 3 4
M  V30 4 1 4 5
M  V30 5 1 5 6
M  V30 6 1 6 7
M  V30 7 2 6 8
M  V30 8 2 5 9
M  V30 9 1 9 10
M  V30 10 2 10 11
M  V30 11 1 11 12
M  V30 12 2 12 13
M  V30 13 1 13 14
M  V30 14 2 14 15
M  V30 15 1 15 16
M  V30 16 2 16 17
M  V30 17 1 11 3
M  V30 18 1 17 12
M  V30 19 1 1 18
M  V30 20 1 1 19
M  V30 21 1 1 20
M  V30 22 1 4 21
M  V30 23 1 7 22
M  V30 24 1 7 23
M  V30 25 1 9 24
M  V30 26 1 10 25
M  V30 27 1 13 26
M  V30 28 1 14 27
M  V30 29 1 15 28
M  V30 30 1 17 29
M  V30 END BOND
M  V30 END CTAB
M  END
>  <Dataset>  (782) 
ChEMBL_Kinases

>  <Ligand_Instance>  (782) 
nan

>  <PDB_ID>  (782) 
nan

>  <Standardized_SMILES>  (782) 
COc1cc(C(N)=O)ccc1-c1cccnc1

>  <Name>  (782) 
nan

>  <Pocket>  (782) 
nan

>  <ATP_Site>  (782) 
nan

>  <Peripheral>  (782) 
nan

>  <Num_H_Atoms_ProtBoundConf>  (782) 
nan

>  <Num_Resolved_Atoms>  (782) 
nan

>  <Num_Not_Resolved_Atoms>  (782) 
nan

$$$$
CHEMBL3699738
     RDKit          3D

  0  0  0  0  0  0  0  0  0  0999 V3000
M  V30 BEGIN CTAB
M  V30 COUNTS 57 61 0 0 0
M  V30 BEGIN ATOM
M  V30 1 C 5.279119 -6.512004 1.046363 0
M  V30 2 C 5.907227 -5.305229 0.352887 0
M  V30 3 N 4.979657 -4.206392 0.241179 0
M  V30 4 C 5.286998 -2.954411 -0.358359 0
M  V30 5 O 6.438607 -2.768691 -0.830436 0
M  V30 6 C 4.336519 -1.852279 -0.463016 0
M  V30 7 C 4.766068 -0.694207 -1.070802 0
M  V30 8 C 3.894268 0.392810 -1.196300 0
M  V30 9 C 2.613627 0.261609 -0.697431 0
M  V30 10 N 1.582858 1.133541 -0.681947 0
M  V30 11 C 0.512342 0.565577 -0.083338 0
M  V30 12 C -0.802084 1.150524 0.146140 0
M  V30 13 C -1.448265 1.480427 1.318967 0
M  V30 14 C -2.713478 2.028647 1.279104 0
M  V30 15 C -3.372579 2.265441 0.088688 0
M  V30 16 C -4.710438 2.855235 0.289264 0
M  V30 17 N -4.651912 3.941563 1.231767 0
M  V30 18 C -5.524163 3.152403 -0.929529 0
M  V30 19 C -6.740785 2.610736 -0.186393 0
M  V30 20 C -5.786186 1.866179 0.700687 0
M  V30 21 C -2.731079 1.937535 -1.088893 0
M  V30 22 C -1.464660 1.388107 -1.064135 0
M  V30 23 C 0.876618 -0.710273 0.293700 0
M  V30 24 C 0.140494 -1.769479 0.970418 0
M  V30 25 C -0.015600 -2.867034 0.113389 0
M  V30 26 C -0.686586 -4.015123 0.528407 0
M  V30 27 C -1.207474 -4.078725 1.801172 0
M  V30 28 C -1.044264 -2.990240 2.629543 0
M  V30 29 C -0.384772 -1.845174 2.240719 0
M  V30 30 N 2.172366 -0.879600 -0.092218 0
M  V30 31 C 3.044024 -1.921312 0.015415 0
M  V30 32 H 4.292627 -6.264349 1.479764 0
M  V30 33 H 5.132565 -7.368594 0.354793 0
M  V30 34 H 5.923161 -6.900937 1.858091 0
M  V30 35 H 6.746186 -4.976281 1.001572 0
M  V30 36 H 6.277476 -5.685947 -0.623424 0
M  V30 37 H 4.038270 -4.349330 0.623213 0
M  V30 38 H 5.774260 -0.558089 -1.476551 0
M  V30 39 H 4.182716 1.327726 -1.666612 0
M  V30 40 H -0.847310 1.257806 2.188224 0
M  V30 41 H -3.100494 2.238605 2.277675 0
M  V30 42 H -5.288877 4.719398 0.986261 0
M  V30 43 H -4.948885 3.576514 2.163081 0
M  V30 44 H -5.691371 4.260608 -1.053624 0
M  V30 45 H -5.288085 2.640778 -1.860899 0
M  V30 46 H -7.368814 1.908392 -0.766642 0
M  V30 47 H -7.293284 3.363399 0.405555 0
M  V30 48 H -5.475176 0.855571 0.366297 0
M  V30 49 H -5.998484 1.873187 1.776507 0
M  V30 50 H -3.311323 2.153069 -1.971005 0
M  V30 51 H -1.105559 1.190100 -2.071055 0
M  V30 52 H 0.346497 -2.954873 -0.922426 0
M  V30 53 H -0.826966 -4.881385 -0.103086 0
M  V30 54 H -1.745822 -4.917595 2.228704 0
M  V30 55 H -1.410509 -2.911422 3.666404 0
M  V30 56 H -0.204059 -0.956920 2.799306 0
M  V30 57 H 2.706812 -2.813344 0.485959 0
M  V30 END ATOM
M  V30 BEGIN BOND
M  V30 1 1 1 2
M  V30 2 1 2 3
M  V30 3 1 3 4
M  V30 4 2 4 5
M  V30 5 1 4 6
M  V30 6 1 6 7
M  V30 7 2 7 8
M  V30 8 1 8 9
M  V30 9 2 9 10
M  V30 10 1 10 11
M  V30 11 1 11 12
M  V30 12 2 12 13
M  V30 13 1 13 14
M  V30 14 2 14 15
M  V30 15 1 15 16
M  V30 16 1 16 17
M  V30 17 1 16 18
M  V30 18 1 18 19
M  V30 19 1 19 20
M  V30 20 1 15 21
M  V30 21 2 21 22
M  V30 22 2 11 23
M  V30 23 1 23 24
M  V30 24 2 24 25
M  V30 25 1 25 26
M  V30 26 2 26 27
M  V30 27 1 27 28
M  V30 28 2 28 29
M  V30 29 1 23 30
M  V30 30 1 30 31
M  V30 31 2 31 6
M  V30 32 1 30 9
M  V30 33 1 22 12
M  V30 34 1 29 24
M  V30 35 1 20 16
M  V30 36 1 1 32
M  V30 37 1 1 33
M  V30 38 1 1 34
M  V30 39 1 2 35
M  V30 40 1 2 36
M  V30 41 1 3 37
M  V30 42 1 7 38
M  V30 43 1 8 39
M  V30 44 1 13 40
M  V30 45 1 14 41
M  V30 46 1 17 42
M  V30 47 1 17 43
M  V30 48 1 18 44
M  V30 49 1 18 45
M  V30 50 1 19 46
M  V30 51 1 19 47
M  V30 52 1 20 48
M  V30 53 1 20 49
M  V30 54 1 21 50
M  V30 55 1 22 51
M  V30 56 1 25 52
M  V30 57 1 26 53
M  V30 58 1 27 54
M  V30 59 1 28 55
M  V30 60 1 29 56
M  V30 61 1 31 57
M  V30 END BOND
M  V30 END CTAB
M  END
>  <Dataset>  (783) 
ChEMBL_Kinases

>  <Ligand_Instance>  (783) 
nan

>  <PDB_ID>  (783) 
nan

>  <Standardized_SMILES>  (783) 
CCNC(=O)c1ccc2nc(-c3ccc(C4(N)CCC4)cc3)c(-c3ccccc3)n2c1

>  <Name>  (783) 
nan

>  <Pocket>  (783) 
nan

>  <ATP_Site>  (783) 
nan

>  <Peripheral>  (783) 
nan

>  <Num_H_Atoms_ProtBoundConf>  (783) 
nan

>  <Num_Resolved_Atoms>  (783) 
nan

>  <Num_Not_Resolved_Atoms>  (783) 
nan

$$$$
CHEMBL231512
     RDKit          3D

  0  0  0  0  0  0  0  0  0  0999 V3000
M  V30 BEGIN CTAB
M  V30 COUNTS 62 64 0 0 0
M  V30 BEGIN ATOM
M  V30 1 C 3.473591 0.361859 4.846598 0
M  V30 2 N 4.574156 0.390844 3.933682 0
M  V30 3 C 5.401904 -0.779161 4.154954 0
M  V30 4 C 4.266401 0.524483 2.553171 0
M  V30 5 C 3.732933 1.847242 2.105330 0
M  V30 6 C 2.465261 2.310007 2.725836 0
M  V30 7 N 2.029353 3.600451 2.192660 0
M  V30 8 N 0.864543 3.931704 2.843133 0
M  V30 9 S -0.547232 3.906694 1.886994 0
M  V30 10 O -0.454600 4.979428 0.816100 0
M  V30 11 O -1.686037 4.361736 2.790431 0
M  V30 12 C -0.936646 2.363192 1.213329 0
M  V30 13 C -0.446591 2.004196 -0.029470 0
M  V30 14 C -0.717443 0.794810 -0.624223 0
M  V30 15 C -1.528259 -0.076868 0.098082 0
M  V30 16 C -1.899458 -1.394006 -0.405664 0
M  V30 17 C -2.326021 -1.604068 -1.705472 0
M  V30 18 C -2.680053 -2.838093 -2.195418 0
M  V30 19 C -3.129912 -3.025971 -3.590178 0
M  V30 20 C -3.826260 -2.045552 -4.280896 0
M  V30 21 C -4.218766 -2.293328 -5.593503 0
M  V30 22 C -3.927791 -3.492201 -6.214529 0
M  V30 23 C -3.233934 -4.446317 -5.499695 0
M  V30 24 C -2.822814 -4.249554 -4.197467 0
M  V30 25 C -2.623216 -3.956681 -1.385483 0
M  V30 26 C -2.198573 -3.739004 -0.095729 0
M  V30 27 C -2.117267 -4.879645 0.806962 0
M  V30 28 N -2.435799 -6.216902 0.461427 0
M  V30 29 O -1.772415 -4.913536 1.992473 0
M  V30 30 C -1.841833 -2.507407 0.404548 0
M  V30 31 N -1.422345 -2.404027 1.735592 0
M  V30 32 C -2.035559 0.244924 1.339201 0
M  V30 33 C -1.745557 1.468587 1.911053 0
M  V30 34 H 3.551793 -0.534429 5.550220 0
M  V30 35 H 3.551977 1.225720 5.564204 0
M  V30 36 H 2.482862 0.246246 4.392216 0
M  V30 37 H 6.007808 -1.048972 3.251032 0
M  V30 38 H 4.771265 -1.667884 4.442298 0
M  V30 39 H 6.067300 -0.588233 5.024752 0
M  V30 40 H 3.643052 -0.329351 2.181005 0
M  V30 41 H 5.236601 0.389773 1.977330 0
M  V30 42 H 4.553660 2.609210 2.276399 0
M  V30 43 H 3.622337 1.811534 0.996843 0
M  V30 44 H 1.631979 1.610543 2.623586 0
M  V30 45 H 2.658625 2.523283 3.817934 0
M  V30 46 H 1.982115 3.587046 1.150744 0
M  V30 47 H 0.899582 4.830286 3.342708 0
M  V30 48 H 0.194249 2.677773 -0.613877 0
M  V30 49 H -0.343003 0.497969 -1.595127 0
M  V30 50 H -2.376819 -0.729401 -2.362274 0
M  V30 51 H -4.041627 -1.126360 -3.784978 0
M  V30 52 H -4.752656 -1.507570 -6.085982 0
M  V30 53 H -4.278282 -3.581941 -7.233352 0
M  V30 54 H -3.065346 -5.352278 -6.102679 0
M  V30 55 H -2.286504 -5.059453 -3.726368 0
M  V30 56 H -2.891370 -4.932800 -1.730841 0
M  V30 57 H -2.279973 -7.124604 -0.006370 0
M  V30 58 H -1.566088 -6.349379 -0.136123 0
M  V30 59 H -1.662529 -2.698544 2.703850 0
M  V30 60 H -0.581055 -1.859166 1.942331 0
M  V30 61 H -2.663519 -0.380481 1.942098 0
M  V30 62 H -2.101377 1.811389 2.888301 0
M  V30 END ATOM
M  V30 BEGIN BOND
M  V30 1 1 1 2
M  V30 2 1 2 3
M  V30 3 1 2 4
M  V30 4 1 4 5
M  V30 5 1 5 6
M  V30 6 1 6 7
M  V30 7 1 7 8
M  V30 8 1 8 9
M  V30 9 2 9 10
M  V30 10 2 9 11
M  V30 11 1 9 12
M  V30 12 2 12 13
M  V30 13 1 13 14
M  V30 14 2 14 15
M  V30 15 1 15 16
M  V30 16 2 16 17
M  V30 17 1 17 18
M  V30 18 1 18 19
M  V30 19 2 19 20
M  V30 20 1 20 21
M  V30 21 2 21 22
M  V30 22 1 22 23
M  V30 23 2 23 24
M  V30 24 2 18 25
M  V30 25 1 25 26
M  V30 26 1 26 27
M  V30 27 1 27 28
M  V30 28 2 27 29
M  V30 29 2 26 30
M  V30 30 1 30 31
M  V30 31 1 15 32
M  V30 32 2 32 33
M  V30 33 1 33 12
M  V30 34 1 30 16
M  V30 35 1 24 19
M  V30 36 1 1 34
M  V30 37 1 1 35
M  V30 38 1 1 36
M  V30 39 1 3 37
M  V30 40 1 3 38
M  V30 41 1 3 39
M  V30 42 1 4 40
M  V30 43 1 4 41
M  V30 44 1 5 42
M  V30 45 1 5 43
M  V30 46 1 6 44
M  V30 47 1 6 45
M  V30 48 1 7 46
M  V30 49 1 8 47
M  V30 50 1 13 48
M  V30 51 1 14 49
M  V30 52 1 17 50
M  V30 53 1 20 51
M  V30 54 1 21 52
M  V30 55 1 22 53
M  V30 56 1 23 54
M  V30 57 1 24 55
M  V30 58 1 25 56
M  V30 59 1 28 57
M  V30 60 1 28 58
M  V30 61 1 31 59
M  V30 62 1 31 60
M  V30 63 1 32 61
M  V30 64 1 33 62
M  V30 END BOND
M  V30 END CTAB
M  END
>  <Dataset>  (784) 
ChEMBL_Kinases

>  <Ligand_Instance>  (784) 
nan

>  <PDB_ID>  (784) 
nan

>  <Standardized_SMILES>  (784) 
CN(C)CCCNNS(=O)(=O)c1ccc(-c2cc(-c3ccccc3)cc(C(N)=O)c2N)cc1

>  <Name>  (784) 
nan

>  <Pocket>  (784) 
nan

>  <ATP_Site>  (784) 
nan

>  <Peripheral>  (784) 
nan

>  <Num_H_Atoms_ProtBoundConf>  (784) 
nan

>  <Num_Resolved_Atoms>  (784) 
nan

>  <Num_Not_Resolved_Atoms>  (784) 
nan

$$$$
CHEMBL231530
     RDKit          3D

  0  0  0  0  0  0  0  0  0  0999 V3000
M  V30 BEGIN CTAB
M  V30 COUNTS 34 37 0 0 0
M  V30 BEGIN ATOM
M  V30 1 C -0.298580 -1.727614 5.228821 0
M  V30 2 N -1.170990 -1.001578 4.356790 0
M  V30 3 C -0.868035 -0.768174 2.998653 0
M  V30 4 N 0.280603 -1.245088 2.508074 0
M  V30 5 C 0.561390 -1.018457 1.214000 0
M  V30 6 C 1.774326 -1.542173 0.764542 0
M  V30 7 C 2.057108 -1.306839 -0.563197 0
M  V30 8 C 3.258908 -1.820410 -1.026829 0
M  V30 9 C 3.671020 -1.661220 -2.333073 0
M  V30 10 C 2.843821 -0.964262 -3.189160 0
M  V30 11 C 1.642132 -0.440350 -2.761117 0
M  V30 12 C 1.222521 -0.600893 -1.436385 0
M  V30 13 C 0.020049 -0.100996 -0.924762 0
M  V30 14 C -0.288642 -0.313917 0.374183 0
M  V30 15 N -1.428023 0.164421 0.842812 0
M  V30 16 C -2.402466 0.855048 0.280579 0
M  V30 17 C -2.636368 1.375744 -1.068163 0
M  V30 18 C -3.313872 1.039309 1.334079 0
M  V30 19 N -2.891076 0.475317 2.482306 0
M  V30 20 C -1.694372 -0.072276 2.144635 0
M  V30 21 H 0.743224 -1.724957 4.848246 0
M  V30 22 H -0.674159 -2.759350 5.436022 0
M  V30 23 H -0.241031 -1.257135 6.251581 0
M  V30 24 H -2.058607 -0.642167 4.767059 0
M  V30 25 H 2.426581 -2.083182 1.410331 0
M  V30 26 H 3.915088 -2.364076 -0.379193 0
M  V30 27 H 4.598160 -2.044022 -2.736576 0
M  V30 28 H 3.090480 -0.791176 -4.237201 0
M  V30 29 H 0.990040 0.103550 -3.417082 0
M  V30 30 H -0.504592 0.402871 -1.679503 0
M  V30 31 H -3.630392 1.927781 -1.098720 0
M  V30 32 H -2.792016 0.601502 -1.854746 0
M  V30 33 H -1.926389 2.188571 -1.368331 0
M  V30 34 H -4.277450 1.572716 1.289569 0
M  V30 END ATOM
M  V30 BEGIN BOND
M  V30 1 1 1 2
M  V30 2 1 2 3
M  V30 3 2 3 4
M  V30 4 1 4 5
M  V30 5 2 5 6
M  V30 6 1 6 7
M  V30 7 2 7 8
M  V30 8 1 8 9
M  V30 9 2 9 10
M  V30 10 1 10 11
M  V30 11 2 11 12
M  V30 12 1 12 13
M  V30 13 2 13 14
M  V30 14 1 14 15
M  V30 15 1 15 16
M  V30 16 1 16 17
M  V30 17 2 16 18
M  V30 18 1 18 19
M  V30 19 2 19 20
M  V30 20 1 20 3
M  V30 21 1 14 5
M  V30 22 1 20 15
M  V30 23 1 12 7
M  V30 24 1 1 21
M  V30 25 1 1 22
M  V30 26 1 1 23
M  V30 27 1 2 24
M  V30 28 1 6 25
M  V30 29 1 8 26
M  V30 30 1 9 27
M  V30 31 1 10 28
M  V30 32 1 11 29
M  V30 33 1 13 30
M  V30 34 1 17 31
M  V30 35 1 17 32
M  V30 36 1 17 33
M  V30 37 1 18 34
M  V30 END BOND
M  V30 END CTAB
M  END
>  <Dataset>  (785) 
ChEMBL_Kinases

>  <Ligand_Instance>  (785) 
nan

>  <PDB_ID>  (785) 
nan

>  <Standardized_SMILES>  (785) 
CNc1nc2cc3ccccc3cc2n2c(C)cnc12

>  <Name>  (785) 
nan

>  <Pocket>  (785) 
nan

>  <ATP_Site>  (785) 
nan

>  <Peripheral>  (785) 
nan

>  <Num_H_Atoms_ProtBoundConf>  (785) 
nan

>  <Num_Resolved_Atoms>  (785) 
nan

>  <Num_Not_Resolved_Atoms>  (785) 
nan

$$$$
CHEMBL4530924
     RDKit          3D

  0  0  0  0  0  0  0  0  0  0999 V3000
M  V30 BEGIN CTAB
M  V30 COUNTS 49 52 0 0 0
M  V30 BEGIN ATOM
M  V30 1 C 0.235466 -5.230877 0.698507 0
M  V30 2 C 1.634524 -4.807202 1.108455 0 CFG=1
M  V30 3 N 2.640798 -5.654672 0.520222 0
M  V30 4 C 3.498236 -4.925673 -0.352575 0
M  V30 5 O 4.461058 -5.388568 -1.004477 0
M  V30 6 C 2.987135 -3.560379 -0.293222 0
M  V30 7 C 3.200977 -2.291824 -0.789210 0
M  V30 8 C 2.268256 -1.419600 -0.266223 0
M  V30 9 C 2.235025 -0.002606 -0.602517 0
M  V30 10 N 3.118220 0.553886 -1.451745 0
M  V30 11 C 3.123777 1.854821 -1.789343 0
M  V30 12 C 2.204136 2.745397 -1.281524 0
M  V30 13 C 1.273724 2.229551 -0.404921 0
M  V30 14 C 0.339808 3.101110 0.119232 0
M  V30 15 O 0.363967 4.310560 -0.209794 0
M  V30 16 N -0.578422 2.619052 0.977444 0
M  V30 17 C -1.567327 3.479541 1.551343 0
M  V30 18 C -0.533889 1.307931 1.277428 0
M  V30 19 N -1.457420 0.700561 2.168644 0
M  V30 20 C -2.736365 0.085225 1.892793 0
M  V30 21 C -3.703876 1.069623 1.257944 0
M  V30 22 C -3.342238 -0.457432 3.145659 0
M  V30 23 C -2.586194 -1.050695 0.904536 0
M  V30 24 N 0.379081 0.462955 0.763291 0
M  V30 25 C 1.315002 0.887315 -0.094228 0
M  V30 26 N 1.516956 -2.173635 0.528069 0
M  V30 27 C 1.901171 -3.460782 0.550258 0
M  V30 28 H -0.084263 -6.107461 1.268100 0
M  V30 29 H -0.419897 -4.356739 0.909191 0
M  V30 30 H 0.246014 -5.422349 -0.391032 0
M  V30 31 H 1.771103 -4.838290 2.202141 0
M  V30 32 H 2.684702 -6.674557 0.746233 0
M  V30 33 H 4.005137 -2.039641 -1.497280 0
M  V30 34 H 3.892675 2.174421 -2.486438 0
M  V30 35 H 2.280177 3.774641 -1.605954 0
M  V30 36 H -1.965634 3.141602 2.523933 0
M  V30 37 H -1.124069 4.493759 1.754375 0
M  V30 38 H -2.429032 3.673261 0.891151 0
M  V30 39 H -1.065690 0.755730 3.144723 0
M  V30 40 H -4.633347 0.565560 0.934849 0
M  V30 41 H -3.267699 1.492140 0.311610 0
M  V30 42 H -3.918872 1.847371 1.989719 0
M  V30 43 H -2.638231 -0.341976 4.015490 0
M  V30 44 H -4.238875 0.149589 3.465948 0
M  V30 45 H -3.672065 -1.509099 3.018105 0
M  V30 46 H -1.929800 -1.838049 1.336818 0
M  V30 47 H -3.577555 -1.519439 0.775838 0
M  V30 48 H -2.223830 -0.672042 -0.073893 0
M  V30 49 H 0.710363 -1.839469 1.087922 0
M  V30 END ATOM
M  V30 BEGIN BOND
M  V30 1 1 1 2
M  V30 2 1 2 3
M  V30 3 1 3 4
M  V30 4 2 4 5
M  V30 5 1 4 6
M  V30 6 1 6 7
M  V30 7 2 7 8
M  V30 8 1 8 9
M  V30 9 2 9 10
M  V30 10 1 10 11
M  V30 11 2 11 12
M  V30 12 1 12 13
M  V30 13 1 13 14
M  V30 14 2 14 15
M  V30 15 1 14 16
M  V30 16 1 16 17
M  V30 17 1 16 18
M  V30 18 1 18 19
M  V30 19 1 19 20
M  V30 20 1 20 21
M  V30 21 1 20 22
M  V30 22 1 20 23
M  V30 23 2 18 24
M  V30 24 1 24 25
M  V30 25 1 8 26
M  V30 26 1 26 27
M  V30 27 1 27 2
M  V30 28 2 27 6
M  V30 29 1 25 9
M  V30 30 2 25 13
M  V30 31 1 1 28
M  V30 32 1 1 29
M  V30 33 1 1 30
M  V30 34 1 2 31 CFG=1
M  V30 35 1 3 32
M  V30 36 1 7 33
M  V30 37 1 11 34
M  V30 38 1 12 35
M  V30 39 1 17 36
M  V30 40 1 17 37
M  V30 41 1 17 38
M  V30 42 1 19 39
M  V30 43 1 21 40
M  V30 44 1 21 41
M  V30 45 1 21 42
M  V30 46 1 22 43
M  V30 47 1 22 44
M  V30 48 1 22 45
M  V30 49 1 23 46
M  V30 50 1 23 47
M  V30 51 1 23 48
M  V30 52 1 26 49
M  V30 END BOND
M  V30 END CTAB
M  END
>  <Dataset>  (786) 
ChEMBL_Kinases

>  <Ligand_Instance>  (786) 
nan

>  <PDB_ID>  (786) 
nan

>  <Standardized_SMILES>  (786) 
C[C@H]1NC(=O)c2cc(-c3nccc4c(=O)n(C)c(NC(C)(C)C)nc34)[nH]c21

>  <Name>  (786) 
nan

>  <Pocket>  (786) 
nan

>  <ATP_Site>  (786) 
nan

>  <Peripheral>  (786) 
nan

>  <Num_H_Atoms_ProtBoundConf>  (786) 
nan

>  <Num_Resolved_Atoms>  (786) 
nan

>  <Num_Not_Resolved_Atoms>  (786) 
nan

$$$$
CHEMBL3699735
     RDKit          3D

  0  0  0  0  0  0  0  0  0  0999 V3000
M  V30 BEGIN CTAB
M  V30 COUNTS 52 56 0 0 0
M  V30 BEGIN ATOM
M  V30 1 N -2.668692 -5.717424 -0.287569 0
M  V30 2 C -3.236373 -4.388691 -0.174024 0
M  V30 3 C -2.266808 -3.291294 -0.377567 0
M  V30 4 C -2.454430 -2.133486 -1.077751 0
M  V30 5 C -1.519936 -1.154858 -1.231035 0
M  V30 6 C -0.277733 -1.309962 -0.648959 0
M  V30 7 C 0.750081 -0.297268 -0.783392 0
M  V30 8 N 1.389342 0.213329 -1.875648 0
M  V30 9 C 2.275591 1.150733 -1.448383 0
M  V30 10 C 3.147334 1.936336 -2.182491 0
M  V30 11 C 3.945400 2.817501 -1.484408 0
M  V30 12 C 3.913163 2.947287 -0.113574 0
M  V30 13 C 4.800589 3.910965 0.522953 0
M  V30 14 O 5.558693 4.581170 -0.230348 0
M  V30 15 N 4.815507 4.092288 1.933046 0
M  V30 16 O 5.615506 4.970498 2.587806 0
M  V30 17 C 3.031586 2.142327 0.540083 0
M  V30 18 N 2.232526 1.267371 -0.096966 0
M  V30 19 C 1.291143 0.372390 0.301369 0
M  V30 20 C 0.929464 0.176671 1.704771 0
M  V30 21 C 1.692209 -0.241143 2.775554 0
M  V30 22 C 1.127314 -0.349830 4.012298 0
M  V30 23 C -0.216098 -0.044623 4.217018 0
M  V30 24 C -0.999926 0.375687 3.160480 0
M  V30 25 C -0.415369 0.485413 1.893988 0
M  V30 26 C -0.036634 -2.475325 0.076736 0
M  V30 27 C -1.012625 -3.463358 0.218457 0
M  V30 28 C -4.048785 -4.138459 1.079928 0
M  V30 29 C -5.137623 -3.565110 0.196670 0
M  V30 30 C -4.499938 -4.296363 -0.964966 0
M  V30 31 H -3.413413 -6.424134 -0.316397 0
M  V30 32 H -1.938972 -5.852148 0.428735 0
M  V30 33 H -3.414371 -2.007319 -1.531090 0
M  V30 34 H -1.765627 -0.255288 -1.815279 0
M  V30 35 H 3.170573 1.833649 -3.248254 0
M  V30 36 H 4.607214 3.407784 -2.093964 0
M  V30 37 H 4.192002 3.542482 2.563657 0
M  V30 38 H 4.997057 5.656695 2.985199 0
M  V30 39 H 2.970625 2.209046 1.619836 0
M  V30 40 H 2.706548 -0.443653 2.485139 0
M  V30 41 H 1.775025 -0.682573 4.814453 0
M  V30 42 H -0.648812 -0.135900 5.203814 0
M  V30 43 H -2.037086 0.600975 3.368866 0
M  V30 44 H -1.131910 0.822730 1.155799 0
M  V30 45 H 0.960764 -2.561727 0.523660 0
M  V30 46 H -0.672196 -4.298738 0.805795 0
M  V30 47 H -4.380758 -5.086000 1.554246 0
M  V30 48 H -3.639920 -3.387521 1.767914 0
M  V30 49 H -5.114030 -2.458953 0.100735 0
M  V30 50 H -6.158597 -3.954791 0.426056 0
M  V30 51 H -4.963857 -5.276481 -1.150003 0
M  V30 52 H -4.460400 -3.717449 -1.909302 0
M  V30 END ATOM
M  V30 BEGIN BOND
M  V30 1 1 1 2
M  V30 2 1 2 3
M  V30 3 2 3 4
M  V30 4 1 4 5
M  V30 5 2 5 6
M  V30 6 1 6 7
M  V30 7 1 7 8
M  V30 8 2 8 9
M  V30 9 1 9 10
M  V30 10 2 10 11
M  V30 11 1 11 12
M  V30 12 1 12 13
M  V30 13 2 13 14
M  V30 14 1 13 15
M  V30 15 1 15 16
M  V30 16 2 12 17
M  V30 17 1 17 18
M  V30 18 1 18 19
M  V30 19 1 19 20
M  V30 20 2 20 21
M  V30 21 1 21 22
M  V30 22 2 22 23
M  V30 23 1 23 24
M  V30 24 2 24 25
M  V30 25 1 6 26
M  V30 26 2 26 27
M  V30 27 1 2 28
M  V30 28 1 28 29
M  V30 29 1 29 30
M  V30 30 1 30 2
M  V30 31 1 27 3
M  V30 32 2 19 7
M  V30 33 1 25 20
M  V30 34 1 18 9
M  V30 35 1 1 31
M  V30 36 1 1 32
M  V30 37 1 4 33
M  V30 38 1 5 34
M  V30 39 1 10 35
M  V30 40 1 11 36
M  V30 41 1 15 37
M  V30 42 1 16 38
M  V30 43 1 17 39
M  V30 44 1 21 40
M  V30 45 1 22 41
M  V30 46 1 23 42
M  V30 47 1 24 43
M  V30 48 1 25 44
M  V30 49 1 26 45
M  V30 50 1 27 46
M  V30 51 1 28 47
M  V30 52 1 28 48
M  V30 53 1 29 49
M  V30 54 1 29 50
M  V30 55 1 30 51
M  V30 56 1 30 52
M  V30 END BOND
M  V30 END CTAB
M  END
>  <Dataset>  (787) 
ChEMBL_Kinases

>  <Ligand_Instance>  (787) 
nan

>  <PDB_ID>  (787) 
nan

>  <Standardized_SMILES>  (787) 
NC1(c2ccc(-c3nc4ccc(C(=O)NO)cn4c3-c3ccccc3)cc2)CCC1

>  <Name>  (787) 
nan

>  <Pocket>  (787) 
nan

>  <ATP_Site>  (787) 
nan

>  <Peripheral>  (787) 
nan

>  <Num_H_Atoms_ProtBoundConf>  (787) 
nan

>  <Num_Resolved_Atoms>  (787) 
nan

>  <Num_Not_Resolved_Atoms>  (787) 
nan

$$$$
CHEMBL231614
     RDKit          3D

  0  0  0  0  0  0  0  0  0  0999 V3000
M  V30 BEGIN CTAB
M  V30 COUNTS 67 70 0 0 0
M  V30 BEGIN ATOM
M  V30 1 N 2.874554 2.101311 6.301161 0
M  V30 2 C 1.662454 1.598017 5.804647 0
M  V30 3 O 0.747251 1.342686 6.606679 0
M  V30 4 C 1.481246 1.378117 4.366757 0
M  V30 5 C 2.510792 1.668287 3.492632 0
M  V30 6 C 2.332886 1.459441 2.139439 0
M  V30 7 C 3.399304 1.754060 1.187768 0
M  V30 8 C 4.679062 1.567487 1.682584 0
M  V30 9 C 5.789398 1.811045 0.881841 0
M  V30 10 C 5.635499 2.247283 -0.433829 0
M  V30 11 C 4.338948 2.422992 -0.894635 0
M  V30 12 C 3.227834 2.185123 -0.110522 0
M  V30 13 C 1.116684 0.962818 1.713366 0
M  V30 14 C 0.047037 0.651563 2.528641 0
M  V30 15 C -1.211438 0.134253 2.068803 0
M  V30 16 C -1.736597 -0.925807 2.761087 0
M  V30 17 C -2.942754 -1.480649 2.386225 0
M  V30 18 C -3.691324 -1.009643 1.301624 0
M  V30 19 S -5.197056 -1.827464 0.968778 0
M  V30 20 O -5.766705 -2.306170 2.273200 0
M  V30 21 O -6.139516 -0.789020 0.387608 0
M  V30 22 N -5.007609 -3.137065 -0.139713 0
M  V30 23 N -4.545850 -2.640599 -1.339973 0
M  V30 24 C -3.356083 -3.248527 -1.851324 0
M  V30 25 C -3.019336 -2.578759 -3.182281 0
M  V30 26 C -1.783647 -3.139445 -3.807748 0
M  V30 27 N -0.608890 -3.010842 -3.048141 0
M  V30 28 C 0.590778 -3.541202 -3.579036 0
M  V30 29 C 1.494828 -3.844231 -2.377480 0
M  V30 30 O 1.771859 -2.588270 -1.811485 0
M  V30 31 C 0.631959 -2.055048 -1.251789 0
M  V30 32 C -0.413221 -1.815794 -2.318870 0
M  V30 33 C -3.145716 0.056665 0.618709 0
M  V30 34 C -1.941663 0.607873 0.995602 0
M  V30 35 C 0.283218 0.882974 3.890648 0
M  V30 36 N -0.739669 0.606863 4.869799 0
M  V30 37 H 3.204613 2.917917 6.881271 0
M  V30 38 H 3.307926 2.865438 6.861120 0
M  V30 39 H 3.447628 2.054992 3.859456 0
M  V30 40 H 4.902291 1.233743 2.682965 0
M  V30 41 H 6.822293 1.696791 1.172271 0
M  V30 42 H 6.498828 2.445867 -1.086169 0
M  V30 43 H 4.197164 2.760981 -1.911488 0
M  V30 44 H 2.207673 2.315790 -0.449889 0
M  V30 45 H 1.022354 0.815693 0.651812 0
M  V30 46 H -1.223164 -1.357181 3.618247 0
M  V30 47 H -3.320355 -2.329460 2.974269 0
M  V30 48 H -4.369929 -3.862052 0.242538 0
M  V30 49 H -5.253469 -2.425254 -2.053197 0
M  V30 50 H -2.510140 -3.212616 -1.144504 0
M  V30 51 H -3.575013 -4.333230 -2.015245 0
M  V30 52 H -3.878414 -2.839254 -3.857565 0
M  V30 53 H -3.027572 -1.492740 -3.085698 0
M  V30 54 H -1.953455 -4.206618 -4.023032 0
M  V30 55 H -1.642931 -2.612664 -4.774084 0
M  V30 56 H 0.471770 -4.407365 -4.229737 0
M  V30 57 H 1.106953 -2.745049 -4.154630 0
M  V30 58 H 2.403894 -4.373506 -2.660007 0
M  V30 59 H 0.843866 -4.403009 -1.662424 0
M  V30 60 H 0.203902 -2.682400 -0.464277 0
M  V30 61 H 0.892025 -1.030862 -0.874198 0
M  V30 62 H -1.297775 -1.314300 -1.953712 0
M  V30 63 H 0.072180 -1.089670 -3.036629 0
M  V30 64 H -3.735636 0.404658 -0.212266 0
M  V30 65 H -1.535480 1.435855 0.451298 0
M  V30 66 H -0.797756 -0.128472 5.636238 0
M  V30 67 H -0.842028 -0.102562 5.641271 0
M  V30 END ATOM
M  V30 BEGIN BOND
M  V30 1 1 1 2
M  V30 2 2 2 3
M  V30 3 1 2 4
M  V30 4 2 4 5
M  V30 5 1 5 6
M  V30 6 1 6 7
M  V30 7 2 7 8
M  V30 8 1 8 9
M  V30 9 2 9 10
M  V30 10 1 10 11
M  V30 11 2 11 12
M  V30 12 2 6 13
M  V30 13 1 13 14
M  V30 14 1 14 15
M  V30 15 2 15 16
M  V30 16 1 16 17
M  V30 17 2 17 18
M  V30 18 1 18 19
M  V30 19 2 19 20
M  V30 20 2 19 21
M  V30 21 1 19 22
M  V30 22 1 22 23
M  V30 23 1 23 24
M  V30 24 1 24 25
M  V30 25 1 25 26
M  V30 26 1 26 27
M  V30 27 1 27 28
M  V30 28 1 28 29
M  V30 29 1 29 30
M  V30 30 1 30 31
M  V30 31 1 31 32
M  V30 32 1 18 33
M  V30 33 2 33 34
M  V30 34 2 14 35
M  V30 35 1 35 36
M  V30 36 1 35 4
M  V30 37 1 12 7
M  V30 38 1 34 15
M  V30 39 1 32 27
M  V30 40 1 1 37
M  V30 41 1 1 38
M  V30 42 1 5 39
M  V30 43 1 8 40
M  V30 44 1 9 41
M  V30 45 1 10 42
M  V30 46 1 11 43
M  V30 47 1 12 44
M  V30 48 1 13 45
M  V30 49 1 16 46
M  V30 50 1 17 47
M  V30 51 1 22 48
M  V30 52 1 23 49
M  V30 53 1 24 50
M  V30 54 1 24 51
M  V30 55 1 25 52
M  V30 56 1 25 53
M  V30 57 1 26 54
M  V30 58 1 26 55
M  V30 59 1 28 56
M  V30 60 1 28 57
M  V30 61 1 29 58
M  V30 62 1 29 59
M  V30 63 1 31 60
M  V30 64 1 31 61
M  V30 65 1 32 62
M  V30 66 1 32 63
M  V30 67 1 33 64
M  V30 68 1 34 65
M  V30 69 1 36 66
M  V30 70 1 36 67
M  V30 END BOND
M  V30 END CTAB
M  END
>  <Dataset>  (788) 
ChEMBL_Kinases

>  <Ligand_Instance>  (788) 
nan

>  <PDB_ID>  (788) 
nan

>  <Standardized_SMILES>  (788) 
NC(=O)c1cc(-c2ccccc2)cc(-c2ccc(S(=O)(=O)NNCCCN3CCOCC3)cc2)c1N

>  <Name>  (788) 
nan

>  <Pocket>  (788) 
nan

>  <ATP_Site>  (788) 
nan

>  <Peripheral>  (788) 
nan

>  <Num_H_Atoms_ProtBoundConf>  (788) 
nan

>  <Num_Resolved_Atoms>  (788) 
nan

>  <Num_Not_Resolved_Atoms>  (788) 
nan

$$$$
CHEMBL231617
     RDKit          3D

  0  0  0  0  0  0  0  0  0  0999 V3000
M  V30 BEGIN CTAB
M  V30 COUNTS 65 65 0 0 0
M  V30 BEGIN ATOM
M  V30 1 C 5.165338 -4.017838 3.939253 0
M  V30 2 C 4.507127 -4.762036 2.811423 0
M  V30 3 C 3.135573 -5.201629 3.262756 0
M  V30 4 C 4.438265 -3.884919 1.580617 0
M  V30 5 C 3.659218 -2.656407 1.842113 0
M  V30 6 O 3.051042 -2.185955 2.844129 0
M  V30 7 O 3.522959 -1.759978 0.774843 0
M  V30 8 C 2.785113 -0.565666 0.972193 0
M  V30 9 C 2.791486 0.207936 -0.309945 0
M  V30 10 C 4.185824 0.580728 -0.758012 0
M  V30 11 O 4.913120 -0.592332 -0.929085 0
M  V30 12 C 1.887294 1.408270 -0.207213 0
M  V30 13 C 0.528632 0.765792 -0.326144 0
M  V30 14 C -0.690761 0.888775 0.165322 0
M  V30 15 C -1.904758 0.121887 -0.103790 0
M  V30 16 C -3.020489 0.927905 -0.699881 0
M  V30 17 C -4.210736 0.064145 -0.934794 0
M  V30 18 C -3.885096 -1.069728 -1.906581 0
M  V30 19 C -5.144628 -1.929856 -2.123779 0
M  V30 20 C -3.484475 -0.533383 -3.241975 0
M  V30 21 C -3.246519 2.242245 -0.075933 0
M  V30 22 C -3.590717 2.309140 1.359779 0
M  V30 23 C -4.866522 1.592178 1.727693 0
M  V30 24 C -3.848951 3.788924 1.682084 0
M  V30 25 C 0.844160 -0.269485 -1.333118 0
M  V30 26 O 0.005688 -0.802097 -2.141785 0
M  V30 27 O 2.188965 -0.602522 -1.296790 0
M  V30 28 H 6.255601 -4.269559 3.990560 0
M  V30 29 H 5.050187 -2.909340 3.866826 0
M  V30 30 H 4.716734 -4.346543 4.883448 0
M  V30 31 H 5.095675 -5.667294 2.562633 0
M  V30 32 H 2.660948 -4.501863 3.975677 0
M  V30 33 H 2.457477 -5.453236 2.434434 0
M  V30 34 H 3.293827 -6.156126 3.832414 0
M  V30 35 H 5.470032 -3.574837 1.332698 0
M  V30 36 H 4.051485 -4.465100 0.717001 0
M  V30 37 H 3.163589 0.008067 1.832605 0
M  V30 38 H 1.731477 -0.879071 1.148748 0
M  V30 39 H 4.707286 1.146722 0.049598 0
M  V30 40 H 4.125064 1.150653 -1.689906 0
M  V30 41 H 5.866219 -0.479529 -0.670898 0
M  V30 42 H 2.001542 1.832657 0.794696 0
M  V30 43 H 2.070640 2.126789 -1.021826 0
M  V30 44 H -0.709988 1.708591 0.870167 0
M  V30 45 H -2.232991 -0.263145 0.919297 0
M  V30 46 H -1.653199 -0.792257 -0.650215 0
M  V30 47 H -2.642431 1.165107 -1.755890 0
M  V30 48 H -4.996138 0.663728 -1.454933 0
M  V30 49 H -4.633303 -0.368945 -0.004328 0
M  V30 50 H -3.138310 -1.770429 -1.542276 0
M  V30 51 H -5.425780 -2.308370 -1.134181 0
M  V30 52 H -4.775591 -2.818144 -2.706741 0
M  V30 53 H -5.927741 -1.386790 -2.661422 0
M  V30 54 H -2.423459 -0.222122 -3.292519 0
M  V30 55 H -4.174526 0.228720 -3.639019 0
M  V30 56 H -3.548877 -1.400911 -3.962646 0
M  V30 57 H -2.386709 2.904579 -0.309810 0
M  V30 58 H -4.106336 2.727440 -0.631519 0
M  V30 59 H -2.791362 1.915799 2.031823 0
M  V30 60 H -5.624287 1.586002 0.909443 0
M  V30 61 H -4.675219 0.589705 2.167957 0
M  V30 62 H -5.408118 2.138053 2.562384 0
M  V30 63 H -4.516954 3.875392 2.574229 0
M  V30 64 H -2.921153 4.346976 1.865831 0
M  V30 65 H -4.402528 4.246733 0.837070 0
M  V30 END ATOM
M  V30 BEGIN BOND
M  V30 1 1 1 2
M  V30 2 1 2 3
M  V30 3 1 2 4
M  V30 4 1 4 5
M  V30 5 2 5 6
M  V30 6 1 5 7
M  V30 7 1 7 8
M  V30 8 1 8 9
M  V30 9 1 9 10
M  V30 10 1 10 11
M  V30 11 1 9 12
M  V30 12 1 12 13
M  V30 13 2 13 14
M  V30 14 1 14 15
M  V30 15 1 15 16
M  V30 16 1 16 17
M  V30 17 1 17 18
M  V30 18 1 18 19
M  V30 19 1 18 20
M  V30 20 1 16 21
M  V30 21 1 21 22
M  V30 22 1 22 23
M  V30 23 1 22 24
M  V30 24 1 13 25
M  V30 25 2 25 26
M  V30 26 1 25 27
M  V30 27 1 27 9
M  V30 28 1 1 28
M  V30 29 1 1 29
M  V30 30 1 1 30
M  V30 31 1 2 31
M  V30 32 1 3 32
M  V30 33 1 3 33
M  V30 34 1 3 34
M  V30 35 1 4 35
M  V30 36 1 4 36
M  V30 37 1 8 37
M  V30 38 1 8 38
M  V30 39 1 10 39
M  V30 40 1 10 40
M  V30 41 1 11 41
M  V30 42 1 12 42
M  V30 43 1 12 43
M  V30 44 1 14 44
M  V30 45 1 15 45
M  V30 46 1 15 46
M  V30 47 1 16 47
M  V30 48 1 17 48
M  V30 49 1 17 49
M  V30 50 1 18 50
M  V30 51 1 19 51
M  V30 52 1 19 52
M  V30 53 1 19 53
M  V30 54 1 20 54
M  V30 55 1 20 55
M  V30 56 1 20 56
M  V30 57 1 21 57
M  V30 58 1 21 58
M  V30 59 1 22 59
M  V30 60 1 23 60
M  V30 61 1 23 61
M  V30 62 1 23 62
M  V30 63 1 24 63
M  V30 64 1 24 64
M  V30 65 1 24 65
M  V30 END BOND
M  V30 END CTAB
M  END
>  <Dataset>  (789) 
ChEMBL_Kinases

>  <Ligand_Instance>  (789) 
nan

>  <PDB_ID>  (789) 
nan

>  <Standardized_SMILES>  (789) 
CC(C)CC(=O)OCC1(CO)C/C(=C/CC(CC(C)C)CC(C)C)C(=O)O1

>  <Name>  (789) 
nan

>  <Pocket>  (789) 
nan

>  <ATP_Site>  (789) 
nan

>  <Peripheral>  (789) 
nan

>  <Num_H_Atoms_ProtBoundConf>  (789) 
nan

>  <Num_Resolved_Atoms>  (789) 
nan

>  <Num_Not_Resolved_Atoms>  (789) 
nan

$$$$
CHEMBL4530427
     RDKit          3D

  0  0  0  0  0  0  0  0  0  0999 V3000
M  V30 BEGIN CTAB
M  V30 COUNTS 25 26 0 0 0
M  V30 BEGIN ATOM
M  V30 1 N 2.388933 -3.644662 -2.542637 0
M  V30 2 C 2.276505 -2.242724 -2.346298 0
M  V30 3 O 3.091821 -1.743540 -3.160467 0
M  V30 4 C 1.388311 -1.597409 -1.390984 0
M  V30 5 C 1.397514 -0.221929 -1.325126 0
M  V30 6 C 0.540267 0.347208 -0.406201 0
M  V30 7 C -0.286192 -0.431342 0.406930 0
M  V30 8 C -1.202227 0.146843 1.386123 0
M  V30 9 C -1.727932 1.375871 1.049778 0
M  V30 10 N -2.585485 1.913377 1.971362 0
M  V30 11 C -2.862845 1.250284 3.108339 0
M  V30 12 C -2.352287 0.022435 3.468841 0
M  V30 13 Cl -2.763880 -0.777707 4.970500 0
M  V30 14 C -1.470474 -0.554526 2.545565 0
M  V30 15 C -0.247798 -1.818059 0.291195 0
M  V30 16 C 0.607791 -2.437724 -0.628634 0
M  V30 17 H 2.223483 -4.441667 -1.903250 0
M  V30 18 H 2.172111 -4.317978 -1.750759 0
M  V30 19 H 2.044377 0.366697 -1.963590 0
M  V30 20 H 0.490699 1.415055 -0.295931 0
M  V30 21 H -1.486580 1.880941 0.132555 0
M  V30 22 H -3.557166 1.755561 3.783764 0
M  V30 23 H -1.024883 -1.513515 2.749160 0
M  V30 24 H -0.860013 -2.453204 0.889935 0
M  V30 25 H 0.622024 -3.515086 -0.700866 0
M  V30 END ATOM
M  V30 BEGIN BOND
M  V30 1 1 1 2
M  V30 2 2 2 3
M  V30 3 1 2 4
M  V30 4 2 4 5
M  V30 5 1 5 6
M  V30 6 2 6 7
M  V30 7 1 7 8
M  V30 8 2 8 9
M  V30 9 1 9 10
M  V30 10 2 10 11
M  V30 11 1 11 12
M  V30 12 1 12 13
M  V30 13 2 12 14
M  V30 14 1 7 15
M  V30 15 2 15 16
M  V30 16 1 16 4
M  V30 17 1 14 8
M  V30 18 1 1 17
M  V30 19 1 1 18
M  V30 20 1 5 19
M  V30 21 1 6 20
M  V30 22 1 9 21
M  V30 23 1 11 22
M  V30 24 1 14 23
M  V30 25 1 15 24
M  V30 26 1 16 25
M  V30 END BOND
M  V30 END CTAB
M  END
>  <Dataset>  (790) 
ChEMBL_Kinases

>  <Ligand_Instance>  (790) 
nan

>  <PDB_ID>  (790) 
nan

>  <Standardized_SMILES>  (790) 
NC(=O)c1ccc(-c2cncc(Cl)c2)cc1

>  <Name>  (790) 
nan

>  <Pocket>  (790) 
nan

>  <ATP_Site>  (790) 
nan

>  <Peripheral>  (790) 
nan

>  <Num_H_Atoms_ProtBoundConf>  (790) 
nan

>  <Num_Resolved_Atoms>  (790) 
nan

>  <Num_Not_Resolved_Atoms>  (790) 
nan

$$$$
CHEMBL4529679
     RDKit          3D

  0  0  0  0  0  0  0  0  0  0999 V3000
M  V30 BEGIN CTAB
M  V30 COUNTS 47 50 0 0 0
M  V30 BEGIN ATOM
M  V30 1 N -0.589169 -1.915902 6.439193 0
M  V30 2 C 0.305928 -0.878885 6.055749 0
M  V30 3 O 1.099312 -0.484283 6.936453 0
M  V30 4 C 0.284646 -0.320847 4.708222 0
M  V30 5 N 1.075044 0.645783 4.244357 0
M  V30 6 C 0.773336 0.910221 2.943567 0
M  V30 7 C 1.423936 1.909197 2.093112 0
M  V30 8 C 1.336889 3.223127 2.532973 0
M  V30 9 C 1.894822 4.258860 1.842569 0
M  V30 10 C 2.572251 4.014193 0.665890 0
M  V30 11 C 2.665152 2.712546 0.218917 0
M  V30 12 O 3.333651 2.355960 -0.968031 0
M  V30 13 C 2.528599 2.349379 -2.151577 0
M  V30 14 F 3.272538 1.985915 -3.263836 0
M  V30 15 F 1.446326 1.503020 -1.972188 0
M  V30 16 F 2.040645 3.646393 -2.353982 0
M  V30 17 C 2.094772 1.677757 0.930262 0
M  V30 18 C -0.270045 0.028909 2.633904 0
M  V30 19 C -0.898630 -0.016950 1.303456 0
M  V30 20 C -1.588312 0.963694 0.619011 0
M  V30 21 C -2.084175 0.660952 -0.631959 0
M  V30 22 N -1.895490 -0.564162 -1.165094 0
M  V30 23 C -1.226748 -1.544238 -0.523303 0
M  V30 24 N -1.081598 -2.803955 -1.172800 0
M  V30 25 C -2.036673 -3.841361 -1.019724 0
M  V30 26 O -3.062800 -3.709505 -0.304224 0
M  V30 27 C -1.773610 -5.108899 -1.748446 0
M  V30 28 C -0.920002 -5.067286 -2.990609 0
M  V30 29 C -0.321501 -5.567630 -1.708618 0
M  V30 30 C -0.709855 -1.283710 0.739420 0
M  V30 31 N -0.544758 -0.707029 3.729147 0
M  V30 32 H -1.074009 -2.853795 6.508126 0
M  V30 33 H -1.395726 -1.980170 7.105945 0
M  V30 34 H 0.818499 3.471287 3.448958 0
M  V30 35 H 1.832385 5.302950 2.181321 0
M  V30 36 H 3.034986 4.802510 0.077005 0
M  V30 37 H 2.146309 0.630024 0.608757 0
M  V30 38 H -1.651644 1.884266 1.181483 0
M  V30 39 H -2.613405 1.471961 -1.112706 0
M  V30 40 H -0.208347 -2.815972 -1.736567 0
M  V30 41 H -2.504349 -5.928300 -1.643513 0
M  V30 42 H -0.634103 -4.043762 -3.304910 0
M  V30 43 H -1.135850 -5.765689 -3.813566 0
M  V30 44 H 0.417522 -4.942308 -1.192291 0
M  V30 45 H -0.092350 -6.654053 -1.728749 0
M  V30 46 H -0.198675 -2.123392 1.163135 0
M  V30 47 H -1.295637 -1.431096 3.717358 0
M  V30 END ATOM
M  V30 BEGIN BOND
M  V30 1 1 1 2
M  V30 2 2 2 3
M  V30 3 1 2 4
M  V30 4 2 4 5
M  V30 5 1 5 6
M  V30 6 1 6 7
M  V30 7 2 7 8
M  V30 8 1 8 9
M  V30 9 2 9 10
M  V30 10 1 10 11
M  V30 11 1 11 12
M  V30 12 1 12 13
M  V30 13 1 13 14
M  V30 14 1 13 15
M  V30 15 1 13 16
M  V30 16 2 11 17
M  V30 17 2 6 18
M  V30 18 1 18 19
M  V30 19 2 19 20
M  V30 20 1 20 21
M  V30 21 2 21 22
M  V30 22 1 22 23
M  V30 23 1 23 24
M  V30 24 1 24 25
M  V30 25 2 25 26
M  V30 26 1 25 27
M  V30 27 1 27 28
M  V30 28 1 28 29
M  V30 29 2 23 30
M  V30 30 1 18 31
M  V30 31 1 31 4
M  V30 32 1 17 7
M  V30 33 1 30 19
M  V30 34 1 29 27
M  V30 35 1 1 32
M  V30 36 1 1 33
M  V30 37 1 8 34
M  V30 38 1 9 35
M  V30 39 1 10 36
M  V30 40 1 17 37
M  V30 41 1 20 38
M  V30 42 1 21 39
M  V30 43 1 24 40
M  V30 44 1 27 41
M  V30 45 1 28 42
M  V30 46 1 28 43
M  V30 47 1 29 44
M  V30 48 1 29 45
M  V30 49 1 30 46
M  V30 50 1 31 47
M  V30 END BOND
M  V30 END CTAB
M  END
>  <Dataset>  (791) 
ChEMBL_Kinases

>  <Ligand_Instance>  (791) 
nan

>  <PDB_ID>  (791) 
nan

>  <Standardized_SMILES>  (791) 
NC(=O)c1nc(-c2cccc(OC(F)(F)F)c2)c(-c2ccnc(NC(=O)C3CC3)c2)[nH]1

>  <Name>  (791) 
nan

>  <Pocket>  (791) 
nan

>  <ATP_Site>  (791) 
nan

>  <Peripheral>  (791) 
nan

>  <Num_H_Atoms_ProtBoundConf>  (791) 
nan

>  <Num_Resolved_Atoms>  (791) 
nan

>  <Num_Not_Resolved_Atoms>  (791) 
nan

$$$$
CHEMBL4529617
     RDKit          3D

  0  0  0  0  0  0  0  0  0  0999 V3000
M  V30 BEGIN CTAB
M  V30 COUNTS 26 27 0 0 0
M  V30 BEGIN ATOM
M  V30 1 N -1.468037 -3.104711 4.040292 0
M  V30 2 C -0.179629 -3.067255 3.439702 0
M  V30 3 O 0.748992 -3.836195 3.814766 0
M  V30 4 C 0.075603 -2.120908 2.367644 0
M  V30 5 C 1.310491 -2.050718 1.757064 0
M  V30 6 C 1.557487 -1.145540 0.730396 0
M  V30 7 C 0.565455 -0.293357 0.298662 0
M  V30 8 C 0.807134 0.662288 -0.776921 0
M  V30 9 C 0.098483 1.847082 -0.717019 0
M  V30 10 C 0.274935 2.800734 -1.700925 0
M  V30 11 C 1.157196 2.598916 -2.763561 0
M  V30 12 N 1.827891 1.429820 -2.783194 0
M  V30 13 C 1.672821 0.481812 -1.833216 0
M  V30 14 C -0.674970 -0.361799 0.909881 0
M  V30 15 C -0.904994 -1.264266 1.926387 0
M  V30 16 O -2.180079 -1.260586 2.479541 0
M  V30 17 H -1.307417 -2.446666 4.835362 0
M  V30 18 H -2.437358 -3.534162 3.957843 0
M  V30 19 H 2.053479 -2.739234 2.131435 0
M  V30 20 H 2.537951 -1.146195 0.302838 0
M  V30 21 H -0.603251 2.111599 0.047485 0
M  V30 22 H -0.245396 3.765762 -1.730737 0
M  V30 23 H 1.313499 3.337686 -3.552858 0
M  V30 24 H 2.205129 -0.447326 -1.847821 0
M  V30 25 H -1.467476 0.316213 0.567785 0
M  V30 26 H -2.961982 -1.269922 1.817313 0
M  V30 END ATOM
M  V30 BEGIN BOND
M  V30 1 1 1 2
M  V30 2 2 2 3
M  V30 3 1 2 4
M  V30 4 2 4 5
M  V30 5 1 5 6
M  V30 6 2 6 7
M  V30 7 1 7 8
M  V30 8 2 8 9
M  V30 9 1 9 10
M  V30 10 2 10 11
M  V30 11 1 11 12
M  V30 12 2 12 13
M  V30 13 1 7 14
M  V30 14 2 14 15
M  V30 15 1 15 16
M  V30 16 1 15 4
M  V30 17 1 13 8
M  V30 18 1 1 17
M  V30 19 1 1 18
M  V30 20 1 5 19
M  V30 21 1 6 20
M  V30 22 1 9 21
M  V30 23 1 10 22
M  V30 24 1 11 23
M  V30 25 1 13 24
M  V30 26 1 14 25
M  V30 27 1 16 26
M  V30 END BOND
M  V30 END CTAB
M  END
>  <Dataset>  (792) 
ChEMBL_Kinases

>  <Ligand_Instance>  (792) 
nan

>  <PDB_ID>  (792) 
nan

>  <Standardized_SMILES>  (792) 
NC(=O)c1ccc(-c2cccnc2)cc1O

>  <Name>  (792) 
nan

>  <Pocket>  (792) 
nan

>  <ATP_Site>  (792) 
nan

>  <Peripheral>  (792) 
nan

>  <Num_H_Atoms_ProtBoundConf>  (792) 
nan

>  <Num_Resolved_Atoms>  (792) 
nan

>  <Num_Not_Resolved_Atoms>  (792) 
nan

$$$$
CHEMBL2316207
     RDKit          3D

  0  0  0  0  0  0  0  0  0  0999 V3000
M  V30 BEGIN CTAB
M  V30 COUNTS 77 82 0 0 0
M  V30 BEGIN ATOM
M  V30 1 O -3.621322 0.158457 4.237789 0
M  V30 2 C -2.918116 -0.874817 4.004647 0
M  V30 3 N -3.555095 -2.111139 4.303857 0
M  V30 4 C -4.913577 -2.110145 4.833956 0
M  V30 5 C -5.340836 -3.541345 5.065970 0
M  V30 6 N -5.313331 -4.311268 3.839163 0
M  V30 7 C -6.364721 -3.803356 2.974273 0
M  V30 8 C -6.703116 -4.798622 1.881108 0
M  V30 9 O -5.838574 -5.866053 1.803065 0
M  V30 10 C -5.691422 -6.577543 2.988000 0
M  V30 11 C -5.746205 -5.669225 4.201998 0
M  V30 12 C -1.576584 -0.785003 3.475515 0
M  V30 13 C -0.797874 -1.879746 3.190299 0
M  V30 14 C 0.474879 -1.850808 2.685575 0
M  V30 15 C 1.020001 -0.599713 2.442669 0
M  V30 16 C 0.259233 0.534687 2.719821 0
M  V30 17 C -1.042271 0.474450 3.236479 0
M  V30 18 C 0.657002 1.951062 2.535908 0
M  V30 19 O 0.065051 2.805425 3.254996 0
M  V30 20 C 1.676590 2.395552 1.585407 0
M  V30 21 C 1.764848 3.769279 1.585599 0
M  V30 22 C 2.662040 4.455499 0.758492 0
M  V30 23 C 3.469770 3.710601 -0.072058 0
M  V30 24 N 4.438868 4.269611 -0.956051 0
M  V30 25 C 4.918136 3.725990 -2.182941 0
M  V30 26 C 6.171575 4.011933 -2.711613 0
M  V30 27 C 6.548170 3.457682 -3.914170 0
M  V30 28 C 5.746885 2.614254 -4.652973 0
M  V30 29 F 6.077211 2.041041 -5.837079 0
M  V30 30 C 4.475916 2.289602 -4.173863 0
M  V30 31 N 3.515121 1.429743 -4.812431 0
M  V30 32 C 3.399246 0.024341 -4.622055 0
M  V30 33 O 4.210558 -0.543240 -3.818138 0
M  V30 34 C 2.376668 -0.745148 -5.329984 0
M  V30 35 C 1.477179 -0.223412 -6.229678 0
M  V30 36 C 0.529455 -1.048319 -6.848400 0
M  V30 37 C 0.453959 -2.407788 -6.587471 0
M  V30 38 C 1.358025 -2.917330 -5.687415 0
M  V30 39 C 2.297296 -2.116201 -5.069605 0
M  V30 40 C 4.135892 2.866074 -2.965557 0
M  V30 41 C 3.377910 2.312502 -0.068095 0
M  V30 42 C 2.489164 1.623385 0.751113 0
M  V30 43 C 2.525470 0.167151 0.625225 0
M  V30 44 C 2.409873 -0.618223 1.887440 0
M  V30 45 H -3.054911 -2.998233 4.144310 0
M  V30 46 H -4.961888 -1.548607 5.776137 0
M  V30 47 H -5.624694 -1.616638 4.132888 0
M  V30 48 H -6.367580 -3.559612 5.533142 0
M  V30 49 H -4.679696 -4.011872 5.829704 0
M  V30 50 H -6.023852 -2.826022 2.545388 0
M  V30 51 H -7.254676 -3.667264 3.617435 0
M  V30 52 H -6.589208 -4.245573 0.904302 0
M  V30 53 H -7.779210 -5.084532 1.904304 0
M  V30 54 H -6.416970 -7.403661 3.104414 0
M  V30 55 H -4.673787 -7.020980 2.985225 0
M  V30 56 H -6.784264 -5.582811 4.587042 0
M  V30 57 H -5.079861 -6.006935 5.019092 0
M  V30 58 H -1.184119 -2.881347 3.363026 0
M  V30 59 H 1.068270 -2.715387 2.469672 0
M  V30 60 H -1.568875 1.399172 3.426186 0
M  V30 61 H 1.141173 4.388376 2.231858 0
M  V30 62 H 2.785700 5.529853 0.707256 0
M  V30 63 H 4.806185 5.189241 -0.611160 0
M  V30 64 H 6.805729 4.665567 -2.151514 0
M  V30 65 H 7.531500 3.669238 -4.352801 0
M  V30 66 H 2.887249 1.963490 -5.454130 0
M  V30 67 H 1.521803 0.824793 -6.443484 0
M  V30 68 H -0.136760 -0.521752 -7.548263 0
M  V30 69 H -0.322275 -2.915578 -7.135180 0
M  V30 70 H 1.265766 -3.985635 -5.510389 0
M  V30 71 H 2.944750 -2.656215 -4.377924 0
M  V30 72 H 3.127421 2.623410 -2.591373 0
M  V30 73 H 3.967974 1.613060 -0.666513 0
M  V30 74 H 3.484413 -0.105562 0.136403 0
M  V30 75 H 1.735373 -0.153222 -0.088390 0
M  V30 76 H 3.101343 -0.287611 2.660711 0
M  V30 77 H 2.630771 -1.674019 1.629518 0
M  V30 END ATOM
M  V30 BEGIN BOND
M  V30 1 2 1 2
M  V30 2 1 2 3
M  V30 3 1 3 4
M  V30 4 1 4 5
M  V30 5 1 5 6
M  V30 6 1 6 7
M  V30 7 1 7 8
M  V30 8 1 8 9
M  V30 9 1 9 10
M  V30 10 1 10 11
M  V30 11 1 2 12
M  V30 12 2 12 13
M  V30 13 1 13 14
M  V30 14 2 14 15
M  V30 15 1 15 16
M  V30 16 2 16 17
M  V30 17 1 16 18
M  V30 18 2 18 19
M  V30 19 1 18 20
M  V30 20 2 20 21
M  V30 21 1 21 22
M  V30 22 2 22 23
M  V30 23 1 23 24
M  V30 24 1 24 25
M  V30 25 2 25 26
M  V30 26 1 26 27
M  V30 27 2 27 28
M  V30 28 1 28 29
M  V30 29 1 28 30
M  V30 30 1 30 31
M  V30 31 1 31 32
M  V30 32 2 32 33
M  V30 33 1 32 34
M  V30 34 2 34 35
M  V30 35 1 35 36
M  V30 36 2 36 37
M  V30 37 1 37 38
M  V30 38 2 38 39
M  V30 39 2 30 40
M  V30 40 1 23 41
M  V30 41 2 41 42
M  V30 42 1 42 43
M  V30 43 1 43 44
M  V30 44 1 11 6
M  V30 45 1 17 12
M  V30 46 1 42 20
M  V30 47 1 44 15
M  V30 48 1 40 25
M  V30 49 1 39 34
M  V30 50 1 3 45
M  V30 51 1 4 46
M  V30 52 1 4 47
M  V30 53 1 5 48
M  V30 54 1 5 49
M  V30 55 1 7 50
M  V30 56 1 7 51
M  V30 57 1 8 52
M  V30 58 1 8 53
M  V30 59 1 10 54
M  V30 60 1 10 55
M  V30 61 1 11 56
M  V30 62 1 11 57
M  V30 63 1 13 58
M  V30 64 1 14 59
M  V30 65 1 17 60
M  V30 66 1 21 61
M  V30 67 1 22 62
M  V30 68 1 24 63
M  V30 69 1 26 64
M  V30 70 1 27 65
M  V30 71 1 31 66
M  V30 72 1 35 67
M  V30 73 1 36 68
M  V30 74 1 37 69
M  V30 75 1 38 70
M  V30 76 1 39 71
M  V30 77 1 40 72
M  V30 78 1 41 73
M  V30 79 1 43 74
M  V30 80 1 43 75
M  V30 81 1 44 76
M  V30 82 1 44 77
M  V30 END BOND
M  V30 END CTAB
M  END
>  <Dataset>  (793) 
ChEMBL_Kinases

>  <Ligand_Instance>  (793) 
nan

>  <PDB_ID>  (793) 
nan

>  <Standardized_SMILES>  (793) 
O=C(NCCN1CCOCC1)c1ccc2c(c1)C(=O)c1ccc(Nc3ccc(F)c(NC(=O)c4ccccc4)c3)cc1CC2

>  <Name>  (793) 
FS-694

>  <Pocket>  (793) 
nan

>  <ATP_Site>  (793) 
nan

>  <Peripheral>  (793) 
nan

>  <Num_H_Atoms_ProtBoundConf>  (793) 
nan

>  <Num_Resolved_Atoms>  (793) 
nan

>  <Num_Not_Resolved_Atoms>  (793) 
nan

$$$$
CHEMBL3699737
     RDKit          3D

  0  0  0  0  0  0  0  0  0  0999 V3000
M  V30 BEGIN CTAB
M  V30 COUNTS 57 61 0 0 0
M  V30 BEGIN ATOM
M  V30 1 C 4.833839 -3.788655 1.542947 0
M  V30 2 N 5.261165 -4.126246 0.208032 0
M  V30 3 C 5.933670 -5.405931 0.111507 0
M  V30 4 C 5.050286 -3.295588 -0.919914 0
M  V30 5 O 5.397847 -3.533628 -2.109061 0
M  V30 6 C 4.368049 -2.025765 -0.747880 0
M  V30 7 C 4.973548 -0.781041 -0.790601 0
M  V30 8 C 4.166408 0.329896 -0.604699 0
M  V30 9 C 2.795637 0.161612 -0.384195 0
M  V30 10 N 1.823631 1.098566 -0.178609 0
M  V30 11 C 0.638111 0.438372 -0.011834 0
M  V30 12 C -0.683391 1.021039 0.239499 0
M  V30 13 C -0.956503 1.808036 1.348245 0
M  V30 14 C -2.225864 2.336078 1.545728 0
M  V30 15 C -3.262110 2.091755 0.636549 0
M  V30 16 C -4.532896 2.746155 1.024483 0
M  V30 17 N -4.293320 4.125729 1.410691 0
M  V30 18 C -5.690831 2.537014 0.108519 0
M  V30 19 C -6.207911 1.484612 1.092461 0
M  V30 20 C -5.268387 2.044011 2.160424 0
M  V30 21 C -2.973549 1.307869 -0.459601 0
M  V30 22 C -1.711594 0.785773 -0.651109 0
M  V30 23 C 0.889227 -0.920680 -0.117042 0
M  V30 24 C -0.111752 -1.969468 0.000315 0
M  V30 25 C -0.221786 -2.700504 -1.166805 0
M  V30 26 C -1.101499 -3.751367 -1.314302 0
M  V30 27 C -1.907857 -4.077690 -0.228538 0
M  V30 28 C -1.799363 -3.348232 0.939186 0
M  V30 29 C -0.922223 -2.302632 1.081767 0
M  V30 30 N 2.226112 -1.076270 -0.346744 0
M  V30 31 C 3.003972 -2.184849 -0.528007 0
M  V30 32 H 3.985799 -4.414317 1.904983 0
M  V30 33 H 5.666106 -4.043909 2.260909 0
M  V30 34 H 4.625196 -2.725917 1.679717 0
M  V30 35 H 6.792839 -5.439532 0.819337 0
M  V30 36 H 6.240306 -5.543617 -0.938641 0
M  V30 37 H 5.259795 -6.254951 0.358894 0
M  V30 38 H 6.042990 -0.761333 -0.967875 0
M  V30 39 H 4.638936 1.297870 -0.636921 0
M  V30 40 H -0.104335 1.943294 1.990877 0
M  V30 41 H -2.240582 2.914798 2.458381 0
M  V30 42 H -5.241150 4.586556 1.558662 0
M  V30 43 H -3.862463 4.137727 2.360842 0
M  V30 44 H -6.412148 3.405688 0.154649 0
M  V30 45 H -5.524960 2.177036 -0.902820 0
M  V30 46 H -5.955834 0.444203 0.841178 0
M  V30 47 H -7.284474 1.570845 1.338526 0
M  V30 48 H -5.813225 2.719774 2.838132 0
M  V30 49 H -4.667041 1.282124 2.696862 0
M  V30 50 H -3.801353 1.155660 -1.115584 0
M  V30 51 H -1.602445 0.185101 -1.548638 0
M  V30 52 H 0.357850 -2.541971 -2.086014 0
M  V30 53 H -1.222403 -4.349518 -2.205663 0
M  V30 54 H -2.624199 -4.906537 -0.298940 0
M  V30 55 H -2.411528 -3.578782 1.796292 0
M  V30 56 H -0.757043 -1.677656 1.928334 0
M  V30 57 H 2.486717 -3.124357 -0.485798 0
M  V30 END ATOM
M  V30 BEGIN BOND
M  V30 1 1 1 2
M  V30 2 1 2 3
M  V30 3 1 2 4
M  V30 4 2 4 5
M  V30 5 1 4 6
M  V30 6 1 6 7
M  V30 7 2 7 8
M  V30 8 1 8 9
M  V30 9 2 9 10
M  V30 10 1 10 11
M  V30 11 1 11 12
M  V30 12 2 12 13
M  V30 13 1 13 14
M  V30 14 2 14 15
M  V30 15 1 15 16
M  V30 16 1 16 17
M  V30 17 1 16 18
M  V30 18 1 18 19
M  V30 19 1 19 20
M  V30 20 1 15 21
M  V30 21 2 21 22
M  V30 22 2 11 23
M  V30 23 1 23 24
M  V30 24 2 24 25
M  V30 25 1 25 26
M  V30 26 2 26 27
M  V30 27 1 27 28
M  V30 28 2 28 29
M  V30 29 1 23 30
M  V30 30 1 30 31
M  V30 31 2 31 6
M  V30 32 1 30 9
M  V30 33 1 22 12
M  V30 34 1 29 24
M  V30 35 1 20 16
M  V30 36 1 1 32
M  V30 37 1 1 33
M  V30 38 1 1 34
M  V30 39 1 3 35
M  V30 40 1 3 36
M  V30 41 1 3 37
M  V30 42 1 7 38
M  V30 43 1 8 39
M  V30 44 1 13 40
M  V30 45 1 14 41
M  V30 46 1 17 42
M  V30 47 1 17 43
M  V30 48 1 18 44
M  V30 49 1 18 45
M  V30 50 1 19 46
M  V30 51 1 19 47
M  V30 52 1 20 48
M  V30 53 1 20 49
M  V30 54 1 21 50
M  V30 55 1 22 51
M  V30 56 1 25 52
M  V30 57 1 26 53
M  V30 58 1 27 54
M  V30 59 1 28 55
M  V30 60 1 29 56
M  V30 61 1 31 57
M  V30 END BOND
M  V30 END CTAB
M  END
>  <Dataset>  (794) 
ChEMBL_Kinases

>  <Ligand_Instance>  (794) 
nan

>  <PDB_ID>  (794) 
nan

>  <Standardized_SMILES>  (794) 
CN(C)C(=O)c1ccc2nc(-c3ccc(C4(N)CCC4)cc3)c(-c3ccccc3)n2c1

>  <Name>  (794) 
nan

>  <Pocket>  (794) 
nan

>  <ATP_Site>  (794) 
nan

>  <Peripheral>  (794) 
nan

>  <Num_H_Atoms_ProtBoundConf>  (794) 
nan

>  <Num_Resolved_Atoms>  (794) 
nan

>  <Num_Not_Resolved_Atoms>  (794) 
nan

$$$$
CHEMBL3699736
     RDKit          3D

  0  0  0  0  0  0  0  0  0  0999 V3000
M  V30 BEGIN CTAB
M  V30 COUNTS 53 57 0 0 0
M  V30 BEGIN ATOM
M  V30 1 C 5.422326 -7.435965 0.210052 0
M  V30 2 O 5.054410 -6.096363 0.476411 0
M  V30 3 C 3.797475 -5.595444 0.197521 0
M  V30 4 O 2.982254 -6.394909 -0.311193 0
M  V30 5 C 3.516869 -4.196066 0.510605 0
M  V30 6 C 4.458897 -3.350175 1.075906 0
M  V30 7 C 4.096969 -2.039018 1.335170 0
M  V30 8 Cl 5.297890 -0.978222 2.050718 0
M  V30 9 C 2.826124 -1.587296 1.036415 0
M  V30 10 N 2.238391 -0.362649 1.194003 0
M  V30 11 C 0.960526 -0.446369 0.736946 0
M  V30 12 C 0.036141 0.683907 0.753809 0
M  V30 13 C -0.242700 1.196897 2.006200 0
M  V30 14 C -1.097939 2.265621 2.188947 0
M  V30 15 C -1.717717 2.873906 1.116329 0
M  V30 16 C -2.647061 3.994874 1.017052 0
M  V30 17 N -2.223089 5.060558 0.104458 0
M  V30 18 C -3.004641 4.625046 2.346101 0
M  V30 19 C -4.127587 3.591896 2.422922 0
M  V30 20 C -4.106081 3.650994 0.889736 0
M  V30 21 C -1.433968 2.352588 -0.153090 0
M  V30 22 C -0.571187 1.272971 -0.348176 0
M  V30 23 C 0.738616 -1.725445 0.289378 0
M  V30 24 C -0.480485 -2.252456 -0.277120 0
M  V30 25 C -0.582364 -2.764808 -1.560456 0
M  V30 26 C -1.757895 -3.267156 -2.091210 0
M  V30 27 C -2.863159 -3.234766 -1.258218 0
M  V30 28 C -2.814426 -2.734990 0.027824 0
M  V30 29 C -1.606865 -2.237267 0.524736 0
M  V30 30 N 1.899918 -2.414227 0.482032 0
M  V30 31 C 2.255798 -3.702767 0.227291 0
M  V30 32 H 6.425456 -7.646616 0.625448 0
M  V30 33 H 5.434755 -7.680817 -0.871412 0
M  V30 34 H 4.712099 -8.169200 0.676425 0
M  V30 35 H 5.444989 -3.776033 1.285850 0
M  V30 36 H 0.151037 0.848162 2.961082 0
M  V30 37 H -1.372188 2.728905 3.125287 0
M  V30 38 H -3.067700 5.572797 -0.262926 0
M  V30 39 H -1.552752 5.713911 0.584089 0
M  V30 40 H -2.269192 4.539336 3.151928 0
M  V30 41 H -3.449103 5.656132 2.241579 0
M  V30 42 H -3.751004 2.641875 2.846503 0
M  V30 43 H -5.062150 3.961286 2.878098 0
M  V30 44 H -4.373073 2.724394 0.381786 0
M  V30 45 H -4.688081 4.553586 0.590830 0
M  V30 46 H -1.822395 2.695529 -1.101257 0
M  V30 47 H -0.320963 0.839038 -1.280747 0
M  V30 48 H 0.332833 -2.754407 -2.152270 0
M  V30 49 H -1.816503 -3.664964 -3.101266 0
M  V30 50 H -3.782883 -3.637533 -1.699153 0
M  V30 51 H -3.715183 -2.733697 0.640294 0
M  V30 52 H -1.648644 -1.862042 1.543377 0
M  V30 53 H 1.471270 -4.316525 -0.217042 0
M  V30 END ATOM
M  V30 BEGIN BOND
M  V30 1 1 1 2
M  V30 2 1 2 3
M  V30 3 2 3 4
M  V30 4 1 3 5
M  V30 5 1 5 6
M  V30 6 2 6 7
M  V30 7 1 7 8
M  V30 8 1 7 9
M  V30 9 2 9 10
M  V30 10 1 10 11
M  V30 11 1 11 12
M  V30 12 2 12 13
M  V30 13 1 13 14
M  V30 14 2 14 15
M  V30 15 1 15 16
M  V30 16 1 16 17
M  V30 17 1 16 18
M  V30 18 1 18 19
M  V30 19 1 19 20
M  V30 20 1 15 21
M  V30 21 2 21 22
M  V30 22 2 11 23
M  V30 23 1 23 24
M  V30 24 2 24 25
M  V30 25 1 25 26
M  V30 26 2 26 27
M  V30 27 1 27 28
M  V30 28 2 28 29
M  V30 29 1 23 30
M  V30 30 1 30 31
M  V30 31 2 31 5
M  V30 32 1 30 9
M  V30 33 1 22 12
M  V30 34 1 29 24
M  V30 35 1 20 16
M  V30 36 1 1 32
M  V30 37 1 1 33
M  V30 38 1 1 34
M  V30 39 1 6 35
M  V30 40 1 13 36
M  V30 41 1 14 37
M  V30 42 1 17 38
M  V30 43 1 17 39
M  V30 44 1 18 40
M  V30 45 1 18 41
M  V30 46 1 19 42
M  V30 47 1 19 43
M  V30 48 1 20 44
M  V30 49 1 20 45
M  V30 50 1 21 46
M  V30 51 1 22 47
M  V30 52 1 25 48
M  V30 53 1 26 49
M  V30 54 1 27 50
M  V30 55 1 28 51
M  V30 56 1 29 52
M  V30 57 1 31 53
M  V30 END BOND
M  V30 END CTAB
M  END
>  <Dataset>  (795) 
ChEMBL_Kinases

>  <Ligand_Instance>  (795) 
nan

>  <PDB_ID>  (795) 
nan

>  <Standardized_SMILES>  (795) 
COC(=O)c1cc(Cl)c2nc(-c3ccc(C4(N)CCC4)cc3)c(-c3ccccc3)n2c1

>  <Name>  (795) 
nan

>  <Pocket>  (795) 
nan

>  <ATP_Site>  (795) 
nan

>  <Peripheral>  (795) 
nan

>  <Num_H_Atoms_ProtBoundConf>  (795) 
nan

>  <Num_Resolved_Atoms>  (795) 
nan

>  <Num_Not_Resolved_Atoms>  (795) 
nan

$$$$
CHEMBL4529548
     RDKit          3D

  0  0  0  0  0  0  0  0  0  0999 V3000
M  V30 BEGIN CTAB
M  V30 COUNTS 40 43 0 0 0
M  V30 BEGIN ATOM
M  V30 1 O -0.624060 -4.070971 3.661757 0
M  V30 2 C -0.447984 -3.321716 2.508642 0
M  V30 3 C 0.276269 -2.001734 2.796641 0
M  V30 4 N 0.470662 -1.208020 1.652448 0
M  V30 5 C 0.149344 -0.390996 0.556817 0
M  V30 6 N 1.037918 0.099842 -0.325370 0
M  V30 7 C 0.765991 0.876258 -1.366631 0
M  V30 8 C 1.872563 1.304649 -2.206714 0
M  V30 9 C 3.170212 0.925935 -1.944894 0
M  V30 10 C 4.122670 1.418765 -2.843599 0
M  V30 11 N 3.782268 2.201466 -3.879400 0
M  V30 12 C 2.510626 2.557644 -4.114819 0
M  V30 13 C 1.506865 2.104970 -3.262107 0
M  V30 14 N -0.515860 1.194633 -1.546304 0
M  V30 15 C -1.536729 0.799086 -0.770347 0
M  V30 16 C -2.834068 1.182483 -1.030048 0
M  V30 17 N -3.810764 0.755893 -0.209448 0
M  V30 18 C -3.534191 -0.038808 0.859081 0
M  V30 19 C -2.215307 -0.384822 1.060691 0
M  V30 20 C -1.145077 -0.002550 0.281520 0
M  V30 21 C 1.504196 -2.360550 3.646259 0
M  V30 22 C 0.721924 -2.067878 4.893857 0
M  V30 23 C -0.239895 -1.286595 4.033509 0
M  V30 24 H -1.567053 -4.041383 3.978403 0
M  V30 25 H -1.396286 -3.222149 2.001976 0
M  V30 26 H 0.226701 -3.922941 1.825783 0
M  V30 27 H 1.516120 -1.316618 1.609992 0
M  V30 28 H 3.417712 0.294723 -1.103863 0
M  V30 29 H 5.152666 1.126439 -2.647486 0
M  V30 30 H 2.236460 3.191703 -4.954245 0
M  V30 31 H 0.468818 2.392860 -3.450236 0
M  V30 32 H -2.994711 1.814597 -1.892793 0
M  V30 33 H -4.330992 -0.372862 1.509081 0
M  V30 34 H -2.054422 -1.006180 1.920208 0
M  V30 35 H 1.819116 -3.401335 3.602629 0
M  V30 36 H 2.350954 -1.655186 3.494162 0
M  V30 37 H 0.309954 -2.924399 5.453727 0
M  V30 38 H 1.283344 -1.432477 5.631665 0
M  V30 39 H 0.077941 -0.220010 4.003699 0
M  V30 40 H -1.300417 -1.440210 4.271585 0
M  V30 END ATOM
M  V30 BEGIN BOND
M  V30 1 1 1 2
M  V30 2 1 2 3
M  V30 3 1 3 4
M  V30 4 1 4 5
M  V30 5 2 5 6
M  V30 6 1 6 7
M  V30 7 1 7 8
M  V30 8 2 8 9
M  V30 9 1 9 10
M  V30 10 2 10 11
M  V30 11 1 11 12
M  V30 12 2 12 13
M  V30 13 2 7 14
M  V30 14 1 14 15
M  V30 15 2 15 16
M  V30 16 1 16 17
M  V30 17 2 17 18
M  V30 18 1 18 19
M  V30 19 2 19 20
M  V30 20 1 3 21
M  V30 21 1 21 22
M  V30 22 1 22 23
M  V30 23 1 23 3
M  V30 24 1 20 5
M  V30 25 1 13 8
M  V30 26 1 20 15
M  V30 27 1 1 24
M  V30 28 1 2 25
M  V30 29 1 2 26
M  V30 30 1 4 27
M  V30 31 1 9 28
M  V30 32 1 10 29
M  V30 33 1 12 30
M  V30 34 1 13 31
M  V30 35 1 16 32
M  V30 36 1 18 33
M  V30 37 1 19 34
M  V30 38 1 21 35
M  V30 39 1 21 36
M  V30 40 1 22 37
M  V30 41 1 22 38
M  V30 42 1 23 39
M  V30 43 1 23 40
M  V30 END BOND
M  V30 END CTAB
M  END
>  <Dataset>  (796) 
ChEMBL_Kinases

>  <Ligand_Instance>  (796) 
nan

>  <PDB_ID>  (796) 
nan

>  <Standardized_SMILES>  (796) 
OCC1(Nc2nc(-c3ccncc3)nc3cnccc23)CCC1

>  <Name>  (796) 
nan

>  <Pocket>  (796) 
nan

>  <ATP_Site>  (796) 
nan

>  <Peripheral>  (796) 
nan

>  <Num_H_Atoms_ProtBoundConf>  (796) 
nan

>  <Num_Resolved_Atoms>  (796) 
nan

>  <Num_Not_Resolved_Atoms>  (796) 
nan

$$$$
CHEMBL4563904
     RDKit          3D

  0  0  0  0  0  0  0  0  0  0999 V3000
M  V30 BEGIN CTAB
M  V30 COUNTS 60 64 0 0 0
M  V30 BEGIN ATOM
M  V30 1 C 4.055975 -3.564459 2.249755 0
M  V30 2 C 4.024801 -2.540110 3.354961 0 CFG=1
M  V30 3 N 5.319061 -2.145126 3.825782 0
M  V30 4 C 5.516476 -0.766532 3.557712 0
M  V30 5 O 6.554142 -0.113607 3.848276 0
M  V30 6 C 4.320965 -0.281119 2.903849 0
M  V30 7 C 3.676939 0.798619 2.340844 0
M  V30 8 C 2.413157 0.463321 1.868456 0
M  V30 9 C 1.518362 1.416031 1.229719 0
M  V30 10 C 1.930647 2.743826 1.053223 0
M  V30 11 C 1.141636 3.701244 0.456802 0
M  V30 12 C -0.112773 3.345266 0.010070 0
M  V30 13 C -0.497920 2.035402 0.193639 0
M  V30 14 C -1.759704 1.706978 -0.262826 0
M  V30 15 O -2.483150 2.577418 -0.807917 0
M  V30 16 N -2.268594 0.446034 -0.144881 0
M  V30 17 C -3.575501 0.193959 -0.641841 0
M  V30 18 C -3.666841 -0.244714 -2.033488 0
M  V30 19 C -3.797910 0.590390 -3.149178 0
M  V30 20 N -3.853674 -0.154081 -4.283089 0
M  V30 21 C -3.989361 0.496956 -5.568708 0
M  V30 22 C -3.759385 -1.436161 -3.888658 0
M  V30 23 N -3.647254 -1.508510 -2.549467 0
M  V30 24 C -1.444256 -0.466813 0.454965 0
M  V30 25 N -1.957600 -1.814048 0.581399 0
M  V30 26 C -1.291573 -2.963033 1.181290 0
M  V30 27 C -2.141439 -4.231207 1.084497 0
M  V30 28 C -0.063661 -3.227471 0.334840 0
M  V30 29 C -0.957192 -2.720653 2.632435 0
M  V30 30 N -0.209958 -0.198343 0.915674 0
M  V30 31 C 0.265747 1.050511 0.786587 0
M  V30 32 N 2.335338 -0.824249 2.165759 0
M  V30 33 C 3.427413 -1.313890 2.774869 0
M  V30 34 H 4.420170 -3.040527 1.343809 0
M  V30 35 H 4.702854 -4.396293 2.564517 0
M  V30 36 H 3.005435 -3.921133 2.121195 0
M  V30 37 H 3.456183 -2.904733 4.234705 0
M  V30 38 H 5.935518 -2.851927 4.280743 0
M  V30 39 H 4.168327 1.778537 2.305578 0
M  V30 40 H 2.911960 3.093651 1.383606 0
M  V30 41 H 1.477258 4.705246 0.333704 0
M  V30 42 H -0.753963 4.077265 -0.462364 0
M  V30 43 H -4.171410 -0.498676 -0.014350 0
M  V30 44 H -4.157402 1.165043 -0.566247 0
M  V30 45 H -3.843215 1.686874 -3.050919 0
M  V30 46 H -5.030900 0.910020 -5.612041 0
M  V30 47 H -3.312555 1.367009 -5.595746 0
M  V30 48 H -3.787912 -0.190066 -6.390126 0
M  V30 49 H -3.781883 -2.232327 -4.643199 0
M  V30 50 H -2.911024 -2.043844 0.214607 0
M  V30 51 H -2.555890 -4.513150 2.078877 0
M  V30 52 H -1.558011 -5.093643 0.701769 0
M  V30 53 H -2.943111 -4.011370 0.353601 0
M  V30 54 H 0.343450 -2.280624 -0.096368 0
M  V30 55 H -0.322611 -3.855466 -0.548288 0
M  V30 56 H 0.713015 -3.792392 0.887469 0
M  V30 57 H -1.627109 -3.313793 3.289650 0
M  V30 58 H 0.070167 -3.156118 2.790036 0
M  V30 59 H -1.019239 -1.672138 2.936767 0
M  V30 60 H 1.505659 -1.412220 1.948539 0
M  V30 END ATOM
M  V30 BEGIN BOND
M  V30 1 1 1 2
M  V30 2 1 2 3
M  V30 3 1 3 4
M  V30 4 2 4 5
M  V30 5 1 4 6
M  V30 6 1 6 7
M  V30 7 2 7 8
M  V30 8 1 8 9
M  V30 9 2 9 10
M  V30 10 1 10 11
M  V30 11 2 11 12
M  V30 12 1 12 13
M  V30 13 1 13 14
M  V30 14 2 14 15
M  V30 15 1 14 16
M  V30 16 1 16 17
M  V30 17 1 17 18
M  V30 18 2 18 19
M  V30 19 1 19 20
M  V30 20 1 20 21
M  V30 21 1 20 22
M  V30 22 2 22 23
M  V30 23 1 16 24
M  V30 24 1 24 25
M  V30 25 1 25 26
M  V30 26 1 26 27
M  V30 27 1 26 28
M  V30 28 1 26 29
M  V30 29 2 24 30
M  V30 30 1 30 31
M  V30 31 1 8 32
M  V30 32 1 32 33
M  V30 33 1 33 2
M  V30 34 2 33 6
M  V30 35 1 31 9
M  V30 36 2 31 13
M  V30 37 1 23 18
M  V30 38 1 1 34
M  V30 39 1 1 35
M  V30 40 1 1 36
M  V30 41 1 2 37 CFG=1
M  V30 42 1 3 38
M  V30 43 1 7 39
M  V30 44 1 10 40
M  V30 45 1 11 41
M  V30 46 1 12 42
M  V30 47 1 17 43
M  V30 48 1 17 44
M  V30 49 1 19 45
M  V30 50 1 21 46
M  V30 51 1 21 47
M  V30 52 1 21 48
M  V30 53 1 22 49
M  V30 54 1 25 50
M  V30 55 1 27 51
M  V30 56 1 27 52
M  V30 57 1 27 53
M  V30 58 1 28 54
M  V30 59 1 28 55
M  V30 60 1 28 56
M  V30 61 1 29 57
M  V30 62 1 29 58
M  V30 63 1 29 59
M  V30 64 1 32 60
M  V30 END BOND
M  V30 END CTAB
M  END
>  <Dataset>  (797) 
ChEMBL_Kinases

>  <Ligand_Instance>  (797) 
nan

>  <PDB_ID>  (797) 
nan

>  <Standardized_SMILES>  (797) 
C[C@H]1NC(=O)c2cc(-c3cccc4c(=O)n(Cc5cn(C)cn5)c(NC(C)(C)C)nc34)[nH]c21

>  <Name>  (797) 
nan

>  <Pocket>  (797) 
nan

>  <ATP_Site>  (797) 
nan

>  <Peripheral>  (797) 
nan

>  <Num_H_Atoms_ProtBoundConf>  (797) 
nan

>  <Num_Resolved_Atoms>  (797) 
nan

>  <Num_Not_Resolved_Atoms>  (797) 
nan

$$$$
CHEMBL2295951
     RDKit          3D

  0  0  0  0  0  0  0  0  0  0999 V3000
M  V30 BEGIN CTAB
M  V30 COUNTS 42 45 0 0 0
M  V30 BEGIN ATOM
M  V30 1 C 0.489010 -6.040416 2.536373 0
M  V30 2 C 0.095716 -4.707915 3.135715 0
M  V30 3 C -1.409727 -4.721949 3.316200 0
M  V30 4 N 0.541107 -3.658972 2.252218 0
M  V30 5 C 0.062829 -2.396562 2.446425 0
M  V30 6 N 0.608167 -1.590960 1.516728 0
M  V30 7 C 1.416250 -2.283279 0.733747 0
M  V30 8 C 2.224160 -2.008840 -0.342459 0
M  V30 9 N 2.338021 -0.723867 -0.918563 0
M  V30 10 C 1.670988 0.510240 -0.752994 0
M  V30 11 C 2.281249 1.750012 -0.700320 0
M  V30 12 C 1.579711 2.926776 -0.557987 0
M  V30 13 C 0.203653 2.889372 -0.461402 0
M  V30 14 C -0.535013 4.142898 -0.308841 0
M  V30 15 C 0.120629 5.138615 0.382277 0
M  V30 16 N -0.477434 6.332213 0.577077 0
M  V30 17 C -1.734933 6.548896 0.086591 0
M  V30 18 N -2.354542 5.560069 -0.585122 0
M  V30 19 C -1.803065 4.354206 -0.806284 0
M  V30 20 C -0.448391 1.676321 -0.509565 0
M  V30 21 C 0.286317 0.509600 -0.653758 0
M  V30 22 N 2.932911 -3.004749 -0.895019 0
M  V30 23 C 2.867920 -4.272662 -0.413940 0
M  V30 24 Cl 3.844920 -5.489908 -1.223932 0
M  V30 25 N 2.077500 -4.582291 0.651977 0
M  V30 26 C 1.371021 -3.577174 1.198904 0
M  V30 27 H 0.149854 -6.040542 1.480836 0
M  V30 28 H 1.611693 -6.096517 2.599324 0
M  V30 29 H 0.032252 -6.878422 3.113986 0
M  V30 30 H 0.563914 -4.569550 4.132780 0
M  V30 31 H -1.692061 -4.040298 4.169584 0
M  V30 32 H -1.931120 -4.371466 2.411735 0
M  V30 33 H -1.748443 -5.727738 3.641689 0
M  V30 34 H -0.624657 -1.908208 3.143360 0
M  V30 35 H 3.059048 -0.549803 -1.654283 0
M  V30 36 H 3.359969 1.714365 -0.780614 0
M  V30 37 H 2.143326 3.840323 -0.526853 0
M  V30 38 H 1.113147 5.112161 0.826134 0
M  V30 39 H -2.243790 7.506318 0.230196 0
M  V30 40 H -2.285385 3.551427 -1.342194 0
M  V30 41 H -1.524422 1.734550 -0.428599 0
M  V30 42 H -0.367406 -0.348820 -0.689412 0
M  V30 END ATOM
M  V30 BEGIN BOND
M  V30 1 1 1 2
M  V30 2 1 2 3
M  V30 3 1 2 4
M  V30 4 1 4 5
M  V30 5 2 5 6
M  V30 6 1 6 7
M  V30 7 2 7 8
M  V30 8 1 8 9
M  V30 9 1 9 10
M  V30 10 2 10 11
M  V30 11 1 11 12
M  V30 12 2 12 13
M  V30 13 1 13 14
M  V30 14 2 14 15
M  V30 15 1 15 16
M  V30 16 2 16 17
M  V30 17 1 17 18
M  V30 18 2 18 19
M  V30 19 1 13 20
M  V30 20 2 20 21
M  V30 21 1 8 22
M  V30 22 2 22 23
M  V30 23 1 23 24
M  V30 24 1 23 25
M  V30 25 2 25 26
M  V30 26 1 26 4
M  V30 27 1 26 7
M  V30 28 1 21 10
M  V30 29 1 19 14
M  V30 30 1 1 27
M  V30 31 1 1 28
M  V30 32 1 1 29
M  V30 33 1 2 30
M  V30 34 1 3 31
M  V30 35 1 3 32
M  V30 36 1 3 33
M  V30 37 1 5 34
M  V30 38 1 9 35
M  V30 39 1 11 36
M  V30 40 1 12 37
M  V30 41 1 15 38
M  V30 42 1 17 39
M  V30 43 1 19 40
M  V30 44 1 20 41
M  V30 45 1 21 42
M  V30 END BOND
M  V30 END CTAB
M  END
>  <Dataset>  (798) 
ChEMBL_Kinases

>  <Ligand_Instance>  (798) 
nan

>  <PDB_ID>  (798) 
nan

>  <Standardized_SMILES>  (798) 
CC(C)n1cnc2c(Nc3ccc(-c4cncnc4)cc3)nc(Cl)nc21

>  <Name>  (798) 
nan

>  <Pocket>  (798) 
nan

>  <ATP_Site>  (798) 
nan

>  <Peripheral>  (798) 
nan

>  <Num_H_Atoms_ProtBoundConf>  (798) 
nan

>  <Num_Resolved_Atoms>  (798) 
nan

>  <Num_Not_Resolved_Atoms>  (798) 
nan

$$$$
CHEMBL4539725
     RDKit          3D

  0  0  0  0  0  0  0  0  0  0999 V3000
M  V30 BEGIN CTAB
M  V30 COUNTS 24 25 0 0 0
M  V30 BEGIN ATOM
M  V30 1 O 2.437330 -2.052543 4.916112 0
M  V30 2 C 1.989459 -2.422010 3.794461 0
M  V30 3 O 2.063304 -3.819127 3.770398 0
M  V30 4 C 1.478018 -1.591282 2.696069 0
M  V30 5 C 1.034109 -2.162552 1.523964 0
M  V30 6 C 0.559405 -1.319835 0.542878 0
M  V30 7 C 0.540483 0.040944 0.755474 0
M  V30 8 C 0.025433 0.804490 -0.365916 0
M  V30 9 C 0.139237 0.525561 -1.692897 0
M  V30 10 C -0.448404 1.386159 -2.603965 0
M  V30 11 C -1.137241 2.506114 -2.191609 0
M  V30 12 N -1.237960 2.766561 -0.868270 0
M  V30 13 C -0.664570 1.927030 0.042956 0
M  V30 14 C 0.988653 0.603812 1.936386 0
M  V30 15 C 1.477873 -0.227955 2.950837 0
M  V30 16 H 1.603671 -4.411929 4.480829 0
M  V30 17 H 1.082100 -3.248895 1.437995 0
M  V30 18 H 0.212345 -1.798207 -0.382844 0
M  V30 19 H 0.700246 -0.369375 -1.917133 0
M  V30 20 H -0.321844 1.111026 -3.661159 0
M  V30 21 H -1.594500 3.170583 -2.935969 0
M  V30 22 H -0.836648 2.271780 1.044662 0
M  V30 23 H 0.940016 1.684408 2.018104 0
M  V30 24 H 1.821623 0.216986 3.862650 0
M  V30 END ATOM
M  V30 BEGIN BOND
M  V30 1 2 1 2
M  V30 2 1 2 3
M  V30 3 1 2 4
M  V30 4 2 4 5
M  V30 5 1 5 6
M  V30 6 2 6 7
M  V30 7 1 7 8
M  V30 8 2 8 9
M  V30 9 1 9 10
M  V30 10 2 10 11
M  V30 11 1 11 12
M  V30 12 2 12 13
M  V30 13 1 7 14
M  V30 14 2 14 15
M  V30 15 1 15 4
M  V30 16 1 13 8
M  V30 17 1 3 16
M  V30 18 1 5 17
M  V30 19 1 6 18
M  V30 20 1 9 19
M  V30 21 1 10 20
M  V30 22 1 11 21
M  V30 23 1 13 22
M  V30 24 1 14 23
M  V30 25 1 15 24
M  V30 END BOND
M  V30 END CTAB
M  END
>  <Dataset>  (799) 
ChEMBL_Kinases

>  <Ligand_Instance>  (799) 
nan

>  <PDB_ID>  (799) 
nan

>  <Standardized_SMILES>  (799) 
O=C(O)c1ccc(-c2cccnc2)cc1

>  <Name>  (799) 
nan

>  <Pocket>  (799) 
nan

>  <ATP_Site>  (799) 
nan

>  <Peripheral>  (799) 
nan

>  <Num_H_Atoms_ProtBoundConf>  (799) 
nan

>  <Num_Resolved_Atoms>  (799) 
nan

>  <Num_Not_Resolved_Atoms>  (799) 
nan

$$$$
CHEMBL2295953
     RDKit          3D

  0  0  0  0  0  0  0  0  0  0999 V3000
M  V30 BEGIN CTAB
M  V30 COUNTS 57 60 0 0 0
M  V30 BEGIN ATOM
M  V30 1 C 0.420839 -0.635061 3.633521 0
M  V30 2 C 1.161216 -1.900967 3.379739 0
M  V30 3 C 2.634490 -1.869768 3.602179 0
M  V30 4 C 3.414170 -0.893976 2.794459 0 CFG=2
M  V30 5 O 3.072767 0.430616 2.974698 0
M  V30 6 N 3.483202 -1.174828 1.393618 0
M  V30 7 C 2.566548 -1.378378 0.332545 0
M  V30 8 N 2.053697 -0.274653 -0.252097 0
M  V30 9 C 1.177095 -0.353828 -1.273877 0
M  V30 10 N 0.525492 0.651831 -2.040466 0
M  V30 11 C -0.564376 1.342061 -1.445569 0
M  V30 12 C -0.741006 1.304724 -0.059500 0
M  V30 13 C -1.787950 1.958196 0.556891 0
M  V30 14 C -2.711911 2.681624 -0.179985 0
M  V30 15 C -3.817575 3.388604 0.481443 0
M  V30 16 C -4.260706 2.771941 1.635565 0
M  V30 17 N -5.275680 3.328435 2.332619 0
M  V30 18 C -5.817426 4.476615 1.863441 0
M  V30 19 N -5.403920 5.112513 0.725599 0
M  V30 20 C -4.375774 4.570109 -0.000754 0
M  V30 21 C -2.578674 2.747588 -1.558567 0
M  V30 22 C -1.509218 2.077561 -2.163360 0
M  V30 23 C 0.797265 -1.626031 -1.731419 0
M  V30 24 N -0.005449 -2.152133 -2.682345 0
M  V30 25 C 0.057654 -3.491797 -2.631985 0
M  V30 26 N 0.902189 -3.886187 -1.648609 0
M  V30 27 C 1.141163 -5.291051 -1.407306 0
M  V30 28 C 0.974333 -6.109019 -2.662290 0
M  V30 29 C 0.225207 -5.827324 -0.331506 0
M  V30 30 C 1.354780 -2.738123 -1.095745 0
M  V30 31 N 2.226115 -2.634396 -0.079117 0
M  V30 32 H -0.622044 -0.808313 3.220165 0
M  V30 33 H 0.244991 -0.454180 4.731256 0
M  V30 34 H 0.771141 0.252581 3.094605 0
M  V30 35 H 0.878085 -2.348995 2.415754 0
M  V30 36 H 0.753868 -2.637740 4.143042 0
M  V30 37 H 3.004214 -2.889880 3.353727 0
M  V30 38 H 2.827901 -1.685136 4.680644 0
M  V30 39 H 4.478557 -0.990680 3.164369 0
M  V30 40 H 3.813015 0.983024 2.596888 0
M  V30 41 H 4.389341 -1.290408 0.847796 0
M  V30 42 H 0.751954 0.966983 -3.027839 0
M  V30 43 H -0.023172 0.737430 0.557449 0
M  V30 44 H -1.848779 1.877214 1.641027 0
M  V30 45 H -3.843395 1.854726 2.028442 0
M  V30 46 H -6.640313 5.040754 2.319454 0
M  V30 47 H -3.973945 4.998600 -0.918536 0
M  V30 48 H -3.278662 3.302454 -2.196682 0
M  V30 49 H -1.369640 2.109244 -3.249712 0
M  V30 50 H -0.567516 -3.951374 -3.369457 0
M  V30 51 H 2.170055 -5.374587 -0.993441 0
M  V30 52 H 0.902241 -7.179057 -2.310093 0
M  V30 53 H -0.006005 -5.877832 -3.107738 0
M  V30 54 H 1.828299 -6.017640 -3.367704 0
M  V30 55 H 0.366591 -6.910801 -0.198406 0
M  V30 56 H -0.831577 -5.515083 -0.449922 0
M  V30 57 H 0.548254 -5.309951 0.624181 0
M  V30 END ATOM
M  V30 BEGIN BOND
M  V30 1 1 1 2
M  V30 2 1 2 3
M  V30 3 1 3 4
M  V30 4 1 4 5
M  V30 5 1 4 6
M  V30 6 1 6 7
M  V30 7 2 7 8
M  V30 8 1 8 9
M  V30 9 1 9 10
M  V30 10 1 10 11
M  V30 11 2 11 12
M  V30 12 1 12 13
M  V30 13 2 13 14
M  V30 14 1 14 15
M  V30 15 2 15 16
M  V30 16 1 16 17
M  V30 17 2 17 18
M  V30 18 1 18 19
M  V30 19 2 19 20
M  V30 20 1 14 21
M  V30 21 2 21 22
M  V30 22 2 9 23
M  V30 23 1 23 24
M  V30 24 2 24 25
M  V30 25 1 25 26
M  V30 26 1 26 27
M  V30 27 1 27 28
M  V30 28 1 27 29
M  V30 29 1 26 30
M  V30 30 2 30 31
M  V30 31 1 31 7
M  V30 32 1 22 11
M  V30 33 1 30 23
M  V30 34 1 20 15
M  V30 35 1 1 32
M  V30 36 1 1 33
M  V30 37 1 1 34
M  V30 38 1 2 35
M  V30 39 1 2 36
M  V30 40 1 3 37
M  V30 41 1 3 38
M  V30 42 1 4 39 CFG=1
M  V30 43 1 5 40
M  V30 44 1 6 41
M  V30 45 1 10 42
M  V30 46 1 12 43
M  V30 47 1 13 44
M  V30 48 1 16 45
M  V30 49 1 18 46
M  V30 50 1 20 47
M  V30 51 1 21 48
M  V30 52 1 22 49
M  V30 53 1 25 50
M  V30 54 1 27 51
M  V30 55 1 28 52
M  V30 56 1 28 53
M  V30 57 1 28 54
M  V30 58 1 29 55
M  V30 59 1 29 56
M  V30 60 1 29 57
M  V30 END BOND
M  V30 END CTAB
M  END
>  <Dataset>  (800) 
ChEMBL_Kinases

>  <Ligand_Instance>  (800) 
nan

>  <PDB_ID>  (800) 
nan

>  <Standardized_SMILES>  (800) 
CCC[C@H](O)Nc1nc(Nc2ccc(-c3cncnc3)cc2)c2ncn(C(C)C)c2n1

>  <Name>  (800) 
nan

>  <Pocket>  (800) 
nan

>  <ATP_Site>  (800) 
nan

>  <Peripheral>  (800) 
nan

>  <Num_H_Atoms_ProtBoundConf>  (800) 
nan

>  <Num_Resolved_Atoms>  (800) 
nan

>  <Num_Not_Resolved_Atoms>  (800) 
nan

$$$$
CHEMBL3702159
     RDKit          3D

  0  0  0  0  0  0  0  0  0  0999 V3000
M  V30 BEGIN CTAB
M  V30 COUNTS 58 63 0 0 0
M  V30 BEGIN ATOM
M  V30 1 C 1.268483 -6.582814 3.923223 0
M  V30 2 C 1.793014 -5.340826 3.645617 0
M  V30 3 C 1.485884 -4.633284 2.480978 0
M  V30 4 C 1.824800 -3.418866 1.921205 0
M  V30 5 C 2.673776 -2.440261 2.426780 0
M  V30 6 N 2.852988 -1.313404 1.683093 0
M  V30 7 C 2.214572 -1.167344 0.487979 0
M  V30 8 N 2.394816 0.020006 -0.308628 0
M  V30 9 C 1.446611 1.062513 -0.011424 0
M  V30 10 C 0.471785 0.902364 0.952377 0
M  V30 11 C -0.459766 1.867301 1.276065 0
M  V30 12 C -0.346307 3.035505 0.549665 0
M  V30 13 C -1.304927 4.138052 0.824498 0
M  V30 14 C -0.573332 5.393473 1.190070 0
M  V30 15 C -1.611444 6.443361 1.598409 0
M  V30 16 N -2.935442 6.054765 1.192770 0
M  V30 17 C -3.008123 5.598793 -0.182493 0
M  V30 18 C -2.122731 4.395112 -0.423948 0
M  V30 19 C 0.609783 3.248247 -0.425384 0
M  V30 20 N 1.475529 2.238856 -0.665999 0
M  V30 21 N 1.404667 -2.138426 0.040288 0
M  V30 22 C 1.184610 -3.281914 0.731483 0
M  V30 23 N 0.422690 -4.392591 0.492718 0
M  V30 24 C -0.373528 -4.561465 -0.674615 0
M  V30 25 C -0.628065 -5.923826 -1.157059 0
M  V30 26 C -0.835016 -5.742648 -2.670548 0
M  V30 27 C 0.075266 -4.627945 -3.072829 0
M  V30 28 C 0.361139 -3.862623 -1.827952 0
M  V30 29 C 0.621545 -5.185369 1.555960 0
M  V30 30 C 0.116486 -6.430411 1.868780 0
M  V30 31 N 0.437359 -7.079696 3.002318 0
M  V30 32 H 1.511490 -7.123980 4.827108 0
M  V30 33 H 2.477040 -4.857597 4.334788 0
M  V30 34 H 3.172681 -2.572678 3.377612 0
M  V30 35 H 3.095805 0.195597 -1.033690 0
M  V30 36 H 0.399366 -0.038449 1.520558 0
M  V30 37 H -1.219047 1.722881 2.037378 0
M  V30 38 H -2.022291 3.869672 1.621066 0
M  V30 39 H -0.018787 5.759076 0.293688 0
M  V30 40 H 0.099932 5.235508 2.056607 0
M  V30 41 H -1.640374 6.562861 2.702345 0
M  V30 42 H -1.369203 7.420418 1.165417 0
M  V30 43 H -3.387720 5.388895 1.856541 0
M  V30 44 H -2.780635 6.427667 -0.860127 0
M  V30 45 H -4.083879 5.330884 -0.343038 0
M  V30 46 H -1.487602 4.524183 -1.314494 0
M  V30 47 H -2.755825 3.506762 -0.566859 0
M  V30 48 H 0.632318 4.196374 -0.952052 0
M  V30 49 H -1.374873 -4.058247 -0.534690 0
M  V30 50 H -1.645347 -6.302739 -0.840249 0
M  V30 51 H 0.169262 -6.664045 -1.072007 0
M  V30 52 H -0.724806 -6.676504 -3.227755 0
M  V30 53 H -1.881946 -5.365921 -2.865995 0
M  V30 54 H 0.986785 -5.110618 -3.516507 0
M  V30 55 H -0.334525 -3.994391 -3.905211 0
M  V30 56 H 1.445653 -3.983564 -1.616602 0
M  V30 57 H 0.110072 -2.781013 -1.872322 0
M  V30 58 H -0.566057 -6.923519 1.192358 0
M  V30 END ATOM
M  V30 BEGIN BOND
M  V30 1 2 1 2
M  V30 2 1 2 3
M  V30 3 1 3 4
M  V30 4 2 4 5
M  V30 5 1 5 6
M  V30 6 2 6 7
M  V30 7 1 7 8
M  V30 8 1 8 9
M  V30 9 2 9 10
M  V30 10 1 10 11
M  V30 11 2 11 12
M  V30 12 1 12 13
M  V30 13 1 13 14
M  V30 14 1 14 15
M  V30 15 1 15 16
M  V30 16 1 16 17
M  V30 17 1 17 18
M  V30 18 1 12 19
M  V30 19 2 19 20
M  V30 20 1 7 21
M  V30 21 2 21 22
M  V30 22 1 22 23
M  V30 23 1 23 24
M  V30 24 1 24 25
M  V30 25 1 25 26
M  V30 26 1 26 27
M  V30 27 1 27 28
M  V30 28 1 23 29
M  V30 29 1 29 30
M  V30 30 2 30 31
M  V30 31 1 31 1
M  V30 32 2 29 3
M  V30 33 1 22 4
M  V30 34 1 28 24
M  V30 35 1 20 9
M  V30 36 1 18 13
M  V30 37 1 1 32
M  V30 38 1 2 33
M  V30 39 1 5 34
M  V30 40 1 8 35
M  V30 41 1 10 36
M  V30 42 1 11 37
M  V30 43 1 13 38
M  V30 44 1 14 39
M  V30 45 1 14 40
M  V30 46 1 15 41
M  V30 47 1 15 42
M  V30 48 1 16 43
M  V30 49 1 17 44
M  V30 50 1 17 45
M  V30 51 1 18 46
M  V30 52 1 18 47
M  V30 53 1 19 48
M  V30 54 1 24 49
M  V30 55 1 25 50
M  V30 56 1 25 51
M  V30 57 1 26 52
M  V30 58 1 26 53
M  V30 59 1 27 54
M  V30 60 1 27 55
M  V30 61 1 28 56
M  V30 62 1 28 57
M  V30 63 1 30 58
M  V30 END BOND
M  V30 END CTAB
M  END
>  <Dataset>  (801) 
ChEMBL_Kinases

>  <Ligand_Instance>  (801) 
nan

>  <PDB_ID>  (801) 
nan

>  <Standardized_SMILES>  (801) 
c1cc2c3cnc(Nc4ccc(C5CCNCC5)cn4)nc3n(C3CCCC3)c2cn1

>  <Name>  (801) 
nan

>  <Pocket>  (801) 
nan

>  <ATP_Site>  (801) 
nan

>  <Peripheral>  (801) 
nan

>  <Num_H_Atoms_ProtBoundConf>  (801) 
nan

>  <Num_Resolved_Atoms>  (801) 
nan

>  <Num_Not_Resolved_Atoms>  (801) 
nan

$$$$
CHEMBL3699769
     RDKit          3D

  0  0  0  0  0  0  0  0  0  0999 V3000
M  V30 BEGIN CTAB
M  V30 COUNTS 54 58 0 0 0
M  V30 BEGIN ATOM
M  V30 1 C 1.556030 -7.084546 -1.074637 0
M  V30 2 C 1.611293 -5.710842 -0.477961 0
M  V30 3 C 2.619315 -5.406942 0.434131 0
M  V30 4 C 2.701827 -4.157198 1.001943 0
M  V30 5 C 3.755101 -3.820018 1.962491 0
M  V30 6 N 3.780968 -2.506083 2.509809 0
M  V30 7 O 4.586134 -4.721557 2.251915 0
M  V30 8 C 1.748129 -3.222619 0.630908 0
M  V30 9 N 1.551060 -1.932446 0.996106 0
M  V30 10 C 0.456515 -1.459669 0.329671 0
M  V30 11 C 0.142480 -0.071668 0.649020 0
M  V30 12 C 0.946858 1.031114 0.377649 0
M  V30 13 C 0.532373 2.301821 0.741602 0
M  V30 14 C -0.671808 2.531447 1.377231 0
M  V30 15 C -0.971898 3.940178 1.704537 0
M  V30 16 N -0.478426 4.859141 0.707613 0
M  V30 17 C -0.446301 4.365792 3.084144 0
M  V30 18 C -1.816516 3.985104 3.637823 0
M  V30 19 C -2.354737 4.218219 2.243250 0
M  V30 20 C -1.459594 1.428683 1.640008 0
M  V30 21 C -1.079332 0.149117 1.292182 0
M  V30 22 C -0.020809 -2.482475 -0.456295 0
M  V30 23 C -1.188430 -2.211346 -1.263511 0
M  V30 24 C -1.021495 -1.217638 -2.219381 0
M  V30 25 C -2.036739 -0.847090 -3.060357 0
M  V30 26 C -3.272790 -1.479962 -2.959726 0
M  V30 27 C -3.470611 -2.474003 -2.017509 0
M  V30 28 C -2.419808 -2.828326 -1.177312 0
M  V30 29 N 0.787725 -3.551846 -0.254033 0
M  V30 30 C 0.653968 -4.757864 -0.844384 0
M  V30 31 H 0.508701 -7.282842 -1.382377 0
M  V30 32 H 2.289463 -7.248110 -1.867430 0
M  V30 33 H 1.803074 -7.819947 -0.267770 0
M  V30 34 H 3.369445 -6.148388 0.722797 0
M  V30 35 H 3.559429 -2.074229 3.459248 0
M  V30 36 H 4.077575 -1.684976 1.910260 0
M  V30 37 H 1.880570 0.818872 -0.120414 0
M  V30 38 H 1.233561 3.097887 0.483966 0
M  V30 39 H -0.964230 5.781135 0.822305 0
M  V30 40 H 0.538012 4.996717 0.776372 0
M  V30 41 H 0.391567 3.726085 3.420681 0
M  V30 42 H -0.302639 5.450485 3.171451 0
M  V30 43 H -1.894544 2.977825 4.048097 0
M  V30 44 H -2.162458 4.729592 4.407208 0
M  V30 45 H -3.148192 3.511896 2.008748 0
M  V30 46 H -2.600713 5.307427 2.101281 0
M  V30 47 H -2.390304 1.622810 2.132246 0
M  V30 48 H -1.762938 -0.649002 1.539506 0
M  V30 49 H -0.113298 -0.662484 -2.385916 0
M  V30 50 H -1.966676 -0.088385 -3.816806 0
M  V30 51 H -4.104290 -1.200334 -3.623361 0
M  V30 52 H -4.425764 -2.972334 -1.930100 0
M  V30 53 H -2.510824 -3.600942 -0.417752 0
M  V30 54 H -0.134047 -4.978687 -1.550470 0
M  V30 END ATOM
M  V30 BEGIN BOND
M  V30 1 1 1 2
M  V30 2 1 2 3
M  V30 3 2 3 4
M  V30 4 1 4 5
M  V30 5 1 5 6
M  V30 6 2 5 7
M  V30 7 1 4 8
M  V30 8 2 8 9
M  V30 9 1 9 10
M  V30 10 1 10 11
M  V30 11 2 11 12
M  V30 12 1 12 13
M  V30 13 2 13 14
M  V30 14 1 14 15
M  V30 15 1 15 16
M  V30 16 1 15 17
M  V30 17 1 17 18
M  V30 18 1 18 19
M  V30 19 1 14 20
M  V30 20 2 20 21
M  V30 21 2 10 22
M  V30 22 1 22 23
M  V30 23 2 23 24
M  V30 24 1 24 25
M  V30 25 2 25 26
M  V30 26 1 26 27
M  V30 27 2 27 28
M  V30 28 1 22 29
M  V30 29 1 29 30
M  V30 30 2 30 2
M  V30 31 1 29 8
M  V30 32 1 21 11
M  V30 33 1 28 23
M  V30 34 1 19 15
M  V30 35 1 1 31
M  V30 36 1 1 32
M  V30 37 1 1 33
M  V30 38 1 3 34
M  V30 39 1 6 35
M  V30 40 1 6 36
M  V30 41 1 12 37
M  V30 42 1 13 38
M  V30 43 1 16 39
M  V30 44 1 16 40
M  V30 45 1 17 41
M  V30 46 1 17 42
M  V30 47 1 18 43
M  V30 48 1 18 44
M  V30 49 1 19 45
M  V30 50 1 19 46
M  V30 51 1 20 47
M  V30 52 1 21 48
M  V30 53 1 24 49
M  V30 54 1 25 50
M  V30 55 1 26 51
M  V30 56 1 27 52
M  V30 57 1 28 53
M  V30 58 1 30 54
M  V30 END BOND
M  V30 END CTAB
M  END
>  <Dataset>  (802) 
ChEMBL_Kinases

>  <Ligand_Instance>  (802) 
nan

>  <PDB_ID>  (802) 
nan

>  <Standardized_SMILES>  (802) 
Cc1cc(C(N)=O)c2nc(-c3ccc(C4(N)CCC4)cc3)c(-c3ccccc3)n2c1

>  <Name>  (802) 
nan

>  <Pocket>  (802) 
nan

>  <ATP_Site>  (802) 
nan

>  <Peripheral>  (802) 
nan

>  <Num_H_Atoms_ProtBoundConf>  (802) 
nan

>  <Num_Resolved_Atoms>  (802) 
nan

>  <Num_Not_Resolved_Atoms>  (802) 
nan

$$$$
CHEMBL220696
     RDKit          3D

  0  0  0  0  0  0  0  0  0  0999 V3000
M  V30 BEGIN CTAB
M  V30 COUNTS 49 50 0 0 0
M  V30 BEGIN ATOM
M  V30 1 C 1.555388 -3.275326 2.484611 0
M  V30 2 C 2.994414 -3.470933 2.065626 0 CFG=2
M  V30 3 C 3.812559 -2.250392 2.425266 0
M  V30 4 O 3.764808 -2.014642 3.808861 0
M  V30 5 N 3.023572 -3.745089 0.634231 0
M  V30 6 C 2.527224 -2.839187 -0.313071 0
M  V30 7 N 1.995417 -1.664983 0.055349 0
M  V30 8 C 1.516818 -0.793739 -0.867831 0
M  V30 9 C 0.942975 0.474902 -0.429525 0
M  V30 10 O 0.498819 1.287013 -1.296996 0
M  V30 11 N 0.882215 0.796504 0.947435 0
M  V30 12 C 0.344255 2.010179 1.539593 0
M  V30 13 C -1.147436 2.025438 1.555083 0
M  V30 14 C -1.801046 1.495254 2.653655 0
M  V30 15 C -3.179208 1.477970 2.735043 0
M  V30 16 C -3.956694 1.991912 1.717454 0
M  V30 17 S -5.705297 2.043197 1.673856 0
M  V30 18 C -6.367780 0.562843 0.934005 0
M  V30 19 O -6.223445 2.109799 3.080985 0
M  V30 20 O -6.197995 3.272149 0.962247 0
M  V30 21 C -3.316399 2.527947 0.607222 0
M  V30 22 C -1.934185 2.542679 0.530992 0
M  V30 23 C 1.566405 -1.097993 -2.218646 0
M  V30 24 C 2.101166 -2.289213 -2.660549 0
M  V30 25 N 2.169354 -2.635698 -4.032582 0
M  V30 26 C 2.566565 -3.121922 -1.665962 0
M  V30 27 C 3.139149 -4.385251 -2.056289 0
M  V30 28 N 3.592848 -5.412309 -2.364646 0
M  V30 29 H 1.491165 -2.456755 3.235149 0
M  V30 30 H 1.166795 -4.205885 2.979687 0
M  V30 31 H 0.876752 -3.033934 1.659734 0
M  V30 32 H 3.402553 -4.333372 2.623389 0
M  V30 33 H 4.861700 -2.341734 2.120244 0
M  V30 34 H 3.361575 -1.326996 1.974506 0
M  V30 35 H 4.516851 -1.374939 4.016765 0
M  V30 36 H 3.436233 -4.664589 0.301682 0
M  V30 37 H 1.274796 0.065028 1.610129 0
M  V30 38 H 0.753644 2.840125 0.925519 0
M  V30 39 H 0.759865 2.150648 2.545463 0
M  V30 40 H -1.294005 1.064009 3.512216 0
M  V30 41 H -3.776736 1.088733 3.546252 0
M  V30 42 H -5.599715 -0.223160 0.888426 0
M  V30 43 H -7.293400 0.279933 1.452869 0
M  V30 44 H -6.568579 0.840012 -0.138238 0
M  V30 45 H -3.866362 2.954215 -0.238971 0
M  V30 46 H -1.444945 2.954962 -0.320052 0
M  V30 47 H 1.182295 -0.400485 -2.976287 0
M  V30 48 H 1.279103 -3.163891 -4.250409 0
M  V30 49 H 2.908849 -2.440489 -4.727893 0
M  V30 END ATOM
M  V30 BEGIN BOND
M  V30 1 1 1 2
M  V30 2 1 2 3
M  V30 3 1 3 4
M  V30 4 1 2 5
M  V30 5 1 5 6
M  V30 6 2 6 7
M  V30 7 1 7 8
M  V30 8 1 8 9
M  V30 9 2 9 10
M  V30 10 1 9 11
M  V30 11 1 11 12
M  V30 12 1 12 13
M  V30 13 2 13 14
M  V30 14 1 14 15
M  V30 15 2 15 16
M  V30 16 1 16 17
M  V30 17 1 17 18
M  V30 18 2 17 19
M  V30 19 2 17 20
M  V30 20 1 16 21
M  V30 21 2 21 22
M  V30 22 2 8 23
M  V30 23 1 23 24
M  V30 24 1 24 25
M  V30 25 2 24 26
M  V30 26 1 26 27
M  V30 27 3 27 28
M  V30 28 1 26 6
M  V30 29 1 22 13
M  V30 30 1 1 29
M  V30 31 1 1 30
M  V30 32 1 1 31
M  V30 33 1 2 32 CFG=1
M  V30 34 1 3 33
M  V30 35 1 3 34
M  V30 36 1 4 35
M  V30 37 1 5 36
M  V30 38 1 11 37
M  V30 39 1 12 38
M  V30 40 1 12 39
M  V30 41 1 14 40
M  V30 42 1 15 41
M  V30 43 1 18 42
M  V30 44 1 18 43
M  V30 45 1 18 44
M  V30 46 1 21 45
M  V30 47 1 22 46
M  V30 48 1 23 47
M  V30 49 1 25 48
M  V30 50 1 25 49
M  V30 END BOND
M  V30 END CTAB
M  END
>  <Dataset>  (803) 
ChEMBL_Kinases

>  <Ligand_Instance>  (803) 
nan

>  <PDB_ID>  (803) 
nan

>  <Standardized_SMILES>  (803) 
C[C@H](CO)Nc1nc(C(=O)NCc2ccc(S(C)(=O)=O)cc2)cc(N)c1C#N

>  <Name>  (803) 
nan

>  <Pocket>  (803) 
nan

>  <ATP_Site>  (803) 
nan

>  <Peripheral>  (803) 
nan

>  <Num_H_Atoms_ProtBoundConf>  (803) 
nan

>  <Num_Resolved_Atoms>  (803) 
nan

>  <Num_Not_Resolved_Atoms>  (803) 
nan

$$$$
CHEMBL3699768
     RDKit          3D

  0  0  0  0  0  0  0  0  0  0999 V3000
M  V30 BEGIN CTAB
M  V30 COUNTS 51 55 0 0 0
M  V30 BEGIN ATOM
M  V30 1 N 3.719911 1.259160 4.362255 0
M  V30 2 C 2.690193 0.508756 4.994472 0
M  V30 3 O 2.704181 0.321453 6.242215 0
M  V30 4 C 1.595452 -0.057458 4.193443 0
M  V30 5 C 0.607283 -0.783650 4.824593 0
M  V30 6 C -0.394194 -1.290400 4.022655 0
M  V30 7 Br -1.765985 -2.296104 4.882660 0
M  V30 8 C -0.422939 -1.091253 2.655996 0
M  V30 9 N -1.286821 -1.486764 1.702257 0
M  V30 10 C -0.878044 -1.036378 0.497669 0
M  V30 11 C -1.411980 -1.158980 -0.858684 0
M  V30 12 C -2.662932 -0.646654 -1.133558 0
M  V30 13 C -3.237995 -0.720332 -2.382635 0
M  V30 14 C -2.566100 -1.321938 -3.420358 0
M  V30 15 C -2.982676 -1.515207 -4.830807 0
M  V30 16 N -2.765677 -2.855105 -5.339233 0
M  V30 17 C -4.320969 -0.998760 -5.230119 0
M  V30 18 C -3.704125 0.208355 -5.866980 0
M  V30 19 C -2.345092 -0.452726 -5.688488 0
M  V30 20 C -1.294665 -1.851570 -3.173406 0
M  V30 21 C -0.736386 -1.765746 -1.908788 0
M  V30 22 C 0.299060 -0.333272 0.764518 0
M  V30 23 C 1.157823 0.361222 -0.180701 0
M  V30 24 C 2.487398 0.035447 -0.407534 0
M  V30 25 C 3.200972 0.759417 -1.322412 0
M  V30 26 C 2.612796 1.804865 -2.017476 0
M  V30 27 C 1.285791 2.146640 -1.805796 0
M  V30 28 C 0.601780 1.396215 -0.878996 0
M  V30 29 N 0.571843 -0.370322 2.084171 0
M  V30 30 C 1.579492 0.149285 2.829653 0
M  V30 31 H 4.075811 2.251659 4.242573 0
M  V30 32 H 4.532943 0.980322 3.745538 0
M  V30 33 H 0.687031 -0.902617 5.890212 0
M  V30 34 H -3.264462 -0.158058 -0.386236 0
M  V30 35 H -4.209523 -0.342987 -2.671202 0
M  V30 36 H -1.785665 -3.148664 -5.385349 0
M  V30 37 H -3.360298 -3.064022 -6.148262 0
M  V30 38 H -5.076702 -0.819599 -4.456656 0
M  V30 39 H -4.815020 -1.617505 -6.034206 0
M  V30 40 H -3.909537 0.336723 -6.963143 0
M  V30 41 H -3.836798 1.175677 -5.368728 0
M  V30 42 H -1.873079 -0.805737 -6.619752 0
M  V30 43 H -1.670153 0.261745 -5.153849 0
M  V30 44 H -0.640998 -2.356815 -3.892164 0
M  V30 45 H 0.244428 -2.160466 -1.667889 0
M  V30 46 H 2.912439 -0.801535 0.166678 0
M  V30 47 H 4.246360 0.472900 -1.473745 0
M  V30 48 H 3.187172 2.372541 -2.740761 0
M  V30 49 H 0.836409 2.966727 -2.355857 0
M  V30 50 H -0.441228 1.688879 -0.733675 0
M  V30 51 H 2.370883 0.725039 2.361649 0
M  V30 END ATOM
M  V30 BEGIN BOND
M  V30 1 1 1 2
M  V30 2 2 2 3
M  V30 3 1 2 4
M  V30 4 1 4 5
M  V30 5 2 5 6
M  V30 6 1 6 7
M  V30 7 1 6 8
M  V30 8 2 8 9
M  V30 9 1 9 10
M  V30 10 1 10 11
M  V30 11 2 11 12
M  V30 12 1 12 13
M  V30 13 2 13 14
M  V30 14 1 14 15
M  V30 15 1 15 16
M  V30 16 1 15 17
M  V30 17 1 17 18
M  V30 18 1 18 19
M  V30 19 1 14 20
M  V30 20 2 20 21
M  V30 21 2 10 22
M  V30 22 1 22 23
M  V30 23 2 23 24
M  V30 24 1 24 25
M  V30 25 2 25 26
M  V30 26 1 26 27
M  V30 27 2 27 28
M  V30 28 1 22 29
M  V30 29 1 29 30
M  V30 30 2 30 4
M  V30 31 1 29 8
M  V30 32 1 21 11
M  V30 33 1 28 23
M  V30 34 1 19 15
M  V30 35 1 1 31
M  V30 36 1 1 32
M  V30 37 1 5 33
M  V30 38 1 12 34
M  V30 39 1 13 35
M  V30 40 1 16 36
M  V30 41 1 16 37
M  V30 42 1 17 38
M  V30 43 1 17 39
M  V30 44 1 18 40
M  V30 45 1 18 41
M  V30 46 1 19 42
M  V30 47 1 19 43
M  V30 48 1 20 44
M  V30 49 1 21 45
M  V30 50 1 24 46
M  V30 51 1 25 47
M  V30 52 1 26 48
M  V30 53 1 27 49
M  V30 54 1 28 50
M  V30 55 1 30 51
M  V30 END BOND
M  V30 END CTAB
M  END
>  <Dataset>  (804) 
ChEMBL_Kinases

>  <Ligand_Instance>  (804) 
nan

>  <PDB_ID>  (804) 
nan

>  <Standardized_SMILES>  (804) 
NC(=O)c1cc(Br)c2nc(-c3ccc(C4(N)CCC4)cc3)c(-c3ccccc3)n2c1

>  <Name>  (804) 
nan

>  <Pocket>  (804) 
nan

>  <ATP_Site>  (804) 
nan

>  <Peripheral>  (804) 
nan

>  <Num_H_Atoms_ProtBoundConf>  (804) 
nan

>  <Num_Resolved_Atoms>  (804) 
nan

>  <Num_Not_Resolved_Atoms>  (804) 
nan

$$$$
CHEMBL3702218
     RDKit          3D

  0  0  0  0  0  0  0  0  0  0999 V3000
M  V30 BEGIN CTAB
M  V30 COUNTS 61 65 0 0 0
M  V30 BEGIN ATOM
M  V30 1 C 2.971555 4.043215 3.813905 0
M  V30 2 C 2.445618 2.652536 4.156475 0
M  V30 3 C 3.031152 1.711480 3.128238 0 CFG=1
M  V30 4 C 2.580271 0.282820 3.354989 0
M  V30 5 N 2.863255 2.149130 1.767506 0
M  V30 6 C 3.820386 2.770024 1.013278 0
M  V30 7 C 5.121967 3.170633 1.224487 0
M  V30 8 N 5.869400 3.782536 0.291095 0
M  V30 9 C 5.365147 4.046449 -0.947572 0
M  V30 10 C 4.087702 3.683340 -1.239212 0
M  V30 11 C 3.346551 3.047549 -0.234304 0
M  V30 12 C 2.056176 2.595977 -0.286885 0
M  V30 13 C 1.055873 2.568637 -1.230045 0
M  V30 14 N -0.122989 2.022011 -0.906198 0
M  V30 15 C -0.394043 1.484790 0.316612 0
M  V30 16 N -1.729283 1.004336 0.279193 0
M  V30 17 C -2.184805 -0.340592 0.226393 0
M  V30 18 C -3.519398 -0.675888 0.135331 0
M  V30 19 C -3.848547 -2.038442 0.118837 0
M  V30 20 C -2.797893 -2.952500 0.196440 0
M  V30 21 N -3.211123 -4.314809 0.156465 0
M  V30 22 C -4.484029 -4.675205 -0.378731 0
M  V30 23 C -4.430724 -5.994511 -1.091004 0
M  V30 24 C -3.087298 -6.446154 -1.545150 0
M  V30 25 N -2.666206 -5.970319 -2.831983 0
M  V30 26 C -2.506155 -4.560608 -2.965931 0
M  V30 27 C -1.982332 -6.285287 -0.534636 0
M  V30 28 C -2.525499 -5.503839 0.613606 0
M  V30 29 N -1.500554 -2.558157 0.284526 0
M  V30 30 N -1.197078 -1.249105 0.298835 0
M  V30 31 N 0.581418 1.498532 1.269400 0
M  V30 32 C 1.785306 2.044459 0.970625 0
M  V30 33 H 2.601000 4.296970 2.796027 0
M  V30 34 H 4.054894 3.998409 3.759008 0
M  V30 35 H 2.587412 4.785377 4.513361 0
M  V30 36 H 1.346796 2.603548 4.204689 0
M  V30 37 H 2.861757 2.317047 5.153044 0
M  V30 38 H 4.138322 1.696406 3.362651 0
M  V30 39 H 2.966435 -0.324306 2.490583 0
M  V30 40 H 3.110102 -0.116041 4.238868 0
M  V30 41 H 1.496545 0.172997 3.388913 0
M  V30 42 H 5.586096 2.986298 2.205827 0
M  V30 43 H 5.906306 4.538589 -1.754978 0
M  V30 44 H 3.609236 3.860103 -2.214986 0
M  V30 45 H 1.329924 3.009780 -2.177458 0
M  V30 46 H -2.439748 1.738852 0.293935 0
M  V30 47 H -4.233103 0.132131 0.083886 0
M  V30 48 H -4.895113 -2.177730 0.047705 0
M  V30 49 H -4.917401 -3.878693 -1.035535 0
M  V30 50 H -5.227668 -4.758691 0.464791 0
M  V30 51 H -4.886692 -6.760715 -0.390262 0
M  V30 52 H -5.178688 -5.987240 -1.943514 0
M  V30 53 H -3.182184 -7.575576 -1.681573 0
M  V30 54 H -1.739425 -6.406014 -3.035651 0
M  V30 55 H -1.773768 -4.192930 -2.215607 0
M  V30 56 H -1.980528 -4.412011 -3.960539 0
M  V30 57 H -3.412787 -3.966102 -3.046457 0
M  V30 58 H -1.120034 -5.715123 -0.955180 0
M  V30 59 H -1.628886 -7.255820 -0.144962 0
M  V30 60 H -3.140356 -6.111324 1.314196 0
M  V30 61 H -1.660082 -5.151846 1.250062 0
M  V30 END ATOM
M  V30 BEGIN BOND
M  V30 1 1 1 2
M  V30 2 1 2 3
M  V30 3 1 3 4
M  V30 4 1 3 5
M  V30 5 1 5 6
M  V30 6 2 6 7
M  V30 7 1 7 8
M  V30 8 2 8 9
M  V30 9 1 9 10
M  V30 10 2 10 11
M  V30 11 1 11 12
M  V30 12 2 12 13
M  V30 13 1 13 14
M  V30 14 2 14 15
M  V30 15 1 15 16
M  V30 16 1 16 17
M  V30 17 2 17 18
M  V30 18 1 18 19
M  V30 19 2 19 20
M  V30 20 1 20 21
M  V30 21 1 21 22
M  V30 22 1 22 23
M  V30 23 1 23 24
M  V30 24 1 24 25
M  V30 25 1 25 26
M  V30 26 1 24 27
M  V30 27 1 27 28
M  V30 28 1 20 29
M  V30 29 2 29 30
M  V30 30 1 15 31
M  V30 31 2 31 32
M  V30 32 1 32 5
M  V30 33 1 11 6
M  V30 34 1 32 12
M  V30 35 1 30 17
M  V30 36 1 28 21
M  V30 37 1 1 33
M  V30 38 1 1 34
M  V30 39 1 1 35
M  V30 40 1 2 36
M  V30 41 1 2 37
M  V30 42 1 3 38 CFG=1
M  V30 43 1 4 39
M  V30 44 1 4 40
M  V30 45 1 4 41
M  V30 46 1 7 42
M  V30 47 1 9 43
M  V30 48 1 10 44
M  V30 49 1 13 45
M  V30 50 1 16 46
M  V30 51 1 18 47
M  V30 52 1 19 48
M  V30 53 1 22 49
M  V30 54 1 22 50
M  V30 55 1 23 51
M  V30 56 1 23 52
M  V30 57 1 24 53
M  V30 58 1 25 54
M  V30 59 1 26 55
M  V30 60 1 26 56
M  V30 61 1 26 57
M  V30 62 1 27 58
M  V30 63 1 27 59
M  V30 64 1 28 60
M  V30 65 1 28 61
M  V30 END BOND
M  V30 END CTAB
M  END
>  <Dataset>  (805) 
ChEMBL_Kinases

>  <Ligand_Instance>  (805) 
nan

>  <PDB_ID>  (805) 
nan

>  <Standardized_SMILES>  (805) 
CC[C@@H](C)n1c2cnccc2c2cnc(Nc3ccc(N4CCC(NC)CC4)nn3)nc21

>  <Name>  (805) 
nan

>  <Pocket>  (805) 
nan

>  <ATP_Site>  (805) 
nan

>  <Peripheral>  (805) 
nan

>  <Num_H_Atoms_ProtBoundConf>  (805) 
nan

>  <Num_Resolved_Atoms>  (805) 
nan

>  <Num_Not_Resolved_Atoms>  (805) 
nan

$$$$
CHEMBL231141
     RDKit          3D

  0  0  0  0  0  0  0  0  0  0999 V3000
M  V30 BEGIN CTAB
M  V30 COUNTS 63 63 0 0 0
M  V30 BEGIN ATOM
M  V30 1 C 3.521170 -3.752155 4.887984 0
M  V30 2 C 2.726686 -2.576223 4.363489 0
M  V30 3 C 1.513846 -2.322749 5.204650 0
M  V30 4 C 3.652185 -1.402573 4.299173 0
M  V30 5 C 2.986151 -0.175171 3.796604 0
M  V30 6 O 2.296952 0.561283 4.573441 0
M  V30 7 O 3.127319 0.155045 2.469054 0
M  V30 8 C 2.533497 1.313920 1.870266 0
M  V30 9 C 2.876696 1.384249 0.395535 0
M  V30 10 C 4.370720 1.310532 0.196142 0
M  V30 11 O 5.017103 2.421831 0.737639 0
M  V30 12 O 2.296529 2.534737 -0.218022 0
M  V30 13 C 1.131156 2.195451 -0.852274 0
M  V30 14 O 0.229085 2.938377 -1.304331 0
M  V30 15 C 1.150266 0.739647 -0.898424 0
M  V30 16 C 0.183543 0.027785 -1.441537 0
M  V30 17 C -1.071630 0.405829 -2.096619 0
M  V30 18 C -2.312977 -0.148807 -1.307443 0
M  V30 19 C -3.549424 0.229310 -1.951627 0
M  V30 20 C -3.979318 -0.071116 -3.312564 0
M  V30 21 C -3.199576 0.406328 -4.483195 0
M  V30 22 C -4.350997 -1.516338 -3.546849 0
M  V30 23 C -1.978467 -1.405651 -0.668942 0
M  V30 24 C -2.866872 -2.192549 0.183385 0
M  V30 25 C -4.130080 -2.729242 -0.399136 0
M  V30 26 C -3.258183 -1.505600 1.489743 0
M  V30 27 O 2.310216 0.273524 -0.298093 0
M  V30 28 H 3.914666 -3.464091 5.878579 0
M  V30 29 H 2.847393 -4.645034 4.967732 0
M  V30 30 H 4.339557 -3.970953 4.156077 0
M  V30 31 H 2.380369 -2.808884 3.334754 0
M  V30 32 H 1.787027 -2.287827 6.261146 0
M  V30 33 H 0.843315 -3.208545 5.075253 0
M  V30 34 H 0.976617 -1.436139 4.837782 0
M  V30 35 H 4.513132 -1.648631 3.635850 0
M  V30 36 H 4.060395 -1.216934 5.335369 0
M  V30 37 H 1.438996 1.203848 2.013711 0
M  V30 38 H 2.881759 2.208941 2.400726 0
M  V30 39 H 4.731112 0.440814 0.781603 0
M  V30 40 H 4.622368 1.120229 -0.856564 0
M  V30 41 H 5.993056 2.331715 0.631618 0
M  V30 42 H 0.318340 -1.066095 -1.423275 0
M  V30 43 H -1.156371 1.481766 -2.247649 0
M  V30 44 H -1.136058 -0.017433 -3.143563 0
M  V30 45 H -2.274311 0.591423 -0.406408 0
M  V30 46 H -4.421191 0.081089 -1.276748 0
M  V30 47 H -3.514247 1.403603 -1.920233 0
M  V30 48 H -4.996818 0.436654 -3.423223 0
M  V30 49 H -2.666523 1.340164 -4.340991 0
M  V30 50 H -2.553363 -0.340831 -4.983263 0
M  V30 51 H -3.944650 0.646658 -5.308129 0
M  V30 52 H -3.531619 -2.210967 -3.372187 0
M  V30 53 H -5.182796 -1.790119 -2.871316 0
M  V30 54 H -4.796382 -1.648754 -4.576153 0
M  V30 55 H -1.071657 -1.178192 0.009775 0
M  V30 56 H -1.481911 -2.156894 -1.364028 0
M  V30 57 H -2.336570 -3.132302 0.580247 0
M  V30 58 H -4.522088 -3.586502 0.265015 0
M  V30 59 H -3.873951 -3.298433 -1.337553 0
M  V30 60 H -4.924553 -2.000852 -0.502008 0
M  V30 61 H -3.793969 -2.285705 2.072580 0
M  V30 62 H -3.976390 -0.686343 1.340908 0
M  V30 63 H -2.373748 -1.232686 2.106811 0
M  V30 END ATOM
M  V30 BEGIN BOND
M  V30 1 1 1 2
M  V30 2 1 2 3
M  V30 3 1 2 4
M  V30 4 1 4 5
M  V30 5 2 5 6
M  V30 6 1 5 7
M  V30 7 1 7 8
M  V30 8 1 8 9
M  V30 9 1 9 10
M  V30 10 1 10 11
M  V30 11 1 9 12
M  V30 12 1 12 13
M  V30 13 2 13 14
M  V30 14 1 13 15
M  V30 15 2 15 16
M  V30 16 1 16 17
M  V30 17 1 17 18
M  V30 18 1 18 19
M  V30 19 1 19 20
M  V30 20 1 20 21
M  V30 21 1 20 22
M  V30 22 1 18 23
M  V30 23 1 23 24
M  V30 24 1 24 25
M  V30 25 1 24 26
M  V30 26 1 15 27
M  V30 27 1 27 9
M  V30 28 1 1 28
M  V30 29 1 1 29
M  V30 30 1 1 30
M  V30 31 1 2 31
M  V30 32 1 3 32
M  V30 33 1 3 33
M  V30 34 1 3 34
M  V30 35 1 4 35
M  V30 36 1 4 36
M  V30 37 1 8 37
M  V30 38 1 8 38
M  V30 39 1 10 39
M  V30 40 1 10 40
M  V30 41 1 11 41
M  V30 42 1 16 42
M  V30 43 1 17 43
M  V30 44 1 17 44
M  V30 45 1 18 45
M  V30 46 1 19 46
M  V30 47 1 19 47
M  V30 48 1 20 48
M  V30 49 1 21 49
M  V30 50 1 21 50
M  V30 51 1 21 51
M  V30 52 1 22 52
M  V30 53 1 22 53
M  V30 54 1 22 54
M  V30 55 1 23 55
M  V30 56 1 23 56
M  V30 57 1 24 57
M  V30 58 1 25 58
M  V30 59 1 25 59
M  V30 60 1 25 60
M  V30 61 1 26 61
M  V30 62 1 26 62
M  V30 63 1 26 63
M  V30 END BOND
M  V30 END CTAB
M  END
>  <Dataset>  (806) 
ChEMBL_Kinases

>  <Ligand_Instance>  (806) 
nan

>  <PDB_ID>  (806) 
nan

>  <Standardized_SMILES>  (806) 
CC(C)CC(=O)OCC1(CO)OC(=O)/C(=C\CC(CC(C)C)CC(C)C)O1

>  <Name>  (806) 
nan

>  <Pocket>  (806) 
nan

>  <ATP_Site>  (806) 
nan

>  <Peripheral>  (806) 
nan

>  <Num_H_Atoms_ProtBoundConf>  (806) 
nan

>  <Num_Resolved_Atoms>  (806) 
nan

>  <Num_Not_Resolved_Atoms>  (806) 
nan

$$$$
CHEMBL3699765
     RDKit          3D

  0  0  0  0  0  0  0  0  0  0999 V3000
M  V30 BEGIN CTAB
M  V30 COUNTS 57 62 0 0 0
M  V30 BEGIN ATOM
M  V30 1 C 4.790600 -4.823262 0.278046 0
M  V30 2 C 4.050398 -3.539821 0.506938 0
M  V30 3 C 4.751365 -2.441240 0.971159 0
M  V30 4 C 4.079752 -1.244699 1.188102 0
M  V30 5 C 4.794566 -0.069498 1.677293 0
M  V30 6 C 6.148479 -0.027401 1.960666 0
M  V30 7 C 6.494189 1.240366 2.402878 0
M  V30 8 N 5.341725 1.943487 2.379133 0
M  V30 9 N 4.363940 1.173563 1.956871 0
M  V30 10 C 2.722522 -1.169403 0.937189 0
M  V30 11 N 1.805126 -0.179657 1.043880 0
M  V30 12 C 0.597524 -0.613974 0.673069 0
M  V30 13 C -0.711324 0.030942 0.599497 0
M  V30 14 C -1.389033 0.576354 1.672287 0
M  V30 15 C -2.632810 1.170515 1.506866 0
M  V30 16 C -3.228753 1.228362 0.237720 0
M  V30 17 C -4.543044 1.881595 0.197136 0
M  V30 18 N -5.371885 1.627355 1.387763 0
M  V30 19 C -4.552101 3.373072 -0.048573 0
M  V30 20 C -5.900689 3.136528 -0.742191 0
M  V30 21 C -5.387517 1.715898 -1.017733 0
M  V30 22 C -2.541560 0.679593 -0.827851 0
M  V30 23 C -1.303604 0.088233 -0.663191 0
M  V30 24 C 0.760059 -1.939453 0.315651 0
M  V30 25 C -0.279872 -2.873695 -0.168820 0
M  V30 26 C 0.030295 -3.304274 -1.439012 0
M  V30 27 C -0.817057 -4.197642 -2.098015 0
M  V30 28 C -1.961560 -4.633050 -1.449376 0
M  V30 29 C -2.248226 -4.182960 -0.171360 0
M  V30 30 C -1.419540 -3.306398 0.478803 0
M  V30 31 N 2.067588 -2.274073 0.480373 0
M  V30 32 C 2.695193 -3.445904 0.261882 0
M  V30 33 H 4.086840 -5.694597 0.308579 0
M  V30 34 H 5.309779 -4.851142 -0.682641 0
M  V30 35 H 5.485765 -5.012365 1.142512 0
M  V30 36 H 5.826404 -2.530839 1.160808 0
M  V30 37 H 6.806760 -0.875268 1.843181 0
M  V30 38 H 7.511938 1.475576 2.676060 0
M  V30 39 H 3.361744 1.462202 1.841283 0
M  V30 40 H -0.910282 0.519873 2.640757 0
M  V30 41 H -3.071693 1.566840 2.426956 0
M  V30 42 H -5.031980 2.261908 2.164595 0
M  V30 43 H -5.307193 0.644438 1.699399 0
M  V30 44 H -4.738386 3.980652 0.861667 0
M  V30 45 H -3.795196 3.746153 -0.755166 0
M  V30 46 H -6.736676 3.028638 -0.010763 0
M  V30 47 H -6.084791 3.730375 -1.637548 0
M  V30 48 H -4.916806 1.723873 -2.002439 0
M  V30 49 H -6.151249 0.920916 -0.873174 0
M  V30 50 H -3.048235 0.756067 -1.765825 0
M  V30 51 H -0.809600 -0.328001 -1.544065 0
M  V30 52 H 0.879579 -3.043268 -2.044265 0
M  V30 53 H -0.634801 -4.579394 -3.100434 0
M  V30 54 H -2.675248 -5.327538 -1.889319 0
M  V30 55 H -3.127720 -4.490426 0.380827 0
M  V30 56 H -1.526309 -2.882837 1.465597 0
M  V30 57 H 2.154624 -4.315047 -0.102569 0
M  V30 END ATOM
M  V30 BEGIN BOND
M  V30 1 1 1 2
M  V30 2 1 2 3
M  V30 3 2 3 4
M  V30 4 1 4 5
M  V30 5 2 5 6
M  V30 6 1 6 7
M  V30 7 2 7 8
M  V30 8 1 8 9
M  V30 9 1 4 10
M  V30 10 2 10 11
M  V30 11 1 11 12
M  V30 12 1 12 13
M  V30 13 2 13 14
M  V30 14 1 14 15
M  V30 15 2 15 16
M  V30 16 1 16 17
M  V30 17 1 17 18
M  V30 18 1 17 19
M  V30 19 1 19 20
M  V30 20 1 20 21
M  V30 21 1 16 22
M  V30 22 2 22 23
M  V30 23 2 12 24
M  V30 24 1 24 25
M  V30 25 2 25 26
M  V30 26 1 26 27
M  V30 27 2 27 28
M  V30 28 1 28 29
M  V30 29 2 29 30
M  V30 30 1 24 31
M  V30 31 1 31 32
M  V30 32 2 32 2
M  V30 33 1 9 5
M  V30 34 1 31 10
M  V30 35 1 23 13
M  V30 36 1 30 25
M  V30 37 1 21 17
M  V30 38 1 1 33
M  V30 39 1 1 34
M  V30 40 1 1 35
M  V30 41 1 3 36
M  V30 42 1 6 37
M  V30 43 1 7 38
M  V30 44 1 9 39
M  V30 45 1 14 40
M  V30 46 1 15 41
M  V30 47 1 18 42
M  V30 48 1 18 43
M  V30 49 1 19 44
M  V30 50 1 19 45
M  V30 51 1 20 46
M  V30 52 1 20 47
M  V30 53 1 21 48
M  V30 54 1 21 49
M  V30 55 1 22 50
M  V30 56 1 23 51
M  V30 57 1 26 52
M  V30 58 1 27 53
M  V30 59 1 28 54
M  V30 60 1 29 55
M  V30 61 1 30 56
M  V30 62 1 32 57
M  V30 END BOND
M  V30 END CTAB
M  END
>  <Dataset>  (807) 
ChEMBL_Kinases

>  <Ligand_Instance>  (807) 
nan

>  <PDB_ID>  (807) 
nan

>  <Standardized_SMILES>  (807) 
Cc1cc(-c2ccn[nH]2)c2nc(-c3ccc(C4(N)CCC4)cc3)c(-c3ccccc3)n2c1

>  <Name>  (807) 
nan

>  <Pocket>  (807) 
nan

>  <ATP_Site>  (807) 
nan

>  <Peripheral>  (807) 
nan

>  <Num_H_Atoms_ProtBoundConf>  (807) 
nan

>  <Num_Resolved_Atoms>  (807) 
nan

>  <Num_Not_Resolved_Atoms>  (807) 
nan

$$$$
CHEMBL3702219
     RDKit          3D

  0  0  0  0  0  0  0  0  0  0999 V3000
M  V30 BEGIN CTAB
M  V30 COUNTS 54 58 0 0 0
M  V30 BEGIN ATOM
M  V30 1 C 2.867558 -2.625857 3.655271 0
M  V30 2 C 3.097537 -1.233820 3.103766 0
M  V30 3 C 2.422175 -1.079431 1.766912 0 CFG=1
M  V30 4 C 0.940792 -1.328740 1.980311 0
M  V30 5 N 2.665680 0.238119 1.213371 0
M  V30 6 C 3.772469 0.798150 0.697946 0
M  V30 7 C 5.041247 0.277492 0.542382 0
M  V30 8 N 5.975356 1.091991 -0.020754 0
M  V30 9 C 5.672772 2.339853 -0.405217 0
M  V30 10 C 4.416786 2.906999 -0.270121 0
M  V30 11 C 3.467542 2.097481 0.295771 0
M  V30 12 C 2.141366 2.332138 0.575549 0
M  V30 13 C 1.250415 3.373374 0.430657 0
M  V30 14 N -0.045933 3.329497 0.806497 0
M  V30 15 C -0.504580 2.184187 1.364229 0
M  V30 16 N -1.741101 1.665979 1.884875 0
M  V30 17 C -2.392759 0.676764 1.074555 0
M  V30 18 C -3.551049 0.094172 1.487801 0
M  V30 19 C -4.231481 -0.873340 0.782698 0
M  V30 20 C -3.665462 -1.245815 -0.417772 0
M  V30 21 N -4.162503 -2.253432 -1.324509 0
M  V30 22 C -3.943085 -2.286031 -2.784759 0
M  V30 23 C -3.178648 -3.614220 -2.873832 0
M  V30 24 C -3.845716 -4.462795 -1.776530 0 CFG=1
M  V30 25 O -2.945595 -4.661870 -0.730340 0
M  V30 26 C -4.942937 -3.506208 -1.270049 0
M  V30 27 N -2.520167 -0.668827 -0.828396 0
M  V30 28 N -1.919022 0.250524 -0.105810 0
M  V30 29 N 0.340448 1.144913 1.519480 0
M  V30 30 C 1.660159 1.172474 1.143142 0
M  V30 31 H 2.596437 -3.352348 2.844149 0
M  V30 32 H 3.799043 -3.057527 4.111516 0
M  V30 33 H 2.067843 -2.632286 4.453745 0
M  V30 34 H 2.616599 -0.521270 3.836965 0
M  V30 35 H 4.152517 -0.942115 3.048081 0
M  V30 36 H 2.777079 -1.892265 1.087645 0
M  V30 37 H 0.864403 -2.435134 2.188032 0
M  V30 38 H 0.322677 -1.170284 1.086175 0
M  V30 39 H 0.560656 -0.791491 2.854545 0
M  V30 40 H 5.264404 -0.740974 0.864347 0
M  V30 41 H 6.416424 3.008887 -0.860500 0
M  V30 42 H 4.178076 3.915092 -0.582497 0
M  V30 43 H 1.585463 4.295813 -0.006865 0
M  V30 44 H -2.162834 1.960304 2.770507 0
M  V30 45 H -3.971945 0.409722 2.433095 0
M  V30 46 H -5.132952 -1.363106 1.047466 0
M  V30 47 H -4.900209 -2.362097 -3.320033 0
M  V30 48 H -3.266309 -1.494554 -3.099883 0
M  V30 49 H -3.320903 -4.098279 -3.858164 0
M  V30 50 H -2.105003 -3.491432 -2.673807 0
M  V30 51 H -4.257430 -5.398820 -2.171580 0
M  V30 52 H -3.312063 -4.299722 0.123405 0
M  V30 53 H -5.265758 -3.774293 -0.268596 0
M  V30 54 H -5.757525 -3.428995 -2.016171 0
M  V30 END ATOM
M  V30 BEGIN BOND
M  V30 1 1 1 2
M  V30 2 1 2 3
M  V30 3 1 3 4
M  V30 4 1 3 5
M  V30 5 1 5 6
M  V30 6 2 6 7
M  V30 7 1 7 8
M  V30 8 2 8 9
M  V30 9 1 9 10
M  V30 10 2 10 11
M  V30 11 1 11 12
M  V30 12 2 12 13
M  V30 13 1 13 14
M  V30 14 2 14 15
M  V30 15 1 15 16
M  V30 16 1 16 17
M  V30 17 2 17 18
M  V30 18 1 18 19
M  V30 19 2 19 20
M  V30 20 1 20 21
M  V30 21 1 21 22
M  V30 22 1 22 23
M  V30 23 1 23 24
M  V30 24 1 24 25
M  V30 25 1 24 26
M  V30 26 1 20 27
M  V30 27 2 27 28
M  V30 28 1 15 29
M  V30 29 2 29 30
M  V30 30 1 30 5
M  V30 31 1 11 6
M  V30 32 1 30 12
M  V30 33 1 28 17
M  V30 34 1 26 21
M  V30 35 1 1 31
M  V30 36 1 1 32
M  V30 37 1 1 33
M  V30 38 1 2 34
M  V30 39 1 2 35
M  V30 40 1 3 36 CFG=3
M  V30 41 1 4 37
M  V30 42 1 4 38
M  V30 43 1 4 39
M  V30 44 1 7 40
M  V30 45 1 9 41
M  V30 46 1 10 42
M  V30 47 1 13 43
M  V30 48 1 16 44
M  V30 49 1 18 45
M  V30 50 1 19 46
M  V30 51 1 22 47
M  V30 52 1 22 48
M  V30 53 1 23 49
M  V30 54 1 23 50
M  V30 55 1 24 51 CFG=3
M  V30 56 1 25 52
M  V30 57 1 26 53
M  V30 58 1 26 54
M  V30 END BOND
M  V30 END CTAB
M  END
>  <Dataset>  (808) 
ChEMBL_Kinases

>  <Ligand_Instance>  (808) 
nan

>  <PDB_ID>  (808) 
nan

>  <Standardized_SMILES>  (808) 
CC[C@@H](C)n1c2cnccc2c2cnc(Nc3ccc(N4CC[C@@H](O)C4)nn3)nc21

>  <Name>  (808) 
nan

>  <Pocket>  (808) 
nan

>  <ATP_Site>  (808) 
nan

>  <Peripheral>  (808) 
nan

>  <Num_H_Atoms_ProtBoundConf>  (808) 
nan

>  <Num_Resolved_Atoms>  (808) 
nan

>  <Num_Not_Resolved_Atoms>  (808) 
nan

$$$$
CHEMBL2295954
     RDKit          3D

  0  0  0  0  0  0  0  0  0  0999 V3000
M  V30 BEGIN CTAB
M  V30 COUNTS 60 63 0 0 0
M  V30 BEGIN ATOM
M  V30 1 C 2.845794 0.450777 3.470533 0
M  V30 2 C 3.711629 -0.643316 2.926167 0
M  V30 3 C 5.026858 -0.672378 3.665545 0
M  V30 4 C 3.939179 -0.529327 1.425699 0
M  V30 5 C 2.604632 -0.614032 0.730649 0 CFG=1
M  V30 6 O 1.815715 0.444560 1.197921 0
M  V30 7 N 2.753214 -0.429574 -0.714073 0
M  V30 8 C 1.476656 -0.572767 -1.311100 0
M  V30 9 N 0.561255 0.436308 -1.316780 0
M  V30 10 C -0.650742 0.226709 -1.908623 0
M  V30 11 N -1.747849 1.119391 -2.036795 0
M  V30 12 C -2.399436 1.098200 -0.747556 0
M  V30 13 C -1.697378 1.418930 0.409455 0
M  V30 14 C -2.271519 1.394232 1.672840 0
M  V30 15 C -3.597686 1.030843 1.749690 0
M  V30 16 C -4.332825 0.972515 3.019234 0
M  V30 17 C -5.668025 1.192065 3.247306 0
M  V30 18 N -6.164232 1.099555 4.486665 0
M  V30 19 C -5.383155 0.789295 5.562169 0
M  V30 20 N -4.071194 0.570903 5.355364 0
M  V30 21 C -3.530923 0.656416 4.102857 0
M  V30 22 C -4.348373 0.699775 0.621687 0
M  V30 23 C -3.748335 0.734815 -0.623296 0
M  V30 24 C -0.857393 -1.038314 -2.476475 0
M  V30 25 N -1.919313 -1.558015 -3.126851 0
M  V30 26 C -1.651710 -2.819048 -3.496030 0
M  V30 27 N -0.399868 -3.148551 -3.089770 0
M  V30 28 C 0.404845 -4.370703 -3.227402 0
M  V30 29 C 1.448941 -4.176991 -4.309812 0
M  V30 30 C 1.045619 -4.771751 -1.921454 0
M  V30 31 C 0.093924 -2.065437 -2.464446 0
M  V30 32 N 1.250766 -1.776703 -1.863824 0
M  V30 33 H 1.796516 0.103611 3.463800 0
M  V30 34 H 3.173604 0.631454 4.539284 0
M  V30 35 H 2.958699 1.424168 2.971436 0
M  V30 36 H 3.233576 -1.647876 3.091702 0
M  V30 37 H 5.718114 -1.427507 3.226289 0
M  V30 38 H 4.821111 -1.042061 4.698746 0
M  V30 39 H 5.509920 0.314921 3.751450 0
M  V30 40 H 4.493580 0.391565 1.191402 0
M  V30 41 H 4.570747 -1.425024 1.152740 0
M  V30 42 H 2.103255 -1.571312 0.890686 0
M  V30 43 H 2.002970 1.270653 0.677313 0
M  V30 44 H 3.433812 -0.233685 -1.477654 0
M  V30 45 H -2.050469 1.684286 -2.874885 0
M  V30 46 H -0.646334 1.701506 0.310270 0
M  V30 47 H -1.719027 1.646860 2.577478 0
M  V30 48 H -6.220597 1.429927 2.351094 0
M  V30 49 H -5.853404 0.731667 6.554340 0
M  V30 50 H -2.449501 0.448118 4.131605 0
M  V30 51 H -5.403673 0.408090 0.669677 0
M  V30 52 H -4.235781 0.497909 -1.564539 0
M  V30 53 H -2.219728 -3.586732 -4.032088 0
M  V30 54 H -0.256161 -5.194508 -3.567593 0
M  V30 55 H 1.515456 -3.088369 -4.503952 0
M  V30 56 H 1.153274 -4.670755 -5.241012 0
M  V30 57 H 2.399029 -4.592684 -3.925321 0
M  V30 58 H 2.112350 -4.520439 -1.982145 0
M  V30 59 H 0.948140 -5.885934 -1.760856 0
M  V30 60 H 0.528123 -4.291196 -1.063885 0
M  V30 END ATOM
M  V30 BEGIN BOND
M  V30 1 1 1 2
M  V30 2 1 2 3
M  V30 3 1 2 4
M  V30 4 1 4 5
M  V30 5 1 5 6
M  V30 6 1 5 7
M  V30 7 1 7 8
M  V30 8 2 8 9
M  V30 9 1 9 10
M  V30 10 1 10 11
M  V30 11 1 11 12
M  V30 12 2 12 13
M  V30 13 1 13 14
M  V30 14 2 14 15
M  V30 15 1 15 16
M  V30 16 2 16 17
M  V30 17 1 17 18
M  V30 18 2 18 19
M  V30 19 1 19 20
M  V30 20 2 20 21
M  V30 21 1 15 22
M  V30 22 2 22 23
M  V30 23 2 10 24
M  V30 24 1 24 25
M  V30 25 2 25 26
M  V30 26 1 26 27
M  V30 27 1 27 28
M  V30 28 1 28 29
M  V30 29 1 28 30
M  V30 30 1 27 31
M  V30 31 2 31 32
M  V30 32 1 32 8
M  V30 33 1 23 12
M  V30 34 1 31 24
M  V30 35 1 21 16
M  V30 36 1 1 33
M  V30 37 1 1 34
M  V30 38 1 1 35
M  V30 39 1 2 36
M  V30 40 1 3 37
M  V30 41 1 3 38
M  V30 42 1 3 39
M  V30 43 1 4 40
M  V30 44 1 4 41
M  V30 45 1 5 42 CFG=3
M  V30 46 1 6 43
M  V30 47 1 7 44
M  V30 48 1 11 45
M  V30 49 1 13 46
M  V30 50 1 14 47
M  V30 51 1 17 48
M  V30 52 1 19 49
M  V30 53 1 21 50
M  V30 54 1 22 51
M  V30 55 1 23 52
M  V30 56 1 26 53
M  V30 57 1 28 54
M  V30 58 1 29 55
M  V30 59 1 29 56
M  V30 60 1 29 57
M  V30 61 1 30 58
M  V30 62 1 30 59
M  V30 63 1 30 60
M  V30 END BOND
M  V30 END CTAB
M  END
>  <Dataset>  (809) 
ChEMBL_Kinases

>  <Ligand_Instance>  (809) 
nan

>  <PDB_ID>  (809) 
nan

>  <Standardized_SMILES>  (809) 
CC(C)C[C@@H](O)Nc1nc(Nc2ccc(-c3cncnc3)cc2)c2ncn(C(C)C)c2n1

>  <Name>  (809) 
nan

>  <Pocket>  (809) 
nan

>  <ATP_Site>  (809) 
nan

>  <Peripheral>  (809) 
nan

>  <Num_H_Atoms_ProtBoundConf>  (809) 
nan

>  <Num_Resolved_Atoms>  (809) 
nan

>  <Num_Not_Resolved_Atoms>  (809) 
nan

$$$$
CHEMBL2295955
     RDKit          3D

  0  0  0  0  0  0  0  0  0  0999 V3000
M  V30 BEGIN CTAB
M  V30 COUNTS 60 63 0 0 0
M  V30 BEGIN ATOM
M  V30 1 C 2.118407 0.278444 2.614247 0
M  V30 2 C 2.717888 -0.727482 1.648150 0
M  V30 3 C 3.224374 -1.895337 2.476816 0
M  V30 4 C 3.894404 -0.150078 0.908816 0
M  V30 5 C 3.548307 1.070045 0.088541 0 CFG=2
M  V30 6 O 3.037667 2.118386 0.811120 0
M  V30 7 N 2.811845 0.739058 -1.109536 0
M  V30 8 C 1.604129 0.076643 -1.444069 0
M  V30 9 N 0.436276 0.741179 -1.457533 0
M  V30 10 C -0.721659 0.094345 -1.777586 0
M  V30 11 N -2.014917 0.684084 -1.827069 0
M  V30 12 C -2.709736 0.708144 -0.582816 0
M  V30 13 C -2.081606 0.204626 0.562475 0
M  V30 14 C -2.738746 0.218866 1.800553 0
M  V30 15 C -4.015362 0.732717 1.894295 0
M  V30 16 C -4.612982 0.704869 3.231918 0
M  V30 17 C -5.524860 1.686160 3.633669 0
M  V30 18 N -6.034271 1.594945 4.886206 0
M  V30 19 C -5.696642 0.603510 5.747657 0
M  V30 20 N -4.812416 -0.342084 5.348499 0
M  V30 21 C -4.276433 -0.300807 4.118495 0
M  V30 22 C -4.671310 1.243823 0.766864 0
M  V30 23 C -3.996955 1.217615 -0.447977 0
M  V30 24 C -0.619076 -1.262418 -2.081822 0
M  V30 25 N -1.530872 -2.182068 -2.430006 0
M  V30 26 C -0.920397 -3.369644 -2.620797 0
M  V30 27 N 0.397265 -3.233635 -2.397981 0
M  V30 28 C 1.412974 -4.282879 -2.498519 0
M  V30 29 C 2.349836 -4.076239 -3.649126 0
M  V30 30 C 2.182180 -4.384474 -1.189532 0
M  V30 31 C 0.592050 -1.948621 -2.067626 0
M  V30 32 N 1.683468 -1.237570 -1.741908 0
M  V30 33 H 1.516391 -0.260890 3.374707 0
M  V30 34 H 2.937172 0.818888 3.132647 0
M  V30 35 H 1.404894 0.965041 2.087994 0
M  V30 36 H 1.910269 -1.097445 1.018453 0
M  V30 37 H 2.422268 -2.147600 3.199659 0
M  V30 38 H 3.456752 -2.774929 1.840128 0
M  V30 39 H 4.098941 -1.561218 3.057235 0
M  V30 40 H 4.682298 0.080273 1.652510 0
M  V30 41 H 4.282746 -0.925281 0.236859 0
M  V30 42 H 4.551589 1.438204 -0.299199 0
M  V30 43 H 3.743680 2.642166 1.239892 0
M  V30 44 H 3.125332 0.990215 -2.094829 0
M  V30 45 H -2.484034 1.086560 -2.666636 0
M  V30 46 H -1.068225 -0.215240 0.544876 0
M  V30 47 H -2.194960 -0.190181 2.658640 0
M  V30 48 H -5.810521 2.492330 2.957889 0
M  V30 49 H -6.211424 0.716592 6.684256 0
M  V30 50 H -3.578906 -1.089929 3.874828 0
M  V30 51 H -5.662271 1.632001 0.887964 0
M  V30 52 H -4.475976 1.604216 -1.336487 0
M  V30 53 H -1.455337 -4.279211 -2.912119 0
M  V30 54 H 0.915617 -5.254402 -2.637047 0
M  V30 55 H 2.285395 -4.849209 -4.439537 0
M  V30 56 H 2.088338 -3.096449 -4.108620 0
M  V30 57 H 3.408655 -4.072559 -3.292626 0
M  V30 58 H 2.608952 -5.399421 -1.132911 0
M  V30 59 H 1.430232 -4.292523 -0.365377 0
M  V30 60 H 2.995977 -3.629087 -1.112697 0
M  V30 END ATOM
M  V30 BEGIN BOND
M  V30 1 1 1 2
M  V30 2 1 2 3
M  V30 3 1 2 4
M  V30 4 1 4 5
M  V30 5 1 5 6
M  V30 6 1 5 7
M  V30 7 1 7 8
M  V30 8 2 8 9
M  V30 9 1 9 10
M  V30 10 1 10 11
M  V30 11 1 11 12
M  V30 12 2 12 13
M  V30 13 1 13 14
M  V30 14 2 14 15
M  V30 15 1 15 16
M  V30 16 2 16 17
M  V30 17 1 17 18
M  V30 18 2 18 19
M  V30 19 1 19 20
M  V30 20 2 20 21
M  V30 21 1 15 22
M  V30 22 2 22 23
M  V30 23 2 10 24
M  V30 24 1 24 25
M  V30 25 2 25 26
M  V30 26 1 26 27
M  V30 27 1 27 28
M  V30 28 1 28 29
M  V30 29 1 28 30
M  V30 30 1 27 31
M  V30 31 2 31 32
M  V30 32 1 32 8
M  V30 33 1 23 12
M  V30 34 1 31 24
M  V30 35 1 21 16
M  V30 36 1 1 33
M  V30 37 1 1 34
M  V30 38 1 1 35
M  V30 39 1 2 36
M  V30 40 1 3 37
M  V30 41 1 3 38
M  V30 42 1 3 39
M  V30 43 1 4 40
M  V30 44 1 4 41
M  V30 45 1 5 42 CFG=3
M  V30 46 1 6 43
M  V30 47 1 7 44
M  V30 48 1 11 45
M  V30 49 1 13 46
M  V30 50 1 14 47
M  V30 51 1 17 48
M  V30 52 1 19 49
M  V30 53 1 21 50
M  V30 54 1 22 51
M  V30 55 1 23 52
M  V30 56 1 26 53
M  V30 57 1 28 54
M  V30 58 1 29 55
M  V30 59 1 29 56
M  V30 60 1 29 57
M  V30 61 1 30 58
M  V30 62 1 30 59
M  V30 63 1 30 60
M  V30 END BOND
M  V30 END CTAB
M  END
>  <Dataset>  (810) 
ChEMBL_Kinases

>  <Ligand_Instance>  (810) 
nan

>  <PDB_ID>  (810) 
nan

>  <Standardized_SMILES>  (810) 
CC(C)C[C@H](O)Nc1nc(Nc2ccc(-c3cncnc3)cc2)c2ncn(C(C)C)c2n1

>  <Name>  (810) 
nan

>  <Pocket>  (810) 
nan

>  <ATP_Site>  (810) 
nan

>  <Peripheral>  (810) 
nan

>  <Num_H_Atoms_ProtBoundConf>  (810) 
nan

>  <Num_Resolved_Atoms>  (810) 
nan

>  <Num_Not_Resolved_Atoms>  (810) 
nan

$$$$
CHEMBL2295956
     RDKit          3D

  0  0  0  0  0  0  0  0  0  0999 V3000
M  V30 BEGIN CTAB
M  V30 COUNTS 63 66 0 0 0
M  V30 BEGIN ATOM
M  V30 1 C 2.496442 -1.487234 4.607232 0
M  V30 2 C 2.431295 -2.841754 3.955913 0
M  V30 3 C 2.348302 -3.914756 4.987842 0
M  V30 4 C 1.250012 -2.872485 2.990936 0
M  V30 5 C -0.042269 -2.621384 3.678925 0
M  V30 6 C -1.265523 -2.675536 2.810540 0 CFG=2
M  V30 7 O -1.390253 -3.959947 2.222960 0
M  V30 8 N -1.339094 -1.717896 1.762777 0
M  V30 9 C -0.656481 -1.693092 0.501178 0
M  V30 10 N -0.784404 -0.630425 -0.299281 0
M  V30 11 C -0.238094 -0.464067 -1.503344 0
M  V30 12 N -0.388967 0.662308 -2.330315 0
M  V30 13 C -1.143631 1.845081 -2.126219 0
M  V30 14 C -1.997979 1.987206 -1.031283 0
M  V30 15 C -2.691590 3.175781 -0.906424 0
M  V30 16 C -2.619991 4.244463 -1.768160 0
M  V30 17 C -3.406623 5.447870 -1.526462 0
M  V30 18 C -3.640076 5.757138 -0.202334 0
M  V30 19 N -4.365697 6.864017 0.133063 0
M  V30 20 C -4.852421 7.653771 -0.867340 0
M  V30 21 N -4.629855 7.360801 -2.174569 0
M  V30 22 C -3.914787 6.270576 -2.524029 0
M  V30 23 C -1.770545 4.076468 -2.837366 0
M  V30 24 C -1.063262 2.908803 -2.996066 0
M  V30 25 C 0.533915 -1.518002 -1.939856 0
M  V30 26 N 1.225177 -1.718098 -3.061576 0
M  V30 27 C 1.826513 -2.919264 -3.028694 0
M  V30 28 N 1.502749 -3.487764 -1.854297 0
M  V30 29 C 1.892648 -4.782610 -1.330843 0
M  V30 30 C 2.989472 -4.600106 -0.330963 0
M  V30 31 C 0.725990 -5.499934 -0.692198 0
M  V30 32 C 0.712101 -2.645379 -1.172210 0
M  V30 33 N 0.108179 -2.680832 0.013704 0
M  V30 34 H 1.634959 -1.313636 5.274893 0
M  V30 35 H 2.377031 -0.737204 3.773989 0
M  V30 36 H 3.454113 -1.337646 5.141495 0
M  V30 37 H 3.364205 -2.977820 3.371413 0
M  V30 38 H 2.007333 -3.528420 5.983996 0
M  V30 39 H 3.364540 -4.323309 5.172201 0
M  V30 40 H 1.732419 -4.796803 4.695105 0
M  V30 41 H 1.293020 -3.801692 2.408864 0
M  V30 42 H 1.402531 -2.010586 2.270212 0
M  V30 43 H -0.176175 -3.308016 4.566255 0
M  V30 44 H -0.058860 -1.598623 4.158279 0
M  V30 45 H -2.174950 -2.588390 3.456326 0
M  V30 46 H -1.711094 -4.566243 2.935834 0
M  V30 47 H -1.991695 -0.900238 1.937607 0
M  V30 48 H 0.124791 0.653250 -3.247042 0
M  V30 49 H -2.150114 1.234497 -0.285447 0
M  V30 50 H -3.363534 3.291894 -0.049181 0
M  V30 51 H -3.307377 5.209875 0.669138 0
M  V30 52 H -5.434022 8.542470 -0.602799 0
M  V30 53 H -3.707837 5.991221 -3.559626 0
M  V30 54 H -1.668040 4.880266 -3.555630 0
M  V30 55 H -0.405993 2.849222 -3.871737 0
M  V30 56 H 2.469337 -3.415150 -3.766659 0
M  V30 57 H 2.259998 -5.389379 -2.203298 0
M  V30 58 H 2.692701 -3.746186 0.318856 0
M  V30 59 H 3.886605 -4.233396 -0.883289 0
M  V30 60 H 3.186450 -5.503519 0.278119 0
M  V30 61 H 0.982609 -6.579528 -0.672691 0
M  V30 62 H -0.227786 -5.326583 -1.209564 0
M  V30 63 H 0.648119 -5.126614 0.353431 0
M  V30 END ATOM
M  V30 BEGIN BOND
M  V30 1 1 1 2
M  V30 2 1 2 3
M  V30 3 1 2 4
M  V30 4 1 4 5
M  V30 5 1 5 6
M  V30 6 1 6 7
M  V30 7 1 6 8
M  V30 8 1 8 9
M  V30 9 2 9 10
M  V30 10 1 10 11
M  V30 11 1 11 12
M  V30 12 1 12 13
M  V30 13 2 13 14
M  V30 14 1 14 15
M  V30 15 2 15 16
M  V30 16 1 16 17
M  V30 17 2 17 18
M  V30 18 1 18 19
M  V30 19 2 19 20
M  V30 20 1 20 21
M  V30 21 2 21 22
M  V30 22 1 16 23
M  V30 23 2 23 24
M  V30 24 2 11 25
M  V30 25 1 25 26
M  V30 26 2 26 27
M  V30 27 1 27 28
M  V30 28 1 28 29
M  V30 29 1 29 30
M  V30 30 1 29 31
M  V30 31 1 28 32
M  V30 32 2 32 33
M  V30 33 1 33 9
M  V30 34 1 24 13
M  V30 35 1 32 25
M  V30 36 1 22 17
M  V30 37 1 1 34
M  V30 38 1 1 35
M  V30 39 1 1 36
M  V30 40 1 2 37
M  V30 41 1 3 38
M  V30 42 1 3 39
M  V30 43 1 3 40
M  V30 44 1 4 41
M  V30 45 1 4 42
M  V30 46 1 5 43
M  V30 47 1 5 44
M  V30 48 1 6 45 CFG=1
M  V30 49 1 7 46
M  V30 50 1 8 47
M  V30 51 1 12 48
M  V30 52 1 14 49
M  V30 53 1 15 50
M  V30 54 1 18 51
M  V30 55 1 20 52
M  V30 56 1 22 53
M  V30 57 1 23 54
M  V30 58 1 24 55
M  V30 59 1 27 56
M  V30 60 1 29 57
M  V30 61 1 30 58
M  V30 62 1 30 59
M  V30 63 1 30 60
M  V30 64 1 31 61
M  V30 65 1 31 62
M  V30 66 1 31 63
M  V30 END BOND
M  V30 END CTAB
M  END
>  <Dataset>  (811) 
ChEMBL_Kinases

>  <Ligand_Instance>  (811) 
nan

>  <PDB_ID>  (811) 
nan

>  <Standardized_SMILES>  (811) 
CC(C)CC[C@H](O)Nc1nc(Nc2ccc(-c3cncnc3)cc2)c2ncn(C(C)C)c2n1

>  <Name>  (811) 
nan

>  <Pocket>  (811) 
nan

>  <ATP_Site>  (811) 
nan

>  <Peripheral>  (811) 
nan

>  <Num_H_Atoms_ProtBoundConf>  (811) 
nan

>  <Num_Resolved_Atoms>  (811) 
nan

>  <Num_Not_Resolved_Atoms>  (811) 
nan

$$$$
CHEMBL2295957
     RDKit          3D

  0  0  0  0  0  0  0  0  0  0999 V3000
M  V30 BEGIN CTAB
M  V30 COUNTS 55 58 0 0 0
M  V30 BEGIN ATOM
M  V30 1 C 2.665946 -3.032083 4.628883 0
M  V30 2 C 2.985424 -3.362635 3.186127 0
M  V30 3 C 2.229814 -4.600326 2.767862 0
M  V30 4 N 2.777596 -2.252353 2.288901 0
M  V30 5 C 3.231371 -1.041505 2.613903 0
M  V30 6 N 2.921673 -0.175087 1.625595 0
M  V30 7 C 2.266653 -0.821147 0.657452 0
M  V30 8 C 1.709284 -0.465031 -0.578992 0
M  V30 9 N 1.866835 0.916785 -0.876502 0
M  V30 10 C 0.786448 1.855930 -0.704293 0
M  V30 11 C 0.875808 3.228656 -0.781298 0
M  V30 12 C -0.268005 4.005934 -0.612640 0
M  V30 13 C -1.508983 3.401056 -0.365361 0
M  V30 14 C -2.683259 4.289088 -0.194896 0
M  V30 15 C -2.784899 5.499814 -0.855154 0
M  V30 16 N -3.928543 6.226191 -0.610758 0
M  V30 17 C -4.850765 5.693044 0.252408 0
M  V30 18 N -4.749614 4.510043 0.896678 0
M  V30 19 C -3.631106 3.750132 0.687127 0
M  V30 20 C -1.627633 2.019999 -0.282590 0
M  V30 21 C -0.457644 1.312483 -0.458699 0
M  V30 22 N 1.108862 -1.433877 -1.298422 0
M  V30 23 C 1.069994 -2.679101 -0.807357 0
M  V30 24 N 0.414188 -3.644346 -1.604803 0
M  V30 25 C -0.830527 -4.250142 -1.948704 0
M  V30 26 O -1.617580 -3.222404 -2.531264 0
M  V30 27 C -1.652601 -4.697004 -0.746069 0
M  V30 28 C -2.033805 -3.577612 0.170132 0
M  V30 29 O -2.781144 -4.082444 1.257987 0
M  V30 30 N 1.590765 -3.103774 0.388484 0
M  V30 31 C 2.190394 -2.118403 1.098809 0
M  V30 32 H 1.596838 -3.160249 4.885781 0
M  V30 33 H 3.313631 -3.620493 5.318237 0
M  V30 34 H 2.942141 -1.966612 4.792017 0
M  V30 35 H 4.073524 -3.615152 3.139070 0
M  V30 36 H 2.776023 -5.159287 1.979692 0
M  V30 37 H 2.132898 -5.263509 3.651242 0
M  V30 38 H 1.193317 -4.325357 2.461111 0
M  V30 39 H 3.774661 -0.619301 3.471267 0
M  V30 40 H 2.745722 1.385312 -1.236463 0
M  V30 41 H 1.869595 3.609119 -0.974346 0
M  V30 42 H -0.109595 5.068729 -0.687165 0
M  V30 43 H -1.949237 5.707840 -1.473961 0
M  V30 44 H -5.700885 6.389047 0.340025 0
M  V30 45 H -3.532095 2.817792 1.181705 0
M  V30 46 H -2.578550 1.551198 -0.092537 0
M  V30 47 H -0.563212 0.218946 -0.391251 0
M  V30 48 H 1.249533 -4.022057 -2.129587 0
M  V30 49 H -0.743303 -5.105170 -2.621827 0
M  V30 50 H -1.324097 -3.167738 -3.473025 0
M  V30 51 H -1.055063 -5.457124 -0.226167 0
M  V30 52 H -2.590493 -5.147740 -1.168275 0
M  V30 53 H -1.163128 -3.047277 0.543500 0
M  V30 54 H -2.735824 -2.853896 -0.313828 0
M  V30 55 H -2.962264 -3.307834 1.869485 0
M  V30 END ATOM
M  V30 BEGIN BOND
M  V30 1 1 1 2
M  V30 2 1 2 3
M  V30 3 1 2 4
M  V30 4 1 4 5
M  V30 5 2 5 6
M  V30 6 1 6 7
M  V30 7 2 7 8
M  V30 8 1 8 9
M  V30 9 1 9 10
M  V30 10 2 10 11
M  V30 11 1 11 12
M  V30 12 2 12 13
M  V30 13 1 13 14
M  V30 14 2 14 15
M  V30 15 1 15 16
M  V30 16 2 16 17
M  V30 17 1 17 18
M  V30 18 2 18 19
M  V30 19 1 13 20
M  V30 20 2 20 21
M  V30 21 1 8 22
M  V30 22 2 22 23
M  V30 23 1 23 24
M  V30 24 1 24 25
M  V30 25 1 25 26
M  V30 26 1 25 27
M  V30 27 1 27 28
M  V30 28 1 28 29
M  V30 29 1 23 30
M  V30 30 2 30 31
M  V30 31 1 31 4
M  V30 32 1 31 7
M  V30 33 1 21 10
M  V30 34 1 19 14
M  V30 35 1 1 32
M  V30 36 1 1 33
M  V30 37 1 1 34
M  V30 38 1 2 35
M  V30 39 1 3 36
M  V30 40 1 3 37
M  V30 41 1 3 38
M  V30 42 1 5 39
M  V30 43 1 9 40
M  V30 44 1 11 41
M  V30 45 1 12 42
M  V30 46 1 15 43
M  V30 47 1 17 44
M  V30 48 1 19 45
M  V30 49 1 20 46
M  V30 50 1 21 47
M  V30 51 1 24 48
M  V30 52 1 25 49
M  V30 53 1 26 50
M  V30 54 1 27 51
M  V30 55 1 27 52
M  V30 56 1 28 53
M  V30 57 1 28 54
M  V30 58 1 29 55
M  V30 END BOND
M  V30 END CTAB
M  END
>  <Dataset>  (812) 
ChEMBL_Kinases

>  <Ligand_Instance>  (812) 
nan

>  <PDB_ID>  (812) 
nan

>  <Standardized_SMILES>  (812) 
CC(C)n1cnc2c(Nc3ccc(-c4cncnc4)cc3)nc(NC(O)CCO)nc21

>  <Name>  (812) 
nan

>  <Pocket>  (812) 
nan

>  <ATP_Site>  (812) 
nan

>  <Peripheral>  (812) 
nan

>  <Num_H_Atoms_ProtBoundConf>  (812) 
nan

>  <Num_Resolved_Atoms>  (812) 
nan

>  <Num_Not_Resolved_Atoms>  (812) 
nan

$$$$
CHEMBL2295958
     RDKit          3D

  0  0  0  0  0  0  0  0  0  0999 V3000
M  V30 BEGIN CTAB
M  V30 COUNTS 57 60 0 0 0
M  V30 BEGIN ATOM
M  V30 1 C 2.460750 0.188043 4.368542 0
M  V30 2 C 1.982044 -0.749596 3.271536 0
M  V30 3 C 0.999434 -1.749112 3.844667 0
M  V30 4 C 3.185374 -1.517914 2.771958 0
M  V30 5 O 4.108483 -0.587743 2.276009 0
M  V30 6 N 2.780634 -2.494085 1.792132 0
M  V30 7 C 2.150020 -2.152860 0.567879 0
M  V30 8 N 1.878178 -0.887169 0.210406 0
M  V30 9 C 1.281656 -0.540892 -0.943707 0
M  V30 10 N 1.076987 0.854897 -1.141479 0
M  V30 11 C -0.164567 1.396901 -0.651193 0
M  V30 12 C -0.472281 2.732262 -0.798357 0
M  V30 13 C -1.635510 3.327144 -0.357726 0
M  V30 14 C -2.558828 2.499702 0.283345 0
M  V30 15 C -3.831844 2.948044 0.813874 0
M  V30 16 C -3.910680 4.248026 1.305717 0
M  V30 17 N -5.101652 4.679174 1.805893 0
M  V30 18 C -6.179985 3.843859 1.816783 0
M  V30 19 N -6.111887 2.572105 1.338256 0
M  V30 20 C -4.932784 2.107637 0.829311 0
M  V30 21 C -2.289282 1.156533 0.451178 0
M  V30 22 C -1.108444 0.619393 -0.011358 0
M  V30 23 C 0.919687 -1.524508 -1.825970 0
M  V30 24 N 0.326187 -1.444644 -3.015361 0
M  V30 25 C 0.206865 -2.728347 -3.452816 0
M  V30 26 N 0.731618 -3.555174 -2.516151 0
M  V30 27 C 0.806560 -4.996551 -2.584315 0
M  V30 28 C 0.026368 -5.475663 -3.787600 0
M  V30 29 C 0.234729 -5.692699 -1.374232 0
M  V30 30 C 1.199251 -2.828228 -1.458640 0
M  V30 31 N 1.794783 -3.117777 -0.297528 0
M  V30 32 H 2.279318 1.240360 4.105606 0
M  V30 33 H 1.869995 -0.020337 5.304565 0
M  V30 34 H 3.515575 -0.007537 4.633238 0
M  V30 35 H 1.531199 -0.183071 2.440078 0
M  V30 36 H 0.880271 -2.632841 3.193005 0
M  V30 37 H 1.325887 -2.060829 4.853428 0
M  V30 38 H 0.015501 -1.243555 3.937820 0
M  V30 39 H 3.704425 -2.017588 3.637845 0
M  V30 40 H 3.603303 0.190216 1.904087 0
M  V30 41 H 2.963515 -3.500069 2.000396 0
M  V30 42 H 1.733101 1.510071 -1.601622 0
M  V30 43 H 0.256953 3.383703 -1.304454 0
M  V30 44 H -1.881680 4.367969 -0.470001 0
M  V30 45 H -3.035450 4.881733 1.281244 0
M  V30 46 H -7.140944 4.160246 2.209208 0
M  V30 47 H -4.844913 1.107293 0.441931 0
M  V30 48 H -2.970200 0.459726 0.944313 0
M  V30 49 H -0.899934 -0.439825 0.123376 0
M  V30 50 H -0.237913 -2.974957 -4.391475 0
M  V30 51 H 1.854861 -5.347104 -2.678329 0
M  V30 52 H -0.325706 -6.513099 -3.580096 0
M  V30 53 H -0.882505 -4.838022 -3.864207 0
M  V30 54 H 0.650470 -5.434089 -4.716192 0
M  V30 55 H 0.280780 -6.781370 -1.598589 0
M  V30 56 H -0.835054 -5.465581 -1.188480 0
M  V30 57 H 0.799293 -5.485953 -0.456657 0
M  V30 END ATOM
M  V30 BEGIN BOND
M  V30 1 1 1 2
M  V30 2 1 2 3
M  V30 3 1 2 4
M  V30 4 1 4 5
M  V30 5 1 4 6
M  V30 6 1 6 7
M  V30 7 2 7 8
M  V30 8 1 8 9
M  V30 9 1 9 10
M  V30 10 1 10 11
M  V30 11 2 11 12
M  V30 12 1 12 13
M  V30 13 2 13 14
M  V30 14 1 14 15
M  V30 15 2 15 16
M  V30 16 1 16 17
M  V30 17 2 17 18
M  V30 18 1 18 19
M  V30 19 2 19 20
M  V30 20 1 14 21
M  V30 21 2 21 22
M  V30 22 2 9 23
M  V30 23 1 23 24
M  V30 24 2 24 25
M  V30 25 1 25 26
M  V30 26 1 26 27
M  V30 27 1 27 28
M  V30 28 1 27 29
M  V30 29 1 26 30
M  V30 30 2 30 31
M  V30 31 1 31 7
M  V30 32 1 22 11
M  V30 33 1 30 23
M  V30 34 1 20 15
M  V30 35 1 1 32
M  V30 36 1 1 33
M  V30 37 1 1 34
M  V30 38 1 2 35
M  V30 39 1 3 36
M  V30 40 1 3 37
M  V30 41 1 3 38
M  V30 42 1 4 39
M  V30 43 1 5 40
M  V30 44 1 6 41
M  V30 45 1 10 42
M  V30 46 1 12 43
M  V30 47 1 13 44
M  V30 48 1 16 45
M  V30 49 1 18 46
M  V30 50 1 20 47
M  V30 51 1 21 48
M  V30 52 1 22 49
M  V30 53 1 25 50
M  V30 54 1 27 51
M  V30 55 1 28 52
M  V30 56 1 28 53
M  V30 57 1 28 54
M  V30 58 1 29 55
M  V30 59 1 29 56
M  V30 60 1 29 57
M  V30 END BOND
M  V30 END CTAB
M  END
>  <Dataset>  (813) 
ChEMBL_Kinases

>  <Ligand_Instance>  (813) 
nan

>  <PDB_ID>  (813) 
nan

>  <Standardized_SMILES>  (813) 
CC(C)C(O)Nc1nc(Nc2ccc(-c3cncnc3)cc2)c2ncn(C(C)C)c2n1

>  <Name>  (813) 
nan

>  <Pocket>  (813) 
nan

>  <ATP_Site>  (813) 
nan

>  <Peripheral>  (813) 
nan

>  <Num_H_Atoms_ProtBoundConf>  (813) 
nan

>  <Num_Resolved_Atoms>  (813) 
nan

>  <Num_Not_Resolved_Atoms>  (813) 
nan

$$$$
CHEMBL3699763
     RDKit          3D

  0  0  0  0  0  0  0  0  0  0999 V3000
M  V30 BEGIN CTAB
M  V30 COUNTS 59 64 0 0 0
M  V30 BEGIN ATOM
M  V30 1 C 5.668433 -3.530367 0.637445 0
M  V30 2 C 4.618830 -2.495779 0.783583 0
M  V30 3 C 4.926033 -1.272254 1.332778 0
M  V30 4 C 3.969372 -0.285271 1.482581 0
M  V30 5 C 4.364475 0.989192 2.073200 0
M  V30 6 C 3.497273 1.480816 3.027069 0
M  V30 7 C 3.796434 2.675483 3.631313 0
M  V30 8 C 4.948825 3.364434 3.281973 0
M  V30 9 N 5.778977 2.866250 2.350049 0
M  V30 10 C 5.505434 1.690383 1.740439 0
M  V30 11 C 2.683210 -0.563776 1.061469 0
M  V30 12 N 1.569683 0.193832 1.083806 0
M  V30 13 C 0.534800 -0.508520 0.559383 0
M  V30 14 C -0.863529 -0.137704 0.362749 0
M  V30 15 C -1.657853 0.195768 1.440376 0
M  V30 16 C -2.982221 0.550542 1.293696 0
M  V30 17 C -3.555929 0.581475 0.044184 0
M  V30 18 C -4.933020 0.922978 -0.381118 0
M  V30 19 N -4.991598 1.752343 -1.578053 0
M  V30 20 C -5.894336 1.312711 0.690065 0
M  V30 21 C -6.469004 -0.105060 0.731910 0
M  V30 22 C -5.799120 -0.323649 -0.609261 0
M  V30 23 C -2.777700 0.249244 -1.065838 0
M  V30 24 C -1.433531 -0.110242 -0.910912 0
M  V30 25 C 1.085203 -1.729444 0.220227 0
M  V30 26 C 0.381028 -2.856769 -0.388790 0
M  V30 27 C 0.882436 -3.217581 -1.625434 0
M  V30 28 C 0.282992 -4.276388 -2.286816 0
M  V30 29 C -0.790613 -4.958954 -1.728419 0
M  V30 30 C -1.293838 -4.589284 -0.476463 0
M  V30 31 C -0.682525 -3.531456 0.166447 0
M  V30 32 N 2.416283 -1.779899 0.525003 0
M  V30 33 C 3.330959 -2.756216 0.369089 0
M  V30 34 H 5.513251 -4.009937 -0.363305 0
M  V30 35 H 5.536236 -4.317869 1.406894 0
M  V30 36 H 6.690524 -3.099641 0.705525 0
M  V30 37 H 5.968039 -1.118089 1.646108 0
M  V30 38 H 2.599324 0.970176 3.317159 0
M  V30 39 H 3.117120 3.074324 4.388169 0
M  V30 40 H 5.217971 4.301218 3.731180 0
M  V30 41 H 6.124061 1.236296 0.989295 0
M  V30 42 H -1.279060 0.196730 2.470587 0
M  V30 43 H -3.681764 0.825895 2.069845 0
M  V30 44 H -4.921294 1.070954 -2.390453 0
M  V30 45 H -6.007384 2.064876 -1.632306 0
M  V30 46 H -5.502130 1.633780 1.658402 0
M  V30 47 H -6.694753 2.026031 0.384841 0
M  V30 48 H -7.569274 -0.164136 0.670953 0
M  V30 49 H -6.072983 -0.714564 1.570758 0
M  V30 50 H -5.177670 -1.254010 -0.531569 0
M  V30 51 H -6.463195 -0.259557 -1.492319 0
M  V30 52 H -3.074247 0.225441 -2.098459 0
M  V30 53 H -0.780519 -0.377591 -1.730382 0
M  V30 54 H 1.713266 -2.726591 -2.110729 0
M  V30 55 H 0.613872 -4.626327 -3.263665 0
M  V30 56 H -1.240617 -5.785491 -2.270445 0
M  V30 57 H -2.129550 -5.100563 -0.013112 0
M  V30 58 H -0.990815 -3.167050 1.131676 0
M  V30 59 H 3.044599 -3.716082 -0.072832 0
M  V30 END ATOM
M  V30 BEGIN BOND
M  V30 1 1 1 2
M  V30 2 1 2 3
M  V30 3 2 3 4
M  V30 4 1 4 5
M  V30 5 2 5 6
M  V30 6 1 6 7
M  V30 7 2 7 8
M  V30 8 1 8 9
M  V30 9 2 9 10
M  V30 10 1 4 11
M  V30 11 2 11 12
M  V30 12 1 12 13
M  V30 13 1 13 14
M  V30 14 2 14 15
M  V30 15 1 15 16
M  V30 16 2 16 17
M  V30 17 1 17 18
M  V30 18 1 18 19
M  V30 19 1 18 20
M  V30 20 1 20 21
M  V30 21 1 21 22
M  V30 22 1 17 23
M  V30 23 2 23 24
M  V30 24 2 13 25
M  V30 25 1 25 26
M  V30 26 2 26 27
M  V30 27 1 27 28
M  V30 28 2 28 29
M  V30 29 1 29 30
M  V30 30 2 30 31
M  V30 31 1 25 32
M  V30 32 1 32 33
M  V30 33 2 33 2
M  V30 34 1 10 5
M  V30 35 1 32 11
M  V30 36 1 24 14
M  V30 37 1 31 26
M  V30 38 1 22 18
M  V30 39 1 1 34
M  V30 40 1 1 35
M  V30 41 1 1 36
M  V30 42 1 3 37
M  V30 43 1 6 38
M  V30 44 1 7 39
M  V30 45 1 8 40
M  V30 46 1 10 41
M  V30 47 1 15 42
M  V30 48 1 16 43
M  V30 49 1 19 44
M  V30 50 1 19 45
M  V30 51 1 20 46
M  V30 52 1 20 47
M  V30 53 1 21 48
M  V30 54 1 21 49
M  V30 55 1 22 50
M  V30 56 1 22 51
M  V30 57 1 23 52
M  V30 58 1 24 53
M  V30 59 1 27 54
M  V30 60 1 28 55
M  V30 61 1 29 56
M  V30 62 1 30 57
M  V30 63 1 31 58
M  V30 64 1 33 59
M  V30 END BOND
M  V30 END CTAB
M  END
>  <Dataset>  (814) 
ChEMBL_Kinases

>  <Ligand_Instance>  (814) 
nan

>  <PDB_ID>  (814) 
nan

>  <Standardized_SMILES>  (814) 
Cc1cc(-c2cccnc2)c2nc(-c3ccc(C4(N)CCC4)cc3)c(-c3ccccc3)n2c1

>  <Name>  (814) 
nan

>  <Pocket>  (814) 
nan

>  <ATP_Site>  (814) 
nan

>  <Peripheral>  (814) 
nan

>  <Num_H_Atoms_ProtBoundConf>  (814) 
nan

>  <Num_Resolved_Atoms>  (814) 
nan

>  <Num_Not_Resolved_Atoms>  (814) 
nan

$$$$
CHEMBL220688
     RDKit          3D

  0  0  0  0  0  0  0  0  0  0999 V3000
M  V30 BEGIN CTAB
M  V30 COUNTS 52 56 0 0 0
M  V30 BEGIN ATOM
M  V30 1 C 0.787273 -0.942134 3.434443 0
M  V30 2 C 0.906719 -2.153353 2.609962 0
M  V30 3 O -0.287889 -2.480937 2.310095 0
M  V30 4 N 2.061343 -2.868818 2.190847 0
M  V30 5 C 3.373681 -2.461730 2.552886 0
M  V30 6 C 4.446548 -2.825674 1.569299 0
M  V30 7 N 3.925176 -3.273869 0.354494 0
M  V30 8 C 3.706536 -2.381327 -0.712975 0
M  V30 9 C 2.756435 -1.276532 -0.421594 0
M  V30 10 C 3.216145 -0.085984 0.103675 0
M  V30 11 C 2.385191 0.976154 0.389063 0
M  V30 12 C 1.030346 0.898305 0.159134 0
M  V30 13 N -0.037382 1.700434 0.309651 0
M  V30 14 C -1.195245 1.125982 -0.082014 0
M  V30 15 C -2.439234 1.856087 0.014872 0
M  V30 16 N -2.578653 3.099166 0.471938 0
M  V30 17 N -3.816007 3.514344 0.448808 0
M  V30 18 C -4.597543 2.548658 -0.037627 0
M  V30 19 C -5.956434 2.479720 -0.264701 0
M  V30 20 C -6.469476 1.308163 -0.790613 0
M  V30 21 C -7.904664 1.248833 -1.025253 0
M  V30 22 N -9.047730 1.193994 -1.210837 0
M  V30 23 C -5.634381 0.248568 -1.074497 0
M  V30 24 C -4.285892 0.377953 -0.825722 0
M  V30 25 C -3.730652 1.523652 -0.303516 0
M  V30 26 C -0.791887 -0.111363 -0.497825 0
M  V30 27 C 0.569475 -0.290791 -0.365754 0
M  V30 28 C 1.398375 -1.356052 -0.652650 0
M  V30 29 C 3.013939 -4.353409 0.497960 0
M  V30 30 C 1.839867 -4.025602 1.384100 0
M  V30 31 H 0.191720 -1.148291 4.362374 0
M  V30 32 H 0.274366 -0.098837 2.907569 0
M  V30 33 H 1.788210 -0.591931 3.722977 0
M  V30 34 H 3.625466 -2.834085 3.593191 0
M  V30 35 H 3.385109 -1.340021 2.698549 0
M  V30 36 H 5.173886 -1.981996 1.472459 0
M  V30 37 H 5.027834 -3.660534 2.053904 0
M  V30 38 H 3.318907 -2.957093 -1.610204 0
M  V30 39 H 4.636678 -1.887781 -1.090969 0
M  V30 40 H 4.278275 -0.018136 0.286567 0
M  V30 41 H 2.769891 1.889938 0.796909 0
M  V30 42 H 0.152320 2.652378 0.703404 0
M  V30 43 H -4.062238 4.474219 0.781248 0
M  V30 44 H -6.536535 3.339983 -0.019757 0
M  V30 45 H -6.053545 -0.658063 -1.484748 0
M  V30 46 H -3.656303 -0.459728 -1.054679 0
M  V30 47 H -1.430969 -0.859789 -0.879698 0
M  V30 48 H 0.983575 -2.263179 -1.062556 0
M  V30 49 H 3.571511 -5.211788 0.977521 0
M  V30 50 H 2.696547 -4.757999 -0.486939 0
M  V30 51 H 0.947681 -3.863690 0.724516 0
M  V30 52 H 1.637977 -4.872559 2.056403 0
M  V30 END ATOM
M  V30 BEGIN BOND
M  V30 1 1 1 2
M  V30 2 2 2 3
M  V30 3 1 2 4
M  V30 4 1 4 5
M  V30 5 1 5 6
M  V30 6 1 6 7
M  V30 7 1 7 8
M  V30 8 1 8 9
M  V30 9 2 9 10
M  V30 10 1 10 11
M  V30 11 2 11 12
M  V30 12 1 12 13
M  V30 13 1 13 14
M  V30 14 1 14 15
M  V30 15 2 15 16
M  V30 16 1 16 17
M  V30 17 1 17 18
M  V30 18 2 18 19
M  V30 19 1 19 20
M  V30 20 1 20 21
M  V30 21 3 21 22
M  V30 22 2 20 23
M  V30 23 1 23 24
M  V30 24 2 24 25
M  V30 25 2 14 26
M  V30 26 1 26 27
M  V30 27 2 27 28
M  V30 28 1 7 29
M  V30 29 1 29 30
M  V30 30 1 30 4
M  V30 31 1 28 9
M  V30 32 1 27 12
M  V30 33 1 25 15
M  V30 34 1 25 18
M  V30 35 1 1 31
M  V30 36 1 1 32
M  V30 37 1 1 33
M  V30 38 1 5 34
M  V30 39 1 5 35
M  V30 40 1 6 36
M  V30 41 1 6 37
M  V30 42 1 8 38
M  V30 43 1 8 39
M  V30 44 1 10 40
M  V30 45 1 11 41
M  V30 46 1 13 42
M  V30 47 1 17 43
M  V30 48 1 19 44
M  V30 49 1 23 45
M  V30 50 1 24 46
M  V30 51 1 26 47
M  V30 52 1 28 48
M  V30 53 1 29 49
M  V30 54 1 29 50
M  V30 55 1 30 51
M  V30 56 1 30 52
M  V30 END BOND
M  V30 END CTAB
M  END
>  <Dataset>  (815) 
ChEMBL_Kinases

>  <Ligand_Instance>  (815) 
nan

>  <PDB_ID>  (815) 
nan

>  <Standardized_SMILES>  (815) 
CC(=O)N1CCN(Cc2ccc3[nH]c(-c4n[nH]c5cc(C#N)ccc45)cc3c2)CC1

>  <Name>  (815) 
nan

>  <Pocket>  (815) 
nan

>  <ATP_Site>  (815) 
nan

>  <Peripheral>  (815) 
nan

>  <Num_H_Atoms_ProtBoundConf>  (815) 
nan

>  <Num_Resolved_Atoms>  (815) 
nan

>  <Num_Not_Resolved_Atoms>  (815) 
nan

$$$$
CHEMBL3699766
     RDKit          3D

  0  0  0  0  0  0  0  0  0  0999 V3000
M  V30 BEGIN CTAB
M  V30 COUNTS 57 62 0 0 0
M  V30 BEGIN ATOM
M  V30 1 C 4.763973 -4.886596 0.462006 0
M  V30 2 C 4.075238 -3.568148 0.609303 0
M  V30 3 C 4.764525 -2.410266 0.932136 0
M  V30 4 C 4.106038 -1.201310 1.062907 0
M  V30 5 C 4.856642 0.001694 1.403570 0
M  V30 6 C 6.062681 0.301398 0.775409 0
M  V30 7 N 6.553702 1.467947 1.271664 0
M  V30 8 N 5.676438 1.896000 2.193710 0
M  V30 9 C 4.648044 1.035267 2.293605 0
M  V30 10 C 2.740245 -1.132143 0.871542 0
M  V30 11 N 1.853513 -0.095683 0.935343 0
M  V30 12 C 0.611220 -0.577993 0.657825 0
M  V30 13 C -0.701666 0.060355 0.582424 0
M  V30 14 C -1.365769 0.716088 1.600486 0
M  V30 15 C -2.610594 1.274252 1.380722 0
M  V30 16 C -3.231516 1.195720 0.139113 0
M  V30 17 C -4.546917 1.844986 0.094920 0
M  V30 18 N -5.447230 1.478501 1.187908 0
M  V30 19 C -5.297542 1.817201 -1.194069 0
M  V30 20 C -5.676563 3.258235 -0.957553 0
M  V30 21 C -4.427140 3.358755 -0.082844 0
M  V30 22 C -2.558901 0.538198 -0.871018 0
M  V30 23 C -1.313542 -0.023943 -0.663050 0
M  V30 24 C 0.755429 -1.944435 0.420309 0
M  V30 25 C -0.274795 -2.944501 0.076593 0
M  V30 26 C -0.070981 -3.547885 -1.153262 0
M  V30 27 C -0.929642 -4.501234 -1.633665 0
M  V30 28 C -2.000028 -4.826784 -0.834809 0
M  V30 29 C -2.238001 -4.247227 0.398899 0
M  V30 30 C -1.361116 -3.292979 0.858091 0
M  V30 31 N 2.075489 -2.263728 0.557380 0
M  V30 32 C 2.711965 -3.448996 0.427823 0
M  V30 33 H 5.766681 -4.805608 0.894717 0
M  V30 34 H 4.756774 -5.216056 -0.593684 0
M  V30 35 H 4.205888 -5.662251 1.026579 0
M  V30 36 H 5.824548 -2.511756 1.071533 0
M  V30 37 H 6.654694 -0.170021 0.021703 0
M  V30 38 H 5.757768 2.781921 2.774282 0
M  V30 39 H 3.773311 1.058458 2.922090 0
M  V30 40 H -0.809261 0.725696 2.520961 0
M  V30 41 H -2.971565 1.745568 2.298467 0
M  V30 42 H -4.988982 1.504388 2.119946 0
M  V30 43 H -5.795576 0.502983 1.051540 0
M  V30 44 H -6.228829 1.184918 -1.162168 0
M  V30 45 H -4.769963 1.596602 -2.117480 0
M  V30 46 H -6.618396 3.431523 -0.422743 0
M  V30 47 H -5.571271 3.915152 -1.839222 0
M  V30 48 H -3.515536 3.656817 -0.631776 0
M  V30 49 H -4.576649 3.915361 0.869194 0
M  V30 50 H -3.078417 0.505933 -1.803877 0
M  V30 51 H -0.908673 -0.508239 -1.550850 0
M  V30 52 H 0.773281 -3.304558 -1.805861 0
M  V30 53 H -0.787609 -4.985556 -2.594306 0
M  V30 54 H -2.703200 -5.574687 -1.175043 0
M  V30 55 H -3.079538 -4.496816 1.037961 0
M  V30 56 H -1.433338 -2.766015 1.801575 0
M  V30 57 H 2.182672 -4.368254 0.174134 0
M  V30 END ATOM
M  V30 BEGIN BOND
M  V30 1 1 1 2
M  V30 2 1 2 3
M  V30 3 2 3 4
M  V30 4 1 4 5
M  V30 5 1 5 6
M  V30 6 2 6 7
M  V30 7 1 7 8
M  V30 8 1 8 9
M  V30 9 1 4 10
M  V30 10 2 10 11
M  V30 11 1 11 12
M  V30 12 1 12 13
M  V30 13 2 13 14
M  V30 14 1 14 15
M  V30 15 2 15 16
M  V30 16 1 16 17
M  V30 17 1 17 18
M  V30 18 1 17 19
M  V30 19 1 19 20
M  V30 20 1 20 21
M  V30 21 1 16 22
M  V30 22 2 22 23
M  V30 23 2 12 24
M  V30 24 1 24 25
M  V30 25 2 25 26
M  V30 26 1 26 27
M  V30 27 2 27 28
M  V30 28 1 28 29
M  V30 29 2 29 30
M  V30 30 1 24 31
M  V30 31 1 31 32
M  V30 32 2 32 2
M  V30 33 2 9 5
M  V30 34 1 31 10
M  V30 35 1 23 13
M  V30 36 1 30 25
M  V30 37 1 21 17
M  V30 38 1 1 33
M  V30 39 1 1 34
M  V30 40 1 1 35
M  V30 41 1 3 36
M  V30 42 1 6 37
M  V30 43 1 8 38
M  V30 44 1 9 39
M  V30 45 1 14 40
M  V30 46 1 15 41
M  V30 47 1 18 42
M  V30 48 1 18 43
M  V30 49 1 19 44
M  V30 50 1 19 45
M  V30 51 1 20 46
M  V30 52 1 20 47
M  V30 53 1 21 48
M  V30 54 1 21 49
M  V30 55 1 22 50
M  V30 56 1 23 51
M  V30 57 1 26 52
M  V30 58 1 27 53
M  V30 59 1 28 54
M  V30 60 1 29 55
M  V30 61 1 30 56
M  V30 62 1 32 57
M  V30 END BOND
M  V30 END CTAB
M  END
>  <Dataset>  (816) 
ChEMBL_Kinases

>  <Ligand_Instance>  (816) 
nan

>  <PDB_ID>  (816) 
nan

>  <Standardized_SMILES>  (816) 
Cc1cc(-c2cn[nH]c2)c2nc(-c3ccc(C4(N)CCC4)cc3)c(-c3ccccc3)n2c1

>  <Name>  (816) 
nan

>  <Pocket>  (816) 
nan

>  <ATP_Site>  (816) 
nan

>  <Peripheral>  (816) 
nan

>  <Num_H_Atoms_ProtBoundConf>  (816) 
nan

>  <Num_Resolved_Atoms>  (816) 
nan

>  <Num_Not_Resolved_Atoms>  (816) 
nan

$$$$
CHEMBL228867
     RDKit          3D

  0  0  0  0  0  0  0  0  0  0999 V3000
M  V30 BEGIN CTAB
M  V30 COUNTS 63 66 0 0 0
M  V30 BEGIN ATOM
M  V30 1 C 0.730539 2.247113 0.670543 0
M  V30 2 C -0.068155 1.884536 1.867889 0
M  V30 3 C 0.148395 2.367712 3.062748 0
M  V30 4 C -0.547312 2.112816 4.317926 0
M  V30 5 O -1.539706 1.366854 4.496959 0
M  V30 6 N 0.054243 2.845313 5.377739 0
M  V30 7 C 1.134343 3.570227 4.803456 0
M  V30 8 C 2.003109 4.418424 5.457957 0
M  V30 9 C 2.993892 5.031442 4.720809 0
M  V30 10 C 3.084959 4.778448 3.358156 0
M  V30 11 N 4.151568 5.465351 2.675658 0
M  V30 12 C 5.317679 4.662476 2.701619 0
M  V30 13 N 6.570472 5.009938 2.128259 0
M  V30 14 O 5.364933 3.514954 3.256950 0
M  V30 15 C 2.189522 3.921227 2.754080 0
M  V30 16 C 1.191538 3.293933 3.454660 0
M  V30 17 C -1.110250 0.886226 1.666680 0
M  V30 18 C -1.473845 -0.284331 2.242463 0
M  V30 19 C -2.600102 -0.770921 1.613565 0
M  V30 20 C -3.254770 -2.053949 2.019980 0
M  V30 21 N -2.675524 -3.145755 1.270637 0
M  V30 22 C -3.006804 -3.376562 -0.085690 0
M  V30 23 O -3.819238 -2.649088 -0.712812 0
M  V30 24 C -2.320566 -4.542787 -0.708449 0
M  V30 25 C -2.795580 -4.627951 -2.141061 0
M  V30 26 N -2.211776 -5.712319 -2.864712 0
M  V30 27 C -2.729493 -5.702326 -4.215088 0
M  V30 28 C -1.694888 -5.275173 -5.232750 0
M  V30 29 C -0.482394 -6.154335 -5.249172 0
M  V30 30 C -0.116669 -6.507809 -3.844323 0
M  V30 31 C -0.777300 -5.609704 -2.821323 0
M  V30 32 C -2.940422 0.122981 0.622301 0
M  V30 33 N -2.027728 1.106646 0.678858 0
M  V30 34 H 1.751506 1.874317 0.729346 0
M  V30 35 H 0.577448 3.305174 0.430713 0
M  V30 36 H 0.301151 1.687093 -0.222864 0
M  V30 37 H -0.255010 2.839063 6.388567 0
M  V30 38 H 1.923060 4.608692 6.519773 0
M  V30 39 H 3.684595 5.698189 5.211974 0
M  V30 40 H 4.312910 6.378054 2.170115 0
M  V30 41 H 7.483959 5.482407 1.956468 0
M  V30 42 H 7.099567 4.628821 1.290202 0
M  V30 43 H 2.391815 3.830720 1.708791 0
M  V30 44 H -0.947263 -0.743021 3.038770 0
M  V30 45 H -4.330845 -1.947479 1.776365 0
M  V30 46 H -3.162109 -2.174019 3.099379 0
M  V30 47 H -2.002773 -3.743126 1.799922 0
M  V30 48 H -2.615026 -5.462687 -0.161192 0
M  V30 49 H -1.243653 -4.416695 -0.604464 0
M  V30 50 H -2.717850 -3.639837 -2.640985 0
M  V30 51 H -3.901417 -4.819964 -2.090345 0
M  V30 52 H -3.161097 -6.690773 -4.488525 0
M  V30 53 H -3.574259 -4.990000 -4.279645 0
M  V30 54 H -2.181947 -5.381157 -6.232820 0
M  V30 55 H -1.389017 -4.227363 -5.033830 0
M  V30 56 H 0.339706 -5.564996 -5.721041 0
M  V30 57 H -0.687928 -7.090876 -5.810321 0
M  V30 58 H 0.984610 -6.391928 -3.726917 0
M  V30 59 H -0.317626 -7.576961 -3.647742 0
M  V30 60 H -0.441528 -4.560345 -2.909550 0
M  V30 61 H -0.432341 -5.963429 -1.820358 0
M  V30 62 H -3.780928 0.014184 -0.042766 0
M  V30 63 H -2.105844 1.911768 -0.011238 0
M  V30 END ATOM
M  V30 BEGIN BOND
M  V30 1 1 1 2
M  V30 2 2 2 3
M  V30 3 1 3 4
M  V30 4 2 4 5
M  V30 5 1 4 6
M  V30 6 1 6 7
M  V30 7 2 7 8
M  V30 8 1 8 9
M  V30 9 2 9 10
M  V30 10 1 10 11
M  V30 11 1 11 12
M  V30 12 1 12 13
M  V30 13 2 12 14
M  V30 14 1 10 15
M  V30 15 2 15 16
M  V30 16 1 2 17
M  V30 17 2 17 18
M  V30 18 1 18 19
M  V30 19 1 19 20
M  V30 20 1 20 21
M  V30 21 1 21 22
M  V30 22 2 22 23
M  V30 23 1 22 24
M  V30 24 1 24 25
M  V30 25 1 25 26
M  V30 26 1 26 27
M  V30 27 1 27 28
M  V30 28 1 28 29
M  V30 29 1 29 30
M  V30 30 1 30 31
M  V30 31 2 19 32
M  V30 32 1 32 33
M  V30 33 1 16 3
M  V30 34 1 33 17
M  V30 35 1 16 7
M  V30 36 1 31 26
M  V30 37 1 1 34
M  V30 38 1 1 35
M  V30 39 1 1 36
M  V30 40 1 6 37
M  V30 41 1 8 38
M  V30 42 1 9 39
M  V30 43 1 11 40
M  V30 44 1 13 41
M  V30 45 1 13 42
M  V30 46 1 15 43
M  V30 47 1 18 44
M  V30 48 1 20 45
M  V30 49 1 20 46
M  V30 50 1 21 47
M  V30 51 1 24 48
M  V30 52 1 24 49
M  V30 53 1 25 50
M  V30 54 1 25 51
M  V30 55 1 27 52
M  V30 56 1 27 53
M  V30 57 1 28 54
M  V30 58 1 28 55
M  V30 59 1 29 56
M  V30 60 1 29 57
M  V30 61 1 30 58
M  V30 62 1 30 59
M  V30 63 1 31 60
M  V30 64 1 31 61
M  V30 65 1 32 62
M  V30 66 1 33 63
M  V30 END BOND
M  V30 END CTAB
M  END
>  <Dataset>  (817) 
ChEMBL_Kinases

>  <Ligand_Instance>  (817) 
nan

>  <PDB_ID>  (817) 
nan

>  <Standardized_SMILES>  (817) 
C/C(=C1/C(=O)Nc2ccc(NC(N)=O)cc21)c1cc(CNC(=O)CCN2CCCCC2)c[nH]1

>  <Name>  (817) 
nan

>  <Pocket>  (817) 
nan

>  <ATP_Site>  (817) 
nan

>  <Peripheral>  (817) 
nan

>  <Num_H_Atoms_ProtBoundConf>  (817) 
nan

>  <Num_Resolved_Atoms>  (817) 
nan

>  <Num_Not_Resolved_Atoms>  (817) 
nan

$$$$
CHEMBL4540910
     RDKit          3D

  0  0  0  0  0  0  0  0  0  0999 V3000
M  V30 BEGIN CTAB
M  V30 COUNTS 46 48 0 0 0
M  V30 BEGIN ATOM
M  V30 1 C 1.760861 -4.421203 0.832703 0
M  V30 2 O 1.508683 -5.520023 0.091609 0
M  V30 3 C 0.593467 -5.482390 -0.883201 0
M  V30 4 C 0.781368 -4.507283 -1.978547 0
M  V30 5 C 0.747181 -3.110145 -1.615470 0
M  V30 6 C 0.702257 -1.920488 -1.321455 0
M  V30 7 C 0.666542 -0.520682 -0.989995 0
M  V30 8 C 0.937851 0.456366 -1.923934 0
M  V30 9 Cl 1.358421 0.244530 -3.607226 0
M  V30 10 C 0.817784 1.667797 -1.286254 0
M  V30 11 C 0.963407 2.980811 -1.679894 0
M  V30 12 Cl 1.397734 3.338374 -3.339696 0
M  V30 13 C 0.755348 3.962090 -0.727489 0
M  V30 14 C 0.414341 3.669629 0.574052 0
M  V30 15 C 0.216641 4.776814 1.502871 0
M  V30 16 N -0.138096 4.393376 2.845888 0
M  V30 17 O 0.337158 5.990906 1.194561 0
M  V30 18 N 0.291136 2.382902 0.883090 0
M  V30 19 C 0.479613 1.381190 0.004939 0
M  V30 20 N 0.380775 0.038148 0.210435 0
M  V30 21 C 0.053389 -0.725480 1.394083 0 CFG=1
M  V30 22 C -0.042275 0.241013 2.566296 0
M  V30 23 C -0.411883 -0.486703 3.839497 0
M  V30 24 C -1.648540 -1.327925 3.671844 0
M  V30 25 N -2.173245 -1.114570 2.345467 0
M  V30 26 C -1.264851 -1.455101 1.290765 0
M  V30 27 H 2.515697 -4.726394 1.620497 0
M  V30 28 H 2.273196 -3.610205 0.222579 0
M  V30 29 H 0.900996 -3.975285 1.329488 0
M  V30 30 H -0.424698 -5.237614 -0.421219 0
M  V30 31 H 0.500340 -6.527265 -1.330293 0
M  V30 32 H 0.015410 -4.690453 -2.791706 0
M  V30 33 H 1.757148 -4.696204 -2.521526 0
M  V30 34 H 0.864267 4.993861 -1.015105 0
M  V30 35 H 0.370895 4.134167 3.719796 0
M  V30 36 H -0.940442 4.218424 3.487762 0
M  V30 37 H 0.893694 -1.422718 1.639179 0
M  V30 38 H -0.883538 0.928295 2.355633 0
M  V30 39 H 0.927703 0.742671 2.744893 0
M  V30 40 H -0.525747 0.286001 4.628911 0
M  V30 41 H 0.454302 -1.123650 4.117139 0
M  V30 42 H -1.437699 -2.394634 3.874368 0
M  V30 43 H -2.402337 -0.941387 4.386669 0
M  V30 44 H -2.595374 -0.181462 2.291862 0
M  V30 45 H -1.113116 -2.556897 1.315592 0
M  V30 46 H -1.747467 -1.197669 0.338444 0
M  V30 END ATOM
M  V30 BEGIN BOND
M  V30 1 1 1 2
M  V30 2 1 2 3
M  V30 3 1 3 4
M  V30 4 1 4 5
M  V30 5 3 5 6
M  V30 6 1 6 7
M  V30 7 2 7 8
M  V30 8 1 8 9
M  V30 9 1 8 10
M  V30 10 2 10 11
M  V30 11 1 11 12
M  V30 12 1 11 13
M  V30 13 2 13 14
M  V30 14 1 14 15
M  V30 15 1 15 16
M  V30 16 2 15 17
M  V30 17 1 14 18
M  V30 18 2 18 19
M  V30 19 1 19 20
M  V30 20 1 20 21
M  V30 21 1 21 22
M  V30 22 1 22 23
M  V30 23 1 23 24
M  V30 24 1 24 25
M  V30 25 1 25 26
M  V30 26 1 20 7
M  V30 27 1 26 21
M  V30 28 1 19 10
M  V30 29 1 1 27
M  V30 30 1 1 28
M  V30 31 1 1 29
M  V30 32 1 3 30
M  V30 33 1 3 31
M  V30 34 1 4 32
M  V30 35 1 4 33
M  V30 36 1 13 34
M  V30 37 1 16 35
M  V30 38 1 16 36
M  V30 39 1 21 37 CFG=1
M  V30 40 1 22 38
M  V30 41 1 22 39
M  V30 42 1 23 40
M  V30 43 1 23 41
M  V30 44 1 24 42
M  V30 45 1 24 43
M  V30 46 1 25 44
M  V30 47 1 26 45
M  V30 48 1 26 46
M  V30 END BOND
M  V30 END CTAB
M  END
>  <Dataset>  (818) 
ChEMBL_Kinases

>  <Ligand_Instance>  (818) 
nan

>  <PDB_ID>  (818) 
nan

>  <Standardized_SMILES>  (818) 
COCCC#Cc1c(Cl)c2c(Cl)cc(C(N)=O)nc2n1[C@H]1CCCNC1

>  <Name>  (818) 
nan

>  <Pocket>  (818) 
nan

>  <ATP_Site>  (818) 
nan

>  <Peripheral>  (818) 
nan

>  <Num_H_Atoms_ProtBoundConf>  (818) 
nan

>  <Num_Resolved_Atoms>  (818) 
nan

>  <Num_Not_Resolved_Atoms>  (818) 
nan

$$$$
CHEMBL4540226
     RDKit          3D

  0  0  0  0  0  0  0  0  0  0999 V3000
M  V30 BEGIN CTAB
M  V30 COUNTS 55 58 0 0 0
M  V30 BEGIN ATOM
M  V30 1 C -5.652443 -2.114323 -3.310913 0
M  V30 2 C -6.000100 -1.703161 -1.892239 0
M  V30 3 C -6.435225 -0.243715 -1.959648 0
M  V30 4 C -4.845683 -1.871808 -0.970292 0
M  V30 5 N -4.540362 -2.958636 -0.232176 0
M  V30 6 N -3.431307 -2.753711 0.481720 0
M  V30 7 C -3.035724 -1.509447 0.181394 0
M  V30 8 C -1.926308 -0.795332 0.652950 0
M  V30 9 N -0.998256 -1.315169 1.590809 0
M  V30 10 C 0.174686 -0.730770 2.155673 0
M  V30 11 C 1.251912 -0.460338 1.195964 0
M  V30 12 C 1.535383 0.657681 0.444559 0
M  V30 13 C 2.603590 0.731094 -0.420929 0
M  V30 14 C 3.459005 -0.338773 -0.577760 0
M  V30 15 C 4.605918 -0.324459 -1.477846 0
M  V30 16 C 4.940145 0.761338 -2.257111 0
M  V30 17 C 6.008646 0.815574 -3.116099 0
M  V30 18 C 6.825296 -0.308885 -3.215752 0
M  V30 19 C 6.480682 -1.388500 -2.431199 0
M  V30 20 N 5.424818 -1.396008 -1.604431 0
M  V30 21 C 3.230173 -1.498175 0.151008 0
M  V30 22 C 2.147180 -1.523980 1.005176 0
M  V30 23 N -1.728161 0.455607 0.204726 0
M  V30 24 C -2.552571 1.045779 -0.676857 0
M  V30 25 S -2.507194 2.674822 -1.393242 0
M  V30 26 C -1.112041 3.620807 -0.736592 0
M  V30 27 C -1.279800 3.961085 0.710176 0
M  V30 28 N -1.409235 2.788004 1.537250 0
M  V30 29 N -3.632226 0.344261 -1.133243 0
M  V30 30 C -3.885789 -0.911652 -0.723282 0
M  V30 31 H -6.339995 -1.625782 -4.028999 0
M  V30 32 H -4.625368 -1.721254 -3.568414 0
M  V30 33 H -5.683415 -3.199658 -3.462881 0
M  V30 34 H -6.839340 -2.329138 -1.519750 0
M  V30 35 H -5.638807 0.372473 -2.414382 0
M  V30 36 H -6.736006 0.071394 -0.941647 0
M  V30 37 H -7.318080 -0.173617 -2.619387 0
M  V30 38 H -2.943053 -3.394166 1.142416 0
M  V30 39 H -1.237398 -2.302967 1.908943 0
M  V30 40 H -0.175877 0.217344 2.667034 0
M  V30 41 H 0.578520 -1.341264 2.986007 0
M  V30 42 H 0.843102 1.465752 0.601167 0
M  V30 43 H 2.759945 1.633435 -0.971453 0
M  V30 44 H 4.356923 1.648819 -2.226551 0
M  V30 45 H 6.262279 1.670248 -3.722627 0
M  V30 46 H 7.698741 -0.396501 -3.854316 0
M  V30 47 H 7.039262 -2.329797 -2.416731 0
M  V30 48 H 3.889940 -2.324536 0.030492 0
M  V30 49 H 2.034680 -2.470752 1.542078 0
M  V30 50 H -0.156228 3.082250 -0.871867 0
M  V30 51 H -1.041209 4.542018 -1.343058 0
M  V30 52 H -0.342862 4.479945 1.048771 0
M  V30 53 H -2.157725 4.619950 0.884620 0
M  V30 54 H -0.746807 2.784093 2.336348 0
M  V30 55 H -2.397089 2.681381 1.821435 0
M  V30 END ATOM
M  V30 BEGIN BOND
M  V30 1 1 1 2
M  V30 2 1 2 3
M  V30 3 1 2 4
M  V30 4 2 4 5
M  V30 5 1 5 6
M  V30 6 1 6 7
M  V30 7 2 7 8
M  V30 8 1 8 9
M  V30 9 1 9 10
M  V30 10 1 10 11
M  V30 11 2 11 12
M  V30 12 1 12 13
M  V30 13 2 13 14
M  V30 14 1 14 15
M  V30 15 2 15 16
M  V30 16 1 16 17
M  V30 17 2 17 18
M  V30 18 1 18 19
M  V30 19 2 19 20
M  V30 20 1 14 21
M  V30 21 2 21 22
M  V30 22 1 8 23
M  V30 23 2 23 24
M  V30 24 1 24 25
M  V30 25 1 25 26
M  V30 26 1 26 27
M  V30 27 1 27 28
M  V30 28 1 24 29
M  V30 29 2 29 30
M  V30 30 1 30 4
M  V30 31 1 30 7
M  V30 32 1 22 11
M  V30 33 1 20 15
M  V30 34 1 1 31
M  V30 35 1 1 32
M  V30 36 1 1 33
M  V30 37 1 2 34
M  V30 38 1 3 35
M  V30 39 1 3 36
M  V30 40 1 3 37
M  V30 41 1 6 38
M  V30 42 1 9 39
M  V30 43 1 10 40
M  V30 44 1 10 41
M  V30 45 1 12 42
M  V30 46 1 13 43
M  V30 47 1 16 44
M  V30 48 1 17 45
M  V30 49 1 18 46
M  V30 50 1 19 47
M  V30 51 1 21 48
M  V30 52 1 22 49
M  V30 53 1 26 50
M  V30 54 1 26 51
M  V30 55 1 27 52
M  V30 56 1 27 53
M  V30 57 1 28 54
M  V30 58 1 28 55
M  V30 END BOND
M  V30 END CTAB
M  END
>  <Dataset>  (819) 
ChEMBL_Kinases

>  <Ligand_Instance>  (819) 
nan

>  <PDB_ID>  (819) 
nan

>  <Standardized_SMILES>  (819) 
CC(C)c1n[nH]c2c(NCc3ccc(-c4ccccn4)cc3)nc(SCCN)nc12

>  <Name>  (819) 
nan

>  <Pocket>  (819) 
nan

>  <ATP_Site>  (819) 
nan

>  <Peripheral>  (819) 
nan

>  <Num_H_Atoms_ProtBoundConf>  (819) 
nan

>  <Num_Resolved_Atoms>  (819) 
nan

>  <Num_Not_Resolved_Atoms>  (819) 
nan

$$$$
CHEMBL2295936
     RDKit          3D

  0  0  0  0  0  0  0  0  0  0999 V3000
M  V30 BEGIN CTAB
M  V30 COUNTS 57 60 0 0 0
M  V30 BEGIN ATOM
M  V30 1 C 0.223138 -0.358924 3.569626 0
M  V30 2 C 0.454484 -1.803647 3.200514 0
M  V30 3 C 1.764351 -2.335486 3.660090 0
M  V30 4 C 2.952774 -1.623282 3.121301 0 CFG=2
M  V30 5 O 2.973430 -0.253348 3.471747 0
M  V30 6 N 3.264333 -1.857927 1.749571 0
M  V30 7 C 2.480074 -1.664262 0.584712 0
M  V30 8 N 2.451645 -0.408352 0.086819 0
M  V30 9 C 1.758700 -0.066961 -1.025643 0
M  V30 10 N 1.823115 1.299304 -1.412534 0
M  V30 11 C 0.761727 2.190284 -1.031293 0
M  V30 12 C 0.860199 3.571394 -1.183651 0
M  V30 13 C -0.226695 4.316659 -0.797057 0
M  V30 14 C -1.384631 3.828137 -0.281424 0
M  V30 15 C -1.486359 2.440420 -0.126890 0
M  V30 16 C -2.728725 1.906595 0.416476 0
M  V30 17 N -3.747119 2.714906 0.758197 0
M  V30 18 C -4.920391 2.262876 1.262139 0
M  V30 19 C -5.008369 0.881733 1.407227 0
M  V30 20 C -3.976091 0.022941 1.064120 0
M  V30 21 N -2.831548 0.565991 0.564351 0
M  V30 22 C -0.421714 1.658884 -0.501315 0
M  V30 23 C 1.072330 -1.097628 -1.629410 0
M  V30 24 N 0.313207 -1.027500 -2.735482 0
M  V30 25 C -0.174332 -2.276713 -2.973620 0
M  V30 26 N 0.303835 -3.090898 -1.996946 0
M  V30 27 C 0.080092 -4.530630 -1.794716 0
M  V30 28 C -0.438630 -5.143589 -3.060796 0
M  V30 29 C -0.977971 -4.710219 -0.721073 0
M  V30 30 C 1.092582 -2.380424 -1.133057 0
M  V30 31 N 1.794267 -2.670104 -0.026638 0
M  V30 32 H 0.491996 0.323596 2.724617 0
M  V30 33 H -0.868645 -0.137053 3.742446 0
M  V30 34 H 0.847472 -0.074831 4.422004 0
M  V30 35 H 0.208198 -1.924383 2.149506 0
M  V30 36 H -0.334763 -2.380962 3.767467 0
M  V30 37 H 1.839093 -3.401727 3.473411 0
M  V30 38 H 1.793095 -2.190274 4.776417 0
M  V30 39 H 3.835005 -2.034957 3.700144 0
M  V30 40 H 3.773628 0.086644 2.966435 0
M  V30 41 H 4.168324 -2.233652 1.329387 0
M  V30 42 H 2.592414 1.726468 -1.961936 0
M  V30 43 H 1.776353 4.005852 -1.594450 0
M  V30 44 H -0.209547 5.405852 -0.891730 0
M  V30 45 H -2.232727 4.452655 0.015455 0
M  V30 46 H -5.713350 2.941520 1.523560 0
M  V30 47 H -5.982288 0.571615 1.818938 0
M  V30 48 H -4.159325 -1.032016 1.221132 0
M  V30 49 H -0.514153 0.591861 -0.376747 0
M  V30 50 H -0.819607 -2.598110 -3.773887 0
M  V30 51 H 1.027436 -4.976174 -1.448548 0
M  V30 52 H -0.777957 -6.180740 -2.799947 0
M  V30 53 H -1.344930 -4.588145 -3.354972 0
M  V30 54 H 0.349391 -5.148867 -3.822248 0
M  V30 55 H -0.618687 -4.362083 0.289680 0
M  V30 56 H -1.797019 -3.985893 -0.992936 0
M  V30 57 H -1.369100 -5.730177 -0.697452 0
M  V30 END ATOM
M  V30 BEGIN BOND
M  V30 1 1 1 2
M  V30 2 1 2 3
M  V30 3 1 3 4
M  V30 4 1 4 5
M  V30 5 1 4 6
M  V30 6 1 6 7
M  V30 7 2 7 8
M  V30 8 1 8 9
M  V30 9 1 9 10
M  V30 10 1 10 11
M  V30 11 2 11 12
M  V30 12 1 12 13
M  V30 13 2 13 14
M  V30 14 1 14 15
M  V30 15 1 15 16
M  V30 16 2 16 17
M  V30 17 1 17 18
M  V30 18 2 18 19
M  V30 19 1 19 20
M  V30 20 2 20 21
M  V30 21 2 15 22
M  V30 22 2 9 23
M  V30 23 1 23 24
M  V30 24 2 24 25
M  V30 25 1 25 26
M  V30 26 1 26 27
M  V30 27 1 27 28
M  V30 28 1 27 29
M  V30 29 1 26 30
M  V30 30 2 30 31
M  V30 31 1 31 7
M  V30 32 1 22 11
M  V30 33 1 30 23
M  V30 34 1 21 16
M  V30 35 1 1 32
M  V30 36 1 1 33
M  V30 37 1 1 34
M  V30 38 1 2 35
M  V30 39 1 2 36
M  V30 40 1 3 37
M  V30 41 1 3 38
M  V30 42 1 4 39 CFG=1
M  V30 43 1 5 40
M  V30 44 1 6 41
M  V30 45 1 10 42
M  V30 46 1 12 43
M  V30 47 1 13 44
M  V30 48 1 14 45
M  V30 49 1 18 46
M  V30 50 1 19 47
M  V30 51 1 20 48
M  V30 52 1 22 49
M  V30 53 1 25 50
M  V30 54 1 27 51
M  V30 55 1 28 52
M  V30 56 1 28 53
M  V30 57 1 28 54
M  V30 58 1 29 55
M  V30 59 1 29 56
M  V30 60 1 29 57
M  V30 END BOND
M  V30 END CTAB
M  END
>  <Dataset>  (820) 
ChEMBL_Kinases

>  <Ligand_Instance>  (820) 
nan

>  <PDB_ID>  (820) 
nan

>  <Standardized_SMILES>  (820) 
CCC[C@H](O)Nc1nc(Nc2cccc(-c3ncccn3)c2)c2ncn(C(C)C)c2n1

>  <Name>  (820) 
nan

>  <Pocket>  (820) 
nan

>  <ATP_Site>  (820) 
nan

>  <Peripheral>  (820) 
nan

>  <Num_H_Atoms_ProtBoundConf>  (820) 
nan

>  <Num_Resolved_Atoms>  (820) 
nan

>  <Num_Not_Resolved_Atoms>  (820) 
nan

$$$$
CHEMBL2295937
     RDKit          3D

  0  0  0  0  0  0  0  0  0  0999 V3000
M  V30 BEGIN CTAB
M  V30 COUNTS 60 63 0 0 0
M  V30 BEGIN ATOM
M  V30 1 C 1.360854 0.336053 4.036174 0
M  V30 2 C 2.498479 -0.603658 3.829752 0
M  V30 3 C 3.528816 -0.521413 4.937655 0
M  V30 4 C 3.215517 -0.392042 2.519751 0
M  V30 5 C 2.253248 -0.591175 1.407346 0 CFG=1
M  V30 6 O 1.203461 0.306858 1.482438 0
M  V30 7 N 2.854525 -0.493616 0.073701 0
M  V30 8 C 1.786228 -0.676774 -0.860858 0
M  V30 9 N 1.078429 0.460078 -1.057951 0
M  V30 10 C 0.020671 0.522951 -1.900767 0
M  V30 11 N -0.650514 1.775244 -2.011187 0
M  V30 12 C -1.690718 1.998178 -1.035857 0
M  V30 13 C -2.382350 3.189872 -0.961339 0
M  V30 14 C -3.379656 3.420575 -0.033616 0
M  V30 15 C -3.690999 2.403490 0.856769 0
M  V30 16 C -3.044824 1.189798 0.843200 0
M  V30 17 C -3.318793 0.084604 1.747367 0
M  V30 18 N -2.601219 -1.032177 1.623553 0
M  V30 19 C -2.736207 -2.131790 2.375059 0
M  V30 20 C -3.728972 -2.033785 3.351195 0
M  V30 21 C -4.488186 -0.903259 3.512511 0
M  V30 22 N -4.273734 0.166056 2.695031 0
M  V30 23 C -2.065820 1.042785 -0.111899 0
M  V30 24 C -0.305992 -0.639430 -2.557109 0
M  V30 25 N -1.296327 -0.857568 -3.438125 0
M  V30 26 C -1.253776 -2.156155 -3.837922 0
M  V30 27 N -0.204183 -2.718007 -3.170159 0
M  V30 28 C 0.344883 -4.080454 -3.177819 0
M  V30 29 C 1.644679 -4.133889 -3.938416 0
M  V30 30 C 0.560477 -4.553195 -1.751993 0
M  V30 31 C 0.393045 -1.812228 -2.379083 0
M  V30 32 N 1.438082 -1.795156 -1.519790 0
M  V30 33 H 1.162031 0.459700 5.129392 0
M  V30 34 H 1.514838 1.310428 3.546304 0
M  V30 35 H 0.426467 -0.103871 3.603074 0
M  V30 36 H 2.070816 -1.644109 3.870108 0
M  V30 37 H 4.327229 -1.249206 4.699273 0
M  V30 38 H 3.017534 -0.820015 5.866073 0
M  V30 39 H 3.889767 0.529286 4.965119 0
M  V30 40 H 3.616692 0.648286 2.467197 0
M  V30 41 H 4.058112 -1.114529 2.407022 0
M  V30 42 H 1.810842 -1.624662 1.481563 0
M  V30 43 H 1.417004 1.213220 1.163776 0
M  V30 44 H 3.756876 -0.342888 -0.422144 0
M  V30 45 H -0.490110 2.528372 -2.683805 0
M  V30 46 H -2.169211 3.988711 -1.627092 0
M  V30 47 H -3.928013 4.345080 0.035890 0
M  V30 48 H -4.463442 2.559254 1.586908 0
M  V30 49 H -2.128270 -3.037326 2.245383 0
M  V30 50 H -3.907951 -2.871945 4.002765 0
M  V30 51 H -5.252343 -0.879770 4.292435 0
M  V30 52 H -1.521983 0.102379 -0.168521 0
M  V30 53 H -1.865537 -2.720414 -4.525641 0
M  V30 54 H -0.352105 -4.796704 -3.657275 0
M  V30 55 H 2.343227 -4.810329 -3.374411 0
M  V30 56 H 1.553299 -4.592158 -4.941960 0
M  V30 57 H 2.116185 -3.138003 -4.073498 0
M  V30 58 H 0.210385 -3.805681 -1.011794 0
M  V30 59 H 0.032058 -5.524470 -1.557343 0
M  V30 60 H 1.643159 -4.724374 -1.601539 0
M  V30 END ATOM
M  V30 BEGIN BOND
M  V30 1 1 1 2
M  V30 2 1 2 3
M  V30 3 1 2 4
M  V30 4 1 4 5
M  V30 5 1 5 6
M  V30 6 1 5 7
M  V30 7 1 7 8
M  V30 8 2 8 9
M  V30 9 1 9 10
M  V30 10 1 10 11
M  V30 11 1 11 12
M  V30 12 2 12 13
M  V30 13 1 13 14
M  V30 14 2 14 15
M  V30 15 1 15 16
M  V30 16 1 16 17
M  V30 17 2 17 18
M  V30 18 1 18 19
M  V30 19 2 19 20
M  V30 20 1 20 21
M  V30 21 2 21 22
M  V30 22 2 16 23
M  V30 23 2 10 24
M  V30 24 1 24 25
M  V30 25 2 25 26
M  V30 26 1 26 27
M  V30 27 1 27 28
M  V30 28 1 28 29
M  V30 29 1 28 30
M  V30 30 1 27 31
M  V30 31 2 31 32
M  V30 32 1 32 8
M  V30 33 1 23 12
M  V30 34 1 31 24
M  V30 35 1 22 17
M  V30 36 1 1 33
M  V30 37 1 1 34
M  V30 38 1 1 35
M  V30 39 1 2 36
M  V30 40 1 3 37
M  V30 41 1 3 38
M  V30 42 1 3 39
M  V30 43 1 4 40
M  V30 44 1 4 41
M  V30 45 1 5 42 CFG=1
M  V30 46 1 6 43
M  V30 47 1 7 44
M  V30 48 1 11 45
M  V30 49 1 13 46
M  V30 50 1 14 47
M  V30 51 1 15 48
M  V30 52 1 19 49
M  V30 53 1 20 50
M  V30 54 1 21 51
M  V30 55 1 23 52
M  V30 56 1 26 53
M  V30 57 1 28 54
M  V30 58 1 29 55
M  V30 59 1 29 56
M  V30 60 1 29 57
M  V30 61 1 30 58
M  V30 62 1 30 59
M  V30 63 1 30 60
M  V30 END BOND
M  V30 END CTAB
M  END
>  <Dataset>  (821) 
ChEMBL_Kinases

>  <Ligand_Instance>  (821) 
nan

>  <PDB_ID>  (821) 
nan

>  <Standardized_SMILES>  (821) 
CC(C)C[C@@H](O)Nc1nc(Nc2cccc(-c3ncccn3)c2)c2ncn(C(C)C)c2n1

>  <Name>  (821) 
nan

>  <Pocket>  (821) 
nan

>  <ATP_Site>  (821) 
nan

>  <Peripheral>  (821) 
nan

>  <Num_H_Atoms_ProtBoundConf>  (821) 
nan

>  <Num_Resolved_Atoms>  (821) 
nan

>  <Num_Not_Resolved_Atoms>  (821) 
nan

$$$$
CHEMBL2295938
     RDKit          3D

  0  0  0  0  0  0  0  0  0  0999 V3000
M  V30 BEGIN CTAB
M  V30 COUNTS 60 63 0 0 0
M  V30 BEGIN ATOM
M  V30 1 C 1.305220 0.411410 2.832402 0
M  V30 2 C 1.928994 -0.847678 2.296258 0
M  V30 3 C 1.883947 -1.855543 3.441607 0
M  V30 4 C 3.381904 -0.694422 1.956422 0
M  V30 5 C 3.692254 0.327333 0.937071 0 CFG=2
M  V30 6 O 3.311147 1.621125 1.259162 0
M  V30 7 N 3.264930 0.014050 -0.408683 0
M  V30 8 C 2.019065 -0.315064 -1.001905 0
M  V30 9 N 1.178363 0.711707 -1.141004 0
M  V30 10 C -0.060381 0.605149 -1.699655 0
M  V30 11 N -0.842584 1.816172 -1.753410 0
M  V30 12 C -1.796021 2.004578 -0.686628 0
M  V30 13 C -2.492534 3.194612 -0.510784 0
M  V30 14 C -3.416105 3.373842 0.501615 0
M  V30 15 C -3.666932 2.328308 1.385923 0
M  V30 16 C -2.989347 1.131075 1.235938 0
M  V30 17 C -3.254198 0.013606 2.161224 0
M  V30 18 N -2.564531 -1.146814 1.973340 0
M  V30 19 C -2.782547 -2.215919 2.795190 0
M  V30 20 C -3.722092 -2.018390 3.785885 0
M  V30 21 C -4.436765 -0.843201 3.994904 0
M  V30 22 N -4.158185 0.170538 3.131984 0
M  V30 23 C -2.082716 1.017978 0.207946 0
M  V30 24 C -0.423123 -0.641476 -2.130191 0
M  V30 25 N -1.587164 -0.992405 -2.709859 0
M  V30 26 C -1.474091 -2.332997 -2.954730 0
M  V30 27 N -0.250773 -2.740835 -2.515589 0
M  V30 28 C 0.365993 -4.072284 -2.542735 0
M  V30 29 C 1.525233 -4.005294 -3.509757 0
M  V30 30 C 0.924330 -4.380618 -1.175142 0
M  V30 31 C 0.443399 -1.702169 -1.987656 0
M  V30 32 N 1.636737 -1.537883 -1.435098 0
M  V30 33 H 0.502701 0.159954 3.563524 0
M  V30 34 H 1.995372 1.098111 3.337514 0
M  V30 35 H 0.748540 0.952473 2.009168 0
M  V30 36 H 1.338054 -1.263733 1.467906 0
M  V30 37 H 2.513788 -2.734932 3.273760 0
M  V30 38 H 0.848336 -2.080039 3.728173 0
M  V30 39 H 2.339222 -1.298620 4.312407 0
M  V30 40 H 3.938716 -0.537893 2.894000 0
M  V30 41 H 3.717719 -1.677482 1.567639 0
M  V30 42 H 4.820139 0.367187 0.868988 0
M  V30 43 H 2.648891 1.924484 0.585656 0
M  V30 44 H 3.886670 -0.026751 -1.270924 0
M  V30 45 H -0.730600 2.509302 -2.505745 0
M  V30 46 H -2.300651 4.008797 -1.193359 0
M  V30 47 H -3.952073 4.324811 0.620403 0
M  V30 48 H -4.377248 2.403762 2.199001 0
M  V30 49 H -2.290602 -3.176155 2.734567 0
M  V30 50 H -3.929738 -2.854336 4.469312 0
M  V30 51 H -5.159299 -0.703510 4.761778 0
M  V30 52 H -1.535674 0.076336 0.073644 0
M  V30 53 H -2.190538 -2.998808 -3.410158 0
M  V30 54 H -0.371286 -4.833019 -2.797590 0
M  V30 55 H 2.488153 -4.308765 -3.027924 0
M  V30 56 H 1.328043 -4.711296 -4.338985 0
M  V30 57 H 1.655575 -2.975283 -3.921670 0
M  V30 58 H 0.997816 -5.477591 -1.061821 0
M  V30 59 H 0.223132 -3.997072 -0.377953 0
M  V30 60 H 1.942086 -3.913386 -1.030486 0
M  V30 END ATOM
M  V30 BEGIN BOND
M  V30 1 1 1 2
M  V30 2 1 2 3
M  V30 3 1 2 4
M  V30 4 1 4 5
M  V30 5 1 5 6
M  V30 6 1 5 7
M  V30 7 1 7 8
M  V30 8 2 8 9
M  V30 9 1 9 10
M  V30 10 1 10 11
M  V30 11 1 11 12
M  V30 12 2 12 13
M  V30 13 1 13 14
M  V30 14 2 14 15
M  V30 15 1 15 16
M  V30 16 1 16 17
M  V30 17 2 17 18
M  V30 18 1 18 19
M  V30 19 2 19 20
M  V30 20 1 20 21
M  V30 21 2 21 22
M  V30 22 2 16 23
M  V30 23 2 10 24
M  V30 24 1 24 25
M  V30 25 2 25 26
M  V30 26 1 26 27
M  V30 27 1 27 28
M  V30 28 1 28 29
M  V30 29 1 28 30
M  V30 30 1 27 31
M  V30 31 2 31 32
M  V30 32 1 32 8
M  V30 33 1 23 12
M  V30 34 1 31 24
M  V30 35 1 22 17
M  V30 36 1 1 33
M  V30 37 1 1 34
M  V30 38 1 1 35
M  V30 39 1 2 36
M  V30 40 1 3 37
M  V30 41 1 3 38
M  V30 42 1 3 39
M  V30 43 1 4 40
M  V30 44 1 4 41
M  V30 45 1 5 42 CFG=3
M  V30 46 1 6 43
M  V30 47 1 7 44
M  V30 48 1 11 45
M  V30 49 1 13 46
M  V30 50 1 14 47
M  V30 51 1 15 48
M  V30 52 1 19 49
M  V30 53 1 20 50
M  V30 54 1 21 51
M  V30 55 1 23 52
M  V30 56 1 26 53
M  V30 57 1 28 54
M  V30 58 1 29 55
M  V30 59 1 29 56
M  V30 60 1 29 57
M  V30 61 1 30 58
M  V30 62 1 30 59
M  V30 63 1 30 60
M  V30 END BOND
M  V30 END CTAB
M  END
>  <Dataset>  (822) 
ChEMBL_Kinases

>  <Ligand_Instance>  (822) 
nan

>  <PDB_ID>  (822) 
nan

>  <Standardized_SMILES>  (822) 
CC(C)C[C@H](O)Nc1nc(Nc2cccc(-c3ncccn3)c2)c2ncn(C(C)C)c2n1

>  <Name>  (822) 
nan

>  <Pocket>  (822) 
nan

>  <ATP_Site>  (822) 
nan

>  <Peripheral>  (822) 
nan

>  <Num_H_Atoms_ProtBoundConf>  (822) 
nan

>  <Num_Resolved_Atoms>  (822) 
nan

>  <Num_Not_Resolved_Atoms>  (822) 
nan

$$$$
CHEMBL2295939
     RDKit          3D

  0  0  0  0  0  0  0  0  0  0999 V3000
M  V30 BEGIN CTAB
M  V30 COUNTS 57 60 0 0 0
M  V30 BEGIN ATOM
M  V30 1 C 0.638994 -0.036965 3.914885 0
M  V30 2 C 1.230455 -1.028570 2.981398 0
M  V30 3 C 1.053592 -2.465350 3.503315 0
M  V30 4 C 2.693718 -0.800677 2.698637 0
M  V30 5 O 2.955565 0.429416 2.135853 0
M  V30 6 N 3.168453 -1.816886 1.753365 0
M  V30 7 C 2.429605 -1.650300 0.524798 0
M  V30 8 N 2.398964 -0.421651 -0.040446 0
M  V30 9 C 1.730024 -0.173345 -1.194518 0
M  V30 10 N 1.806360 1.173968 -1.630018 0
M  V30 11 C 0.729101 1.977135 -1.149670 0
M  V30 12 C 0.764244 3.367424 -1.230880 0
M  V30 13 C -0.215323 4.217051 -0.805930 0
M  V30 14 C -1.343235 3.645634 -0.246281 0
M  V30 15 C -1.458168 2.267751 -0.128120 0
M  V30 16 C -2.679752 1.717911 0.452147 0
M  V30 17 N -3.633977 2.523438 0.908004 0
M  V30 18 C -4.786859 2.097981 1.439959 0
M  V30 19 C -5.030164 0.728424 1.534821 0
M  V30 20 C -4.030272 -0.119787 1.056855 0
M  V30 21 N -2.889616 0.382594 0.532139 0
M  V30 22 C -0.427650 1.480315 -0.578865 0
M  V30 23 C 1.078402 -1.233414 -1.770837 0
M  V30 24 N 0.363963 -1.218274 -2.896358 0
M  V30 25 C -0.101027 -2.489430 -3.089056 0
M  V30 26 N 0.360061 -3.240678 -2.051243 0
M  V30 27 C 0.172014 -4.659552 -1.737370 0
M  V30 28 C -0.812008 -5.206831 -2.747513 0
M  V30 29 C -0.505029 -4.794915 -0.368461 0
M  V30 30 C 1.108366 -2.492125 -1.194701 0
M  V30 31 N 1.775040 -2.688421 -0.065438 0
M  V30 32 H -0.084875 0.664246 3.426034 0
M  V30 33 H 0.040295 -0.579022 4.678794 0
M  V30 34 H 1.378045 0.587568 4.461604 0
M  V30 35 H 0.686305 -0.994011 2.018027 0
M  V30 36 H 0.019926 -2.595641 3.840644 0
M  V30 37 H 1.789625 -2.658697 4.298043 0
M  V30 38 H 1.254934 -3.186700 2.681633 0
M  V30 39 H 3.241678 -0.870174 3.652586 0
M  V30 40 H 2.175691 0.997919 1.947705 0
M  V30 41 H 3.917152 -2.471077 2.078067 0
M  V30 42 H 2.511222 1.655707 -2.236534 0
M  V30 43 H 1.661079 3.816581 -1.677261 0
M  V30 44 H -0.087567 5.302338 -0.915524 0
M  V30 45 H -2.114436 4.336595 0.086243 0
M  V30 46 H -5.509209 2.840231 1.786959 0
M  V30 47 H -5.960669 0.394358 1.964890 0
M  V30 48 H -4.252681 -1.183932 1.144282 0
M  V30 49 H -0.472368 0.398449 -0.509904 0
M  V30 50 H -0.714890 -2.886326 -3.882739 0
M  V30 51 H 1.120655 -5.197372 -1.718163 0
M  V30 52 H -1.285717 -6.106292 -2.278970 0
M  V30 53 H -1.617394 -4.447487 -2.863196 0
M  V30 54 H -0.295295 -5.408493 -3.686048 0
M  V30 55 H -0.768349 -5.838613 -0.217717 0
M  V30 56 H -1.338584 -4.067503 -0.297633 0
M  V30 57 H 0.223601 -4.488274 0.398800 0
M  V30 END ATOM
M  V30 BEGIN BOND
M  V30 1 1 1 2
M  V30 2 1 2 3
M  V30 3 1 2 4
M  V30 4 1 4 5
M  V30 5 1 4 6
M  V30 6 1 6 7
M  V30 7 2 7 8
M  V30 8 1 8 9
M  V30 9 1 9 10
M  V30 10 1 10 11
M  V30 11 2 11 12
M  V30 12 1 12 13
M  V30 13 2 13 14
M  V30 14 1 14 15
M  V30 15 1 15 16
M  V30 16 2 16 17
M  V30 17 1 17 18
M  V30 18 2 18 19
M  V30 19 1 19 20
M  V30 20 2 20 21
M  V30 21 2 15 22
M  V30 22 2 9 23
M  V30 23 1 23 24
M  V30 24 2 24 25
M  V30 25 1 25 26
M  V30 26 1 26 27
M  V30 27 1 27 28
M  V30 28 1 27 29
M  V30 29 1 26 30
M  V30 30 2 30 31
M  V30 31 1 31 7
M  V30 32 1 22 11
M  V30 33 1 30 23
M  V30 34 1 21 16
M  V30 35 1 1 32
M  V30 36 1 1 33
M  V30 37 1 1 34
M  V30 38 1 2 35
M  V30 39 1 3 36
M  V30 40 1 3 37
M  V30 41 1 3 38
M  V30 42 1 4 39
M  V30 43 1 5 40
M  V30 44 1 6 41
M  V30 45 1 10 42
M  V30 46 1 12 43
M  V30 47 1 13 44
M  V30 48 1 14 45
M  V30 49 1 18 46
M  V30 50 1 19 47
M  V30 51 1 20 48
M  V30 52 1 22 49
M  V30 53 1 25 50
M  V30 54 1 27 51
M  V30 55 1 28 52
M  V30 56 1 28 53
M  V30 57 1 28 54
M  V30 58 1 29 55
M  V30 59 1 29 56
M  V30 60 1 29 57
M  V30 END BOND
M  V30 END CTAB
M  END
>  <Dataset>  (823) 
ChEMBL_Kinases

>  <Ligand_Instance>  (823) 
nan

>  <PDB_ID>  (823) 
nan

>  <Standardized_SMILES>  (823) 
CC(C)C(O)Nc1nc(Nc2cccc(-c3ncccn3)c2)c2ncn(C(C)C)c2n1

>  <Name>  (823) 
nan

>  <Pocket>  (823) 
nan

>  <ATP_Site>  (823) 
nan

>  <Peripheral>  (823) 
nan

>  <Num_H_Atoms_ProtBoundConf>  (823) 
nan

>  <Num_Resolved_Atoms>  (823) 
nan

>  <Num_Not_Resolved_Atoms>  (823) 
nan

$$$$
CHEMBL2295940
     RDKit          3D

  0  0  0  0  0  0  0  0  0  0999 V3000
M  V30 BEGIN CTAB
M  V30 COUNTS 55 58 0 0 0
M  V30 BEGIN ATOM
M  V30 1 C 0.373036 -2.199133 4.211905 0
M  V30 2 C 0.879706 -3.240810 3.238524 0
M  V30 3 O 0.761412 -4.477584 3.855043 0
M  V30 4 C 2.361610 -2.966199 3.006527 0
M  V30 5 O 2.976439 -2.986904 4.234712 0
M  V30 6 N 2.566630 -1.692796 2.365331 0
M  V30 7 C 2.052905 -1.367376 1.079010 0
M  V30 8 N 2.254257 -0.145822 0.505178 0
M  V30 9 C 1.800057 0.199627 -0.690731 0
M  V30 10 N 2.108453 1.523844 -1.119061 0
M  V30 11 C 1.163908 2.569653 -0.905871 0
M  V30 12 C 1.423127 3.912955 -1.204870 0
M  V30 13 C 0.485922 4.900543 -0.996593 0
M  V30 14 C -0.765252 4.568608 -0.472376 0
M  V30 15 C -1.054554 3.255561 -0.166624 0
M  V30 16 C -2.345170 2.838347 0.380362 0
M  V30 17 N -2.522599 1.530684 0.638151 0
M  V30 18 C -3.670159 1.029337 1.139575 0
M  V30 19 C -4.699736 1.941357 1.389748 0
M  V30 20 C -4.533391 3.282377 1.131234 0
M  V30 21 N -3.338340 3.707920 0.623292 0
M  V30 22 C -0.090622 2.303289 -0.389957 0
M  V30 23 C 1.074737 -0.723117 -1.415762 0
M  V30 24 N 0.518974 -0.615511 -2.623266 0
M  V30 25 C -0.073472 -1.799534 -2.868417 0
M  V30 26 N 0.136650 -2.604891 -1.798318 0
M  V30 27 C -0.353234 -3.967990 -1.693276 0
M  V30 28 C 0.362650 -4.754165 -0.642495 0
M  V30 29 C -1.830357 -4.061921 -1.464642 0
M  V30 30 C 0.856671 -1.964963 -0.858963 0
M  V30 31 N 1.341815 -2.241424 0.343965 0
M  V30 32 H 0.130286 -1.251387 3.733462 0
M  V30 33 H -0.470404 -2.607098 4.801428 0
M  V30 34 H 1.222927 -2.054925 4.942647 0
M  V30 35 H 0.383616 -3.246826 2.273230 0
M  V30 36 H 1.612685 -4.981043 3.827175 0
M  V30 37 H 2.775541 -3.802980 2.404148 0
M  V30 38 H 3.381783 -2.088235 4.437554 0
M  V30 39 H 3.122406 -0.945531 2.851939 0
M  V30 40 H 3.008784 1.772658 -1.590816 0
M  V30 41 H 2.408645 4.168460 -1.617255 0
M  V30 42 H 0.682357 5.921823 -1.223822 0
M  V30 43 H -1.550415 5.315626 -0.285594 0
M  V30 44 H -3.859491 -0.011417 1.362663 0
M  V30 45 H -5.664630 1.614024 1.798098 0
M  V30 46 H -5.295651 4.013700 1.307823 0
M  V30 47 H -0.280591 1.262259 -0.161925 0
M  V30 48 H -0.634182 -2.082714 -3.771796 0
M  V30 49 H -0.097660 -4.453236 -2.671993 0
M  V30 50 H 1.444559 -4.546007 -0.559306 0
M  V30 51 H 0.147570 -5.829040 -0.841679 0
M  V30 52 H -0.156956 -4.532286 0.331281 0
M  V30 53 H -2.140845 -5.103820 -1.714187 0
M  V30 54 H -2.429976 -3.288955 -1.983820 0
M  V30 55 H -2.017349 -3.937949 -0.373342 0
M  V30 END ATOM
M  V30 BEGIN BOND
M  V30 1 1 1 2
M  V30 2 1 2 3
M  V30 3 1 2 4
M  V30 4 1 4 5
M  V30 5 1 4 6
M  V30 6 1 6 7
M  V30 7 2 7 8
M  V30 8 1 8 9
M  V30 9 1 9 10
M  V30 10 1 10 11
M  V30 11 2 11 12
M  V30 12 1 12 13
M  V30 13 2 13 14
M  V30 14 1 14 15
M  V30 15 1 15 16
M  V30 16 2 16 17
M  V30 17 1 17 18
M  V30 18 2 18 19
M  V30 19 1 19 20
M  V30 20 2 20 21
M  V30 21 2 15 22
M  V30 22 2 9 23
M  V30 23 1 23 24
M  V30 24 2 24 25
M  V30 25 1 25 26
M  V30 26 1 26 27
M  V30 27 1 27 28
M  V30 28 1 27 29
M  V30 29 1 26 30
M  V30 30 2 30 31
M  V30 31 1 31 7
M  V30 32 1 22 11
M  V30 33 1 30 23
M  V30 34 1 21 16
M  V30 35 1 1 32
M  V30 36 1 1 33
M  V30 37 1 1 34
M  V30 38 1 2 35
M  V30 39 1 3 36
M  V30 40 1 4 37
M  V30 41 1 5 38
M  V30 42 1 6 39
M  V30 43 1 10 40
M  V30 44 1 12 41
M  V30 45 1 13 42
M  V30 46 1 14 43
M  V30 47 1 18 44
M  V30 48 1 19 45
M  V30 49 1 20 46
M  V30 50 1 22 47
M  V30 51 1 25 48
M  V30 52 1 27 49
M  V30 53 1 28 50
M  V30 54 1 28 51
M  V30 55 1 28 52
M  V30 56 1 29 53
M  V30 57 1 29 54
M  V30 58 1 29 55
M  V30 END BOND
M  V30 END CTAB
M  END
>  <Dataset>  (824) 
ChEMBL_Kinases

>  <Ligand_Instance>  (824) 
nan

>  <PDB_ID>  (824) 
nan

>  <Standardized_SMILES>  (824) 
CC(O)C(O)Nc1nc(Nc2cccc(-c3ncccn3)c2)c2ncn(C(C)C)c2n1

>  <Name>  (824) 
nan

>  <Pocket>  (824) 
nan

>  <ATP_Site>  (824) 
nan

>  <Peripheral>  (824) 
nan

>  <Num_H_Atoms_ProtBoundConf>  (824) 
nan

>  <Num_Resolved_Atoms>  (824) 
nan

>  <Num_Not_Resolved_Atoms>  (824) 
nan

$$$$
CHEMBL2295950
     RDKit          3D

  0  0  0  0  0  0  0  0  0  0999 V3000
M  V30 BEGIN CTAB
M  V30 COUNTS 60 63 0 0 0
M  V30 BEGIN ATOM
M  V30 1 C 1.164693 -0.814397 3.055565 0
M  V30 2 C 1.860880 -1.984487 2.411690 0
M  V30 3 C 2.589872 -2.695961 3.564673 0
M  V30 4 C 2.939713 -1.541719 1.456654 0
M  V30 5 C 2.455414 -0.685467 0.337574 0 CFG=2
M  V30 6 O 1.865297 0.477149 0.841618 0
M  V30 7 N 1.646254 -1.347727 -0.652824 0
M  V30 8 C 0.430577 -2.067438 -0.507127 0
M  V30 9 N -0.580564 -1.183937 -0.326959 0
M  V30 10 C -1.866275 -1.540464 -0.155145 0
M  V30 11 N -2.920388 -0.572834 0.046580 0
M  V30 12 C -2.419650 0.777664 -0.032105 0
M  V30 13 C -2.007316 1.273443 -1.264639 0
M  V30 14 C -1.514816 2.577562 -1.277095 0
M  V30 15 C -1.439441 3.336901 -0.130160 0
M  V30 16 C -0.906968 4.691417 -0.243705 0
M  V30 17 N -0.485496 5.280238 -1.400560 0
M  V30 18 C -0.010825 6.522127 -1.430027 0
M  V30 19 C 0.071706 7.273564 -0.261819 0
M  V30 20 C -0.353549 6.682343 0.913174 0
M  V30 21 N -0.815015 5.440175 0.868699 0
M  V30 22 C -1.857489 2.821415 1.094329 0
M  V30 23 C -2.355347 1.525522 1.152410 0
M  V30 24 C -2.121310 -2.896401 -0.171213 0
M  V30 25 N -3.257371 -3.590690 -0.033500 0
M  V30 26 C -2.918865 -4.910586 -0.133655 0
M  V30 27 N -1.609361 -5.048048 -0.328283 0
M  V30 28 C -0.883402 -6.285267 -0.477836 0
M  V30 29 C -0.401909 -6.357842 -1.924690 0
M  V30 30 C 0.372657 -6.155653 0.372453 0
M  V30 31 C -1.109634 -3.802668 -0.352710 0
M  V30 32 N 0.160729 -3.395709 -0.520227 0
M  V30 33 H 0.730359 -1.136680 4.006246 0
M  V30 34 H 1.898104 -0.013024 3.202462 0
M  V30 35 H 0.333375 -0.402386 2.448053 0
M  V30 36 H 1.103155 -2.648094 1.964984 0
M  V30 37 H 3.140398 -3.576466 3.245443 0
M  V30 38 H 1.883846 -2.911346 4.391442 0
M  V30 39 H 3.306022 -1.934206 3.938171 0
M  V30 40 H 3.670093 -0.955481 2.047936 0
M  V30 41 H 3.489007 -2.428942 1.048994 0
M  V30 42 H 3.382904 -0.352401 -0.218191 0
M  V30 43 H 2.559663 1.171366 0.938787 0
M  V30 44 H 1.742558 -1.466709 -1.705874 0
M  V30 45 H -3.878308 -0.956906 0.217056 0
M  V30 46 H -2.071715 0.674636 -2.164141 0
M  V30 47 H -1.196338 2.954504 -2.245191 0
M  V30 48 H 0.262601 6.786026 -2.431967 0
M  V30 49 H 0.484685 8.270651 -0.484369 0
M  V30 50 H -0.247196 7.347946 1.749611 0
M  V30 51 H -1.788783 3.433338 1.998106 0
M  V30 52 H -2.676963 1.133159 2.101648 0
M  V30 53 H -3.622142 -5.742200 -0.062190 0
M  V30 54 H -1.480295 -7.165877 -0.181133 0
M  V30 55 H -0.271246 -5.302720 -2.283396 0
M  V30 56 H -1.148523 -6.830446 -2.568409 0
M  V30 57 H 0.573335 -6.867712 -2.029369 0
M  V30 58 H 0.706169 -7.116138 0.794568 0
M  V30 59 H 0.163947 -5.481676 1.253910 0
M  V30 60 H 1.185162 -5.629406 -0.199460 0
M  V30 END ATOM
M  V30 BEGIN BOND
M  V30 1 1 1 2
M  V30 2 1 2 3
M  V30 3 1 2 4
M  V30 4 1 4 5
M  V30 5 1 5 6
M  V30 6 1 5 7
M  V30 7 1 7 8
M  V30 8 2 8 9
M  V30 9 1 9 10
M  V30 10 1 10 11
M  V30 11 1 11 12
M  V30 12 2 12 13
M  V30 13 1 13 14
M  V30 14 2 14 15
M  V30 15 1 15 16
M  V30 16 2 16 17
M  V30 17 1 17 18
M  V30 18 2 18 19
M  V30 19 1 19 20
M  V30 20 2 20 21
M  V30 21 1 15 22
M  V30 22 2 22 23
M  V30 23 2 10 24
M  V30 24 1 24 25
M  V30 25 2 25 26
M  V30 26 1 26 27
M  V30 27 1 27 28
M  V30 28 1 28 29
M  V30 29 1 28 30
M  V30 30 1 27 31
M  V30 31 2 31 32
M  V30 32 1 32 8
M  V30 33 1 23 12
M  V30 34 1 31 24
M  V30 35 1 21 16
M  V30 36 1 1 33
M  V30 37 1 1 34
M  V30 38 1 1 35
M  V30 39 1 2 36
M  V30 40 1 3 37
M  V30 41 1 3 38
M  V30 42 1 3 39
M  V30 43 1 4 40
M  V30 44 1 4 41
M  V30 45 1 5 42 CFG=3
M  V30 46 1 6 43
M  V30 47 1 7 44
M  V30 48 1 11 45
M  V30 49 1 13 46
M  V30 50 1 14 47
M  V30 51 1 18 48
M  V30 52 1 19 49
M  V30 53 1 20 50
M  V30 54 1 22 51
M  V30 55 1 23 52
M  V30 56 1 26 53
M  V30 57 1 28 54
M  V30 58 1 29 55
M  V30 59 1 29 56
M  V30 60 1 29 57
M  V30 61 1 30 58
M  V30 62 1 30 59
M  V30 63 1 30 60
M  V30 END BOND
M  V30 END CTAB
M  END
>  <Dataset>  (825) 
ChEMBL_Kinases

>  <Ligand_Instance>  (825) 
nan

>  <PDB_ID>  (825) 
nan

>  <Standardized_SMILES>  (825) 
CC(C)C[C@H](O)Nc1nc(Nc2ccc(-c3ncccn3)cc2)c2ncn(C(C)C)c2n1

>  <Name>  (825) 
nan

>  <Pocket>  (825) 
nan

>  <ATP_Site>  (825) 
nan

>  <Peripheral>  (825) 
nan

>  <Num_H_Atoms_ProtBoundConf>  (825) 
nan

>  <Num_Resolved_Atoms>  (825) 
nan

>  <Num_Not_Resolved_Atoms>  (825) 
nan

$$$$
CHEMBL2295941
     RDKit          3D

  0  0  0  0  0  0  0  0  0  0999 V3000
M  V30 BEGIN CTAB
M  V30 COUNTS 63 66 0 0 0
M  V30 BEGIN ATOM
M  V30 1 C 4.631410 -2.239104 4.833622 0
M  V30 2 C 3.204633 -2.497016 5.275722 0
M  V30 3 C 2.605618 -1.260038 5.921778 0
M  V30 4 C 2.368960 -2.861808 4.065905 0
M  V30 5 C 2.352876 -1.741912 3.052182 0
M  V30 6 C 1.500983 -2.194740 1.876400 0 CFG=2
M  V30 7 O 2.006976 -3.334682 1.282890 0
M  V30 8 N 1.438383 -1.152047 0.881452 0
M  V30 9 C 0.798602 -1.117013 -0.391206 0
M  V30 10 N 0.868740 0.026159 -1.128463 0
M  V30 11 C 0.319281 0.193522 -2.324712 0
M  V30 12 N 0.536105 1.471301 -2.902457 0
M  V30 13 C -0.293310 2.510929 -2.327139 0
M  V30 14 C -0.068902 3.842455 -2.699192 0
M  V30 15 C -0.794140 4.926721 -2.200664 0
M  V30 16 C -1.786035 4.653793 -1.289741 0
M  V30 17 C -2.021248 3.335892 -0.910601 0
M  V30 18 C -3.084542 3.081048 0.056568 0
M  V30 19 N -3.358885 1.797769 0.434589 0
M  V30 20 C -4.334971 1.504961 1.330626 0
M  V30 21 C -5.036972 2.586065 1.840413 0
M  V30 22 C -4.788857 3.891932 1.484038 0
M  V30 23 N -3.803522 4.078745 0.590083 0
M  V30 24 C -1.290765 2.272464 -1.416627 0
M  V30 25 C -0.363353 -0.878836 -2.834428 0
M  V30 26 N -1.001407 -0.978510 -4.012329 0
M  V30 27 C -1.535870 -2.231242 -4.104128 0
M  V30 28 N -1.180313 -2.845403 -2.937070 0
M  V30 29 C -1.567114 -4.218585 -2.674998 0
M  V30 30 C -0.561159 -4.925695 -1.780494 0
M  V30 31 C -2.923746 -4.328454 -2.020724 0
M  V30 32 C -0.466312 -2.070062 -2.127096 0
M  V30 33 N 0.112757 -2.165212 -0.926250 0
M  V30 34 H 5.301186 -2.247028 5.717137 0
M  V30 35 H 4.921930 -3.094553 4.185585 0
M  V30 36 H 4.734136 -1.294847 4.252360 0
M  V30 37 H 3.210595 -3.343025 5.972901 0
M  V30 38 H 1.509025 -1.302104 5.771749 0
M  V30 39 H 2.899138 -1.129771 6.975797 0
M  V30 40 H 2.987360 -0.398202 5.298572 0
M  V30 41 H 1.329436 -3.113831 4.301930 0
M  V30 42 H 2.813533 -3.754609 3.542436 0
M  V30 43 H 3.355400 -1.409114 2.741811 0
M  V30 44 H 1.830680 -0.853111 3.509027 0
M  V30 45 H 0.449956 -2.329784 2.235792 0
M  V30 46 H 1.255706 -3.805732 0.837609 0
M  V30 47 H 1.958581 -0.260139 1.144104 0
M  V30 48 H 1.196765 1.740036 -3.664660 0
M  V30 49 H 0.721972 4.066967 -3.426083 0
M  V30 50 H -0.537010 5.932149 -2.557187 0
M  V30 51 H -2.350548 5.491201 -0.900846 0
M  V30 52 H -4.548341 0.484990 1.625322 0
M  V30 53 H -5.820821 2.405767 2.554164 0
M  V30 54 H -5.354400 4.739012 1.899438 0
M  V30 55 H -1.461468 1.246502 -1.138054 0
M  V30 56 H -2.102035 -2.579068 -4.949607 0
M  V30 57 H -1.630359 -4.782010 -3.656895 0
M  V30 58 H -0.682742 -6.032602 -1.914905 0
M  V30 59 H -0.750725 -4.724344 -0.705870 0
M  V30 60 H 0.483008 -4.640466 -2.015588 0
M  V30 61 H -2.918434 -5.044720 -1.197044 0
M  V30 62 H -3.698154 -4.694942 -2.745730 0
M  V30 63 H -3.242737 -3.338586 -1.590924 0
M  V30 END ATOM
M  V30 BEGIN BOND
M  V30 1 1 1 2
M  V30 2 1 2 3
M  V30 3 1 2 4
M  V30 4 1 4 5
M  V30 5 1 5 6
M  V30 6 1 6 7
M  V30 7 1 6 8
M  V30 8 1 8 9
M  V30 9 2 9 10
M  V30 10 1 10 11
M  V30 11 1 11 12
M  V30 12 1 12 13
M  V30 13 2 13 14
M  V30 14 1 14 15
M  V30 15 2 15 16
M  V30 16 1 16 17
M  V30 17 1 17 18
M  V30 18 2 18 19
M  V30 19 1 19 20
M  V30 20 2 20 21
M  V30 21 1 21 22
M  V30 22 2 22 23
M  V30 23 2 17 24
M  V30 24 2 11 25
M  V30 25 1 25 26
M  V30 26 2 26 27
M  V30 27 1 27 28
M  V30 28 1 28 29
M  V30 29 1 29 30
M  V30 30 1 29 31
M  V30 31 1 28 32
M  V30 32 2 32 33
M  V30 33 1 33 9
M  V30 34 1 24 13
M  V30 35 1 32 25
M  V30 36 1 23 18
M  V30 37 1 1 34
M  V30 38 1 1 35
M  V30 39 1 1 36
M  V30 40 1 2 37
M  V30 41 1 3 38
M  V30 42 1 3 39
M  V30 43 1 3 40
M  V30 44 1 4 41
M  V30 45 1 4 42
M  V30 46 1 5 43
M  V30 47 1 5 44
M  V30 48 1 6 45 CFG=1
M  V30 49 1 7 46
M  V30 50 1 8 47
M  V30 51 1 12 48
M  V30 52 1 14 49
M  V30 53 1 15 50
M  V30 54 1 16 51
M  V30 55 1 20 52
M  V30 56 1 21 53
M  V30 57 1 22 54
M  V30 58 1 24 55
M  V30 59 1 27 56
M  V30 60 1 29 57
M  V30 61 1 30 58
M  V30 62 1 30 59
M  V30 63 1 30 60
M  V30 64 1 31 61
M  V30 65 1 31 62
M  V30 66 1 31 63
M  V30 END BOND
M  V30 END CTAB
M  END
>  <Dataset>  (826) 
ChEMBL_Kinases

>  <Ligand_Instance>  (826) 
nan

>  <PDB_ID>  (826) 
nan

>  <Standardized_SMILES>  (826) 
CC(C)CC[C@H](O)Nc1nc(Nc2cccc(-c3ncccn3)c2)c2ncn(C(C)C)c2n1

>  <Name>  (826) 
nan

>  <Pocket>  (826) 
nan

>  <ATP_Site>  (826) 
nan

>  <Peripheral>  (826) 
nan

>  <Num_H_Atoms_ProtBoundConf>  (826) 
nan

>  <Num_Resolved_Atoms>  (826) 
nan

>  <Num_Not_Resolved_Atoms>  (826) 
nan

$$$$
CHEMBL2295942
     RDKit          3D

  0  0  0  0  0  0  0  0  0  0999 V3000
M  V30 BEGIN CTAB
M  V30 COUNTS 42 45 0 0 0
M  V30 BEGIN ATOM
M  V30 1 C 0.776118 -5.093712 3.093330 0
M  V30 2 C 0.100400 -4.388309 1.921938 0
M  V30 3 C -0.056094 -5.415245 0.841659 0
M  V30 4 N 0.859678 -3.234148 1.502545 0
M  V30 5 C 1.694035 -2.516793 2.314633 0
M  V30 6 N 2.260712 -1.496295 1.600150 0
M  V30 7 C 1.777540 -1.589230 0.366499 0
M  V30 8 C 2.036067 -0.806228 -0.719902 0
M  V30 9 N 2.863702 0.331565 -0.865549 0
M  V30 10 C 1.940399 1.439802 -0.839053 0
M  V30 11 C 2.015629 2.394374 -1.850540 0
M  V30 12 C 1.142112 3.489087 -1.872948 0
M  V30 13 C 0.188032 3.624422 -0.872271 0
M  V30 14 C 0.089223 2.693168 0.144573 0
M  V30 15 C -0.857839 2.710881 1.254477 0
M  V30 16 C -0.453955 2.172064 2.487847 0
M  V30 17 N -1.284953 2.150761 3.581083 0
M  V30 18 C -2.545885 2.672398 3.456221 0
M  V30 19 N -2.960307 3.197459 2.283908 0
M  V30 20 C -2.158195 3.225000 1.209975 0
M  V30 21 C 0.968718 1.647016 0.113257 0
M  V30 22 N 1.406398 -1.132650 -1.855780 0
M  V30 23 C 0.548199 -2.185129 -1.942837 0
M  V30 24 Cl -0.235959 -2.528873 -3.490482 0
M  V30 25 N 0.313212 -2.936438 -0.861013 0
M  V30 26 C 0.910936 -2.655826 0.284657 0
M  V30 27 H 0.637484 -6.197293 3.016288 0
M  V30 28 H 1.851069 -4.923377 3.113190 0
M  V30 29 H 0.312782 -4.778725 4.041507 0
M  V30 30 H -0.916867 -4.087260 2.280071 0
M  V30 31 H 0.848161 -6.089637 0.785444 0
M  V30 32 H -0.397922 -5.050261 -0.122435 0
M  V30 33 H -0.858964 -6.123463 1.217372 0
M  V30 34 H 1.895766 -2.705091 3.358359 0
M  V30 35 H 3.879792 0.496664 -0.969360 0
M  V30 36 H 2.751058 2.322296 -2.656058 0
M  V30 37 H 1.151399 4.267801 -2.652388 0
M  V30 38 H -0.532240 4.449262 -0.823383 0
M  V30 39 H 0.522001 1.733545 2.681635 0
M  V30 40 H -3.150952 2.613711 4.355400 0
M  V30 41 H -2.428051 3.634429 0.245492 0
M  V30 42 H 0.962457 0.875733 0.874200 0
M  V30 END ATOM
M  V30 BEGIN BOND
M  V30 1 1 1 2
M  V30 2 1 2 3
M  V30 3 1 2 4
M  V30 4 1 4 5
M  V30 5 2 5 6
M  V30 6 1 6 7
M  V30 7 2 7 8
M  V30 8 1 8 9
M  V30 9 1 9 10
M  V30 10 2 10 11
M  V30 11 1 11 12
M  V30 12 2 12 13
M  V30 13 1 13 14
M  V30 14 1 14 15
M  V30 15 2 15 16
M  V30 16 1 16 17
M  V30 17 2 17 18
M  V30 18 1 18 19
M  V30 19 2 19 20
M  V30 20 2 14 21
M  V30 21 1 8 22
M  V30 22 2 22 23
M  V30 23 1 23 24
M  V30 24 1 23 25
M  V30 25 2 25 26
M  V30 26 1 26 4
M  V30 27 1 26 7
M  V30 28 1 21 10
M  V30 29 1 20 15
M  V30 30 1 1 27
M  V30 31 1 1 28
M  V30 32 1 1 29
M  V30 33 1 2 30
M  V30 34 1 3 31
M  V30 35 1 3 32
M  V30 36 1 3 33
M  V30 37 1 5 34
M  V30 38 1 9 35
M  V30 39 1 11 36
M  V30 40 1 12 37
M  V30 41 1 13 38
M  V30 42 1 16 39
M  V30 43 1 18 40
M  V30 44 1 20 41
M  V30 45 1 21 42
M  V30 END BOND
M  V30 END CTAB
M  END
>  <Dataset>  (827) 
ChEMBL_Kinases

>  <Ligand_Instance>  (827) 
nan

>  <PDB_ID>  (827) 
nan

>  <Standardized_SMILES>  (827) 
CC(C)n1cnc2c(Nc3cccc(-c4cncnc4)c3)nc(Cl)nc21

>  <Name>  (827) 
nan

>  <Pocket>  (827) 
nan

>  <ATP_Site>  (827) 
nan

>  <Peripheral>  (827) 
nan

>  <Num_H_Atoms_ProtBoundConf>  (827) 
nan

>  <Num_Resolved_Atoms>  (827) 
nan

>  <Num_Not_Resolved_Atoms>  (827) 
nan

$$$$
CHEMBL4539818
     RDKit          3D

  0  0  0  0  0  0  0  0  0  0999 V3000
M  V30 BEGIN CTAB
M  V30 COUNTS 58 60 0 0 0
M  V30 BEGIN ATOM
M  V30 1 C 1.900598 -1.806214 4.101092 0
M  V30 2 O 2.023046 -2.971009 3.337974 0
M  V30 3 C 2.972960 -3.194932 2.365939 0
M  V30 4 C 3.852678 -2.170311 2.157653 0
M  V30 5 C 4.860658 -2.277735 1.199279 0
M  V30 6 O 5.871638 -1.446832 0.765034 0
M  V30 7 C 6.026099 -0.171059 1.330649 0
M  V30 8 C 4.888603 0.744947 1.136440 0
M  V30 9 O 5.185800 1.824788 1.705185 0
M  V30 10 N 3.641125 0.630375 0.482408 0
M  V30 11 C 2.609915 1.584811 0.359807 0
M  V30 12 C 2.589968 2.862213 0.854628 0
M  V30 13 C 1.560362 3.761616 0.712154 0
M  V30 14 C 0.450338 3.342548 0.010123 0
M  V30 15 C 0.420451 2.065921 -0.508501 0
M  V30 16 N -0.711576 1.602795 -1.237282 0
M  V30 17 C -1.635074 1.000095 -0.340979 0
M  V30 18 O -1.275652 0.999760 0.869775 0
M  V30 19 C -2.915937 0.405367 -0.699379 0
M  V30 20 C -3.647148 -0.119556 0.345934 0
M  V30 21 C -4.890208 -0.711396 0.091309 0
M  V30 22 C -5.352061 -0.753247 -1.207125 0
M  V30 23 N -6.617700 -1.359660 -1.444054 0
M  V30 24 C -7.339321 -1.892482 -0.313630 0
M  V30 25 C -7.167626 -1.440262 -2.785736 0
M  V30 26 C -4.580988 -0.213270 -2.217468 0
M  V30 27 C -3.345706 0.381621 -2.010006 0
M  V30 28 C 1.483410 1.215383 -0.330640 0
M  V30 29 C 4.923360 -3.473944 0.471614 0
M  V30 30 C 4.007681 -4.506448 0.707535 0
M  V30 31 C 3.037181 -4.370894 1.648283 0
M  V30 32 C 2.050725 -5.406840 1.944972 0
M  V30 33 O 1.190861 -5.184377 2.835829 0
M  V30 34 H 1.806514 -0.886842 3.470046 0
M  V30 35 H 0.928979 -1.897779 4.665708 0
M  V30 36 H 2.720442 -1.623361 4.806008 0
M  V30 37 H 3.929700 -1.201939 2.633051 0
M  V30 38 H 6.166627 -0.361526 2.437916 0
M  V30 39 H 6.994285 0.294594 1.029585 0
M  V30 40 H 3.547689 -0.310048 0.047308 0
M  V30 41 H 3.434439 3.221373 1.404564 0
M  V30 42 H 1.611839 4.756354 1.129976 0
M  V30 43 H -0.384298 4.016444 -0.127129 0
M  V30 44 H -0.983247 1.617822 -2.248485 0
M  V30 45 H -3.325261 -0.109924 1.383337 0
M  V30 46 H -5.451508 -1.115884 0.904799 0
M  V30 47 H -6.765828 -2.660336 0.259999 0
M  V30 48 H -8.236971 -2.416698 -0.680583 0
M  V30 49 H -7.701057 -1.109576 0.380107 0
M  V30 50 H -7.745694 -0.511490 -2.976690 0
M  V30 51 H -6.404142 -1.620494 -3.566706 0
M  V30 52 H -7.895793 -2.296776 -2.846666 0
M  V30 53 H -4.935093 -0.241247 -3.239982 0
M  V30 54 H -2.761573 0.796834 -2.817233 0
M  V30 55 H 1.412752 0.223495 -0.756687 0
M  V30 56 H 5.628955 -3.756172 -0.315350 0
M  V30 57 H 4.007025 -5.448973 0.178752 0
M  V30 58 H 2.077365 -6.347476 1.392803 0
M  V30 END ATOM
M  V30 BEGIN BOND
M  V30 1 1 1 2
M  V30 2 1 2 3
M  V30 3 2 3 4
M  V30 4 1 4 5
M  V30 5 1 5 6
M  V30 6 1 6 7
M  V30 7 1 7 8
M  V30 8 2 8 9
M  V30 9 1 8 10
M  V30 10 1 10 11
M  V30 11 2 11 12
M  V30 12 1 12 13
M  V30 13 2 13 14
M  V30 14 1 14 15
M  V30 15 1 15 16
M  V30 16 1 16 17
M  V30 17 2 17 18
M  V30 18 1 17 19
M  V30 19 2 19 20
M  V30 20 1 20 21
M  V30 21 2 21 22
M  V30 22 1 22 23
M  V30 23 1 23 24
M  V30 24 1 23 25
M  V30 25 1 22 26
M  V30 26 2 26 27
M  V30 27 2 15 28
M  V30 28 2 5 29
M  V30 29 1 29 30
M  V30 30 2 30 31
M  V30 31 1 31 32
M  V30 32 2 32 33
M  V30 33 1 31 3
M  V30 34 1 28 11
M  V30 35 1 27 19
M  V30 36 1 1 34
M  V30 37 1 1 35
M  V30 38 1 1 36
M  V30 39 1 4 37
M  V30 40 1 7 38
M  V30 41 1 7 39
M  V30 42 1 10 40
M  V30 43 1 12 41
M  V30 44 1 13 42
M  V30 45 1 14 43
M  V30 46 1 16 44
M  V30 47 1 20 45
M  V30 48 1 21 46
M  V30 49 1 24 47
M  V30 50 1 24 48
M  V30 51 1 24 49
M  V30 52 1 25 50
M  V30 53 1 25 51
M  V30 54 1 25 52
M  V30 55 1 26 53
M  V30 56 1 27 54
M  V30 57 1 28 55
M  V30 58 1 29 56
M  V30 59 1 30 57
M  V30 60 1 32 58
M  V30 END BOND
M  V30 END CTAB
M  END
>  <Dataset>  (828) 
ChEMBL_Kinases

>  <Ligand_Instance>  (828) 
nan

>  <PDB_ID>  (828) 
nan

>  <Standardized_SMILES>  (828) 
COc1cc(OCC(=O)Nc2cccc(NC(=O)c3ccc(N(C)C)cc3)c2)ccc1C=O

>  <Name>  (828) 
nan

>  <Pocket>  (828) 
nan

>  <ATP_Site>  (828) 
nan

>  <Peripheral>  (828) 
nan

>  <Num_H_Atoms_ProtBoundConf>  (828) 
nan

>  <Num_Resolved_Atoms>  (828) 
nan

>  <Num_Not_Resolved_Atoms>  (828) 
nan

$$$$
CHEMBL2295945
     RDKit          3D

  0  0  0  0  0  0  0  0  0  0999 V3000
M  V30 BEGIN CTAB
M  V30 COUNTS 60 63 0 0 0
M  V30 BEGIN ATOM
M  V30 1 C 1.962206 0.955547 3.977241 0
M  V30 2 C 2.642587 -0.377762 3.806912 0
M  V30 3 C 3.643342 -0.653177 4.903060 0
M  V30 4 C 3.230713 -0.466912 2.428351 0
M  V30 5 C 2.153863 -0.354394 1.372794 0 CFG=1
M  V30 6 O 1.472268 0.882000 1.483519 0
M  V30 7 N 2.767757 -0.323403 0.032971 0
M  V30 8 C 1.606451 -0.302350 -0.815521 0
M  V30 9 N 0.752155 0.682502 -1.114560 0
M  V30 10 C -0.300388 0.463445 -1.954875 0
M  V30 11 N -1.119085 1.609938 -2.151467 0
M  V30 12 C -2.168711 1.737794 -1.189962 0
M  V30 13 C -3.057920 2.816852 -1.217028 0
M  V30 14 C -4.060334 2.920364 -0.276155 0
M  V30 15 C -4.236873 1.978297 0.726208 0
M  V30 16 C -3.384806 0.889313 0.799837 0
M  V30 17 C -3.460497 -0.162530 1.808448 0
M  V30 18 C -3.079308 -1.463073 1.490847 0
M  V30 19 N -3.126350 -2.456213 2.399484 0
M  V30 20 C -3.552635 -2.225461 3.673667 0
M  V30 21 N -3.933541 -0.959111 4.013568 0
M  V30 22 C -3.884809 0.032328 3.102951 0
M  V30 23 C -2.401727 0.842273 -0.169467 0
M  V30 24 C -0.453662 -0.798502 -2.483937 0
M  V30 25 N -1.418420 -1.199419 -3.321031 0
M  V30 26 C -1.151688 -2.518048 -3.562953 0
M  V30 27 N -0.041795 -2.888605 -2.875152 0
M  V30 28 C 0.581160 -4.179785 -2.854215 0
M  V30 29 C 1.786937 -4.190099 -3.770478 0
M  V30 30 C 1.031483 -4.634863 -1.487739 0
M  V30 31 C 0.414383 -1.827066 -2.190150 0
M  V30 32 N 1.427133 -1.526725 -1.351172 0
M  V30 33 H 2.026869 1.285930 5.043769 0
M  V30 34 H 2.460480 1.737918 3.343457 0
M  V30 35 H 0.892853 0.843285 3.737892 0
M  V30 36 H 1.832218 -1.156471 3.867190 0
M  V30 37 H 4.240001 -1.537115 4.647348 0
M  V30 38 H 3.073264 -0.937023 5.830860 0
M  V30 39 H 4.300482 0.220520 5.111673 0
M  V30 40 H 4.054245 0.251444 2.249433 0
M  V30 41 H 3.615249 -1.527186 2.329359 0
M  V30 42 H 1.445115 -1.179960 1.498176 0
M  V30 43 H 1.983131 1.585219 0.983936 0
M  V30 44 H 3.714517 -0.316576 -0.386086 0
M  V30 45 H -1.061740 2.355522 -2.883459 0
M  V30 46 H -2.967812 3.575441 -1.972336 0
M  V30 47 H -4.761962 3.759727 -0.283205 0
M  V30 48 H -5.010327 2.028267 1.479927 0
M  V30 49 H -2.729373 -1.700843 0.481650 0
M  V30 50 H -3.634600 -2.929397 4.487091 0
M  V30 51 H -4.199583 1.030561 3.433661 0
M  V30 52 H -1.724962 -0.009381 -0.125949 0
M  V30 53 H -1.766188 -3.121854 -4.211073 0
M  V30 54 H -0.128647 -4.984685 -3.205585 0
M  V30 55 H 2.512265 -4.940156 -3.415480 0
M  V30 56 H 1.415819 -4.406164 -4.804650 0
M  V30 57 H 2.223536 -3.166462 -3.832619 0
M  V30 58 H 1.308665 -3.829083 -0.803950 0
M  V30 59 H 0.263586 -5.283895 -0.975966 0
M  V30 60 H 1.939683 -5.295702 -1.594189 0
M  V30 END ATOM
M  V30 BEGIN BOND
M  V30 1 1 1 2
M  V30 2 1 2 3
M  V30 3 1 2 4
M  V30 4 1 4 5
M  V30 5 1 5 6
M  V30 6 1 5 7
M  V30 7 1 7 8
M  V30 8 2 8 9
M  V30 9 1 9 10
M  V30 10 1 10 11
M  V30 11 1 11 12
M  V30 12 2 12 13
M  V30 13 1 13 14
M  V30 14 2 14 15
M  V30 15 1 15 16
M  V30 16 1 16 17
M  V30 17 2 17 18
M  V30 18 1 18 19
M  V30 19 2 19 20
M  V30 20 1 20 21
M  V30 21 2 21 22
M  V30 22 2 16 23
M  V30 23 2 10 24
M  V30 24 1 24 25
M  V30 25 2 25 26
M  V30 26 1 26 27
M  V30 27 1 27 28
M  V30 28 1 28 29
M  V30 29 1 28 30
M  V30 30 1 27 31
M  V30 31 2 31 32
M  V30 32 1 32 8
M  V30 33 1 23 12
M  V30 34 1 31 24
M  V30 35 1 22 17
M  V30 36 1 1 33
M  V30 37 1 1 34
M  V30 38 1 1 35
M  V30 39 1 2 36
M  V30 40 1 3 37
M  V30 41 1 3 38
M  V30 42 1 3 39
M  V30 43 1 4 40
M  V30 44 1 4 41
M  V30 45 1 5 42 CFG=3
M  V30 46 1 6 43
M  V30 47 1 7 44
M  V30 48 1 11 45
M  V30 49 1 13 46
M  V30 50 1 14 47
M  V30 51 1 15 48
M  V30 52 1 18 49
M  V30 53 1 20 50
M  V30 54 1 22 51
M  V30 55 1 23 52
M  V30 56 1 26 53
M  V30 57 1 28 54
M  V30 58 1 29 55
M  V30 59 1 29 56
M  V30 60 1 29 57
M  V30 61 1 30 58
M  V30 62 1 30 59
M  V30 63 1 30 60
M  V30 END BOND
M  V30 END CTAB
M  END
>  <Dataset>  (829) 
ChEMBL_Kinases

>  <Ligand_Instance>  (829) 
nan

>  <PDB_ID>  (829) 
nan

>  <Standardized_SMILES>  (829) 
CC(C)C[C@@H](O)Nc1nc(Nc2cccc(-c3cncnc3)c2)c2ncn(C(C)C)c2n1

>  <Name>  (829) 
nan

>  <Pocket>  (829) 
nan

>  <ATP_Site>  (829) 
nan

>  <Peripheral>  (829) 
nan

>  <Num_H_Atoms_ProtBoundConf>  (829) 
nan

>  <Num_Resolved_Atoms>  (829) 
nan

>  <Num_Not_Resolved_Atoms>  (829) 
nan

$$$$
CHEMBL2295946
     RDKit          3D

  0  0  0  0  0  0  0  0  0  0999 V3000
M  V30 BEGIN CTAB
M  V30 COUNTS 57 60 0 0 0
M  V30 BEGIN ATOM
M  V30 1 C 0.536221 0.322832 3.865033 0
M  V30 2 C 1.049170 -0.782739 2.966383 0
M  V30 3 C 0.826781 -2.151412 3.594502 0
M  V30 4 C 2.542007 -0.602412 2.690428 0
M  V30 5 O 2.696272 0.649762 2.058830 0
M  V30 6 N 2.934809 -1.683289 1.807160 0
M  V30 7 C 2.216668 -1.612312 0.564405 0
M  V30 8 N 2.222816 -0.430878 -0.091528 0
M  V30 9 C 1.563264 -0.256864 -1.278949 0
M  V30 10 N 1.719029 1.061933 -1.781901 0
M  V30 11 C 0.734352 1.899071 -1.155854 0
M  V30 12 C 1.050693 3.249427 -1.000624 0
M  V30 13 C 0.138261 4.113527 -0.393675 0
M  V30 14 C -1.083554 3.633553 0.055484 0
M  V30 15 C -1.436775 2.324241 -0.075485 0
M  V30 16 C -2.658751 1.651388 0.337719 0
M  V30 17 C -3.429628 1.962397 1.424969 0
M  V30 18 N -4.538083 1.297873 1.736839 0
M  V30 19 C -4.985781 0.253871 0.988650 0
M  V30 20 N -4.252662 -0.095020 -0.104424 0
M  V30 21 C -3.126850 0.581444 -0.420083 0
M  V30 22 C -0.486442 1.518243 -0.686628 0
M  V30 23 C 0.911577 -1.370347 -1.727525 0
M  V30 24 N 0.198972 -1.406241 -2.882109 0
M  V30 25 C -0.296458 -2.675802 -2.983886 0
M  V30 26 N 0.130233 -3.372126 -1.887534 0
M  V30 27 C -0.151696 -4.767101 -1.566645 0
M  V30 28 C -1.286273 -5.289610 -2.427760 0
M  V30 29 C -0.563647 -4.885520 -0.088675 0
M  V30 30 C 0.887860 -2.585646 -1.081604 0
M  V30 31 N 1.558306 -2.666969 0.072128 0
M  V30 32 H -0.247377 0.936519 3.363710 0
M  V30 33 H 0.016694 -0.139225 4.740823 0
M  V30 34 H 1.358654 0.926988 4.275790 0
M  V30 35 H 0.511563 -0.769097 2.009933 0
M  V30 36 H 0.759938 -2.945192 2.808327 0
M  V30 37 H 1.691750 -2.400417 4.262712 0
M  V30 38 H -0.100143 -2.155983 4.186366 0
M  V30 39 H 3.151525 -0.644072 3.599012 0
M  V30 40 H 3.672019 0.801733 1.958761 0
M  V30 41 H 3.636787 -2.388608 2.068871 0
M  V30 42 H 2.381635 1.455131 -2.476759 0
M  V30 43 H 1.999094 3.632224 -1.349319 0
M  V30 44 H 0.351228 5.182237 -0.250245 0
M  V30 45 H -1.847593 4.257311 0.547062 0
M  V30 46 H -3.086317 2.800713 2.042196 0
M  V30 47 H -5.868559 -0.329454 1.176135 0
M  V30 48 H -2.637228 0.199061 -1.325275 0
M  V30 49 H -0.666298 0.451756 -0.846587 0
M  V30 50 H -0.910451 -3.032747 -3.792387 0
M  V30 51 H 0.768354 -5.364223 -1.742292 0
M  V30 52 H -1.846086 -6.048079 -1.835697 0
M  V30 53 H -1.918062 -4.412944 -2.694605 0
M  V30 54 H -0.845602 -5.764981 -3.298035 0
M  V30 55 H -1.241778 -5.741478 0.088633 0
M  V30 56 H -1.001872 -3.895900 0.172861 0
M  V30 57 H 0.359447 -5.010299 0.473458 0
M  V30 END ATOM
M  V30 BEGIN BOND
M  V30 1 1 1 2
M  V30 2 1 2 3
M  V30 3 1 2 4
M  V30 4 1 4 5
M  V30 5 1 4 6
M  V30 6 1 6 7
M  V30 7 2 7 8
M  V30 8 1 8 9
M  V30 9 1 9 10
M  V30 10 1 10 11
M  V30 11 2 11 12
M  V30 12 1 12 13
M  V30 13 2 13 14
M  V30 14 1 14 15
M  V30 15 1 15 16
M  V30 16 2 16 17
M  V30 17 1 17 18
M  V30 18 2 18 19
M  V30 19 1 19 20
M  V30 20 2 20 21
M  V30 21 2 15 22
M  V30 22 2 9 23
M  V30 23 1 23 24
M  V30 24 2 24 25
M  V30 25 1 25 26
M  V30 26 1 26 27
M  V30 27 1 27 28
M  V30 28 1 27 29
M  V30 29 1 26 30
M  V30 30 2 30 31
M  V30 31 1 31 7
M  V30 32 1 22 11
M  V30 33 1 30 23
M  V30 34 1 21 16
M  V30 35 1 1 32
M  V30 36 1 1 33
M  V30 37 1 1 34
M  V30 38 1 2 35
M  V30 39 1 3 36
M  V30 40 1 3 37
M  V30 41 1 3 38
M  V30 42 1 4 39
M  V30 43 1 5 40
M  V30 44 1 6 41
M  V30 45 1 10 42
M  V30 46 1 12 43
M  V30 47 1 13 44
M  V30 48 1 14 45
M  V30 49 1 17 46
M  V30 50 1 19 47
M  V30 51 1 21 48
M  V30 52 1 22 49
M  V30 53 1 25 50
M  V30 54 1 27 51
M  V30 55 1 28 52
M  V30 56 1 28 53
M  V30 57 1 28 54
M  V30 58 1 29 55
M  V30 59 1 29 56
M  V30 60 1 29 57
M  V30 END BOND
M  V30 END CTAB
M  END
>  <Dataset>  (830) 
ChEMBL_Kinases

>  <Ligand_Instance>  (830) 
nan

>  <PDB_ID>  (830) 
nan

>  <Standardized_SMILES>  (830) 
CC(C)C(O)Nc1nc(Nc2cccc(-c3cncnc3)c2)c2ncn(C(C)C)c2n1

>  <Name>  (830) 
nan

>  <Pocket>  (830) 
nan

>  <ATP_Site>  (830) 
nan

>  <Peripheral>  (830) 
nan

>  <Num_H_Atoms_ProtBoundConf>  (830) 
nan

>  <Num_Resolved_Atoms>  (830) 
nan

>  <Num_Not_Resolved_Atoms>  (830) 
nan

$$$$
CHEMBL3699770
     RDKit          3D

  0  0  0  0  0  0  0  0  0  0999 V3000
M  V30 BEGIN CTAB
M  V30 COUNTS 58 63 0 0 0
M  V30 BEGIN ATOM
M  V30 1 N 2.692226 -1.777836 4.682872 0
M  V30 2 C 3.172972 -0.445763 4.561890 0
M  V30 3 O 3.988829 -0.061954 5.437744 0
M  V30 4 C 2.736407 0.422676 3.474442 0
M  V30 5 C 3.221708 1.710745 3.389836 0
M  V30 6 C 2.793465 2.512889 2.352308 0
M  V30 7 C 3.300228 3.878413 2.251677 0
M  V30 8 C 2.750155 5.060107 1.765246 0
M  V30 9 N 3.646616 6.057493 1.904387 0
M  V30 10 N 4.757924 5.587774 2.458364 0
M  V30 11 C 4.565671 4.267836 2.675806 0
M  V30 12 C 1.893916 1.977272 1.446757 0
M  V30 13 N 1.409995 0.720897 1.515131 0
M  V30 14 C 0.547687 0.000846 0.766086 0
M  V30 15 C -0.083065 0.603663 -0.427713 0
M  V30 16 C 0.134824 0.084175 -1.686940 0
M  V30 17 C -0.494097 0.712162 -2.742227 0
M  V30 18 C -1.306052 1.819425 -2.509634 0
M  V30 19 C -1.501504 2.315134 -1.220789 0
M  V30 20 C -0.877780 1.697619 -0.145125 0
M  V30 21 C 0.431248 -1.268345 1.337255 0
M  V30 22 C -0.462505 -2.206561 0.669588 0
M  V30 23 C -1.798809 -1.866766 0.613687 0
M  V30 24 C -2.728553 -2.685100 0.003288 0
M  V30 25 C -2.317281 -3.872621 -0.566328 0
M  V30 26 C -3.105667 -4.915299 -1.273887 0
M  V30 27 N -2.822218 -6.235234 -0.756718 0
M  V30 28 C -4.573284 -4.680467 -1.409110 0
M  V30 29 C -4.344826 -4.147310 -2.824388 0
M  V30 30 C -2.999550 -4.838097 -2.789394 0
M  V30 31 C -0.977442 -4.224642 -0.516376 0
M  V30 32 C -0.035944 -3.394717 0.102430 0
M  V30 33 N 1.232938 -1.256516 2.411131 0
M  V30 34 C 1.839990 -0.064238 2.545292 0
M  V30 35 H 1.874445 -2.421088 4.660460 0
M  V30 36 H 3.235011 -2.662285 4.882260 0
M  V30 37 H 3.920138 2.019534 4.154434 0
M  V30 38 H 1.734134 5.062004 1.354549 0
M  V30 39 H 5.627015 6.140696 2.685922 0
M  V30 40 H 5.345711 3.660610 3.126647 0
M  V30 41 H 1.568091 2.620195 0.638650 0
M  V30 42 H 0.779771 -0.781098 -1.796208 0
M  V30 43 H -0.335329 0.319364 -3.736290 0
M  V30 44 H -1.791700 2.297771 -3.361772 0
M  V30 45 H -2.124151 3.166909 -1.026427 0
M  V30 46 H -1.029403 2.078810 0.836318 0
M  V30 47 H -2.220024 -0.953784 1.032677 0
M  V30 48 H -3.787783 -2.525501 -0.100647 0
M  V30 49 H -2.043843 -6.727969 -1.245694 0
M  V30 50 H -3.670529 -6.848120 -0.870292 0
M  V30 51 H -5.064895 -3.981203 -0.733385 0
M  V30 52 H -5.132500 -5.655185 -1.505676 0
M  V30 53 H -4.980135 -4.592139 -3.604647 0
M  V30 54 H -4.314966 -3.037399 -2.874406 0
M  V30 55 H -2.138311 -4.184914 -3.052074 0
M  V30 56 H -2.907328 -5.779901 -3.326449 0
M  V30 57 H -0.508079 -5.129934 -0.922757 0
M  V30 58 H 1.021047 -3.610882 0.175483 0
M  V30 END ATOM
M  V30 BEGIN BOND
M  V30 1 1 1 2
M  V30 2 2 2 3
M  V30 3 1 2 4
M  V30 4 2 4 5
M  V30 5 1 5 6
M  V30 6 1 6 7
M  V30 7 1 7 8
M  V30 8 2 8 9
M  V30 9 1 9 10
M  V30 10 1 10 11
M  V30 11 2 6 12
M  V30 12 1 12 13
M  V30 13 1 13 14
M  V30 14 1 14 15
M  V30 15 2 15 16
M  V30 16 1 16 17
M  V30 17 2 17 18
M  V30 18 1 18 19
M  V30 19 2 19 20
M  V30 20 2 14 21
M  V30 21 1 21 22
M  V30 22 2 22 23
M  V30 23 1 23 24
M  V30 24 2 24 25
M  V30 25 1 25 26
M  V30 26 1 26 27
M  V30 27 1 26 28
M  V30 28 1 28 29
M  V30 29 1 29 30
M  V30 30 1 25 31
M  V30 31 2 31 32
M  V30 32 1 21 33
M  V30 33 2 33 34
M  V30 34 1 34 4
M  V30 35 2 11 7
M  V30 36 1 34 13
M  V30 37 1 20 15
M  V30 38 1 32 22
M  V30 39 1 30 26
M  V30 40 1 1 35
M  V30 41 1 1 36
M  V30 42 1 5 37
M  V30 43 1 8 38
M  V30 44 1 10 39
M  V30 45 1 11 40
M  V30 46 1 12 41
M  V30 47 1 16 42
M  V30 48 1 17 43
M  V30 49 1 18 44
M  V30 50 1 19 45
M  V30 51 1 20 46
M  V30 52 1 23 47
M  V30 53 1 24 48
M  V30 54 1 27 49
M  V30 55 1 27 50
M  V30 56 1 28 51
M  V30 57 1 28 52
M  V30 58 1 29 53
M  V30 59 1 29 54
M  V30 60 1 30 55
M  V30 61 1 30 56
M  V30 62 1 31 57
M  V30 63 1 32 58
M  V30 END BOND
M  V30 END CTAB
M  END
>  <Dataset>  (831) 
ChEMBL_Kinases

>  <Ligand_Instance>  (831) 
nan

>  <PDB_ID>  (831) 
nan

>  <Standardized_SMILES>  (831) 
NC(=O)c1cc(-c2cn[nH]c2)cn2c(-c3ccccc3)c(-c3ccc(C4(N)CCC4)cc3)nc12

>  <Name>  (831) 
nan

>  <Pocket>  (831) 
nan

>  <ATP_Site>  (831) 
nan

>  <Peripheral>  (831) 
nan

>  <Num_H_Atoms_ProtBoundConf>  (831) 
nan

>  <Num_Resolved_Atoms>  (831) 
nan

>  <Num_Not_Resolved_Atoms>  (831) 
nan

$$$$
CHEMBL2295948
     RDKit          3D

  0  0  0  0  0  0  0  0  0  0999 V3000
M  V30 BEGIN CTAB
M  V30 COUNTS 57 60 0 0 0
M  V30 BEGIN ATOM
M  V30 1 C 0.652102 -0.765236 3.979926 0
M  V30 2 C 1.364096 -2.058405 3.577672 0
M  V30 3 C 2.831630 -1.944051 3.775646 0
M  V30 4 C 3.508055 -0.851615 3.001471 0 CFG=2
M  V30 5 O 3.060163 0.420504 3.268475 0
M  V30 6 N 3.588064 -1.054588 1.592808 0
M  V30 7 C 2.680959 -1.276388 0.526627 0
M  V30 8 N 2.135170 -0.204369 -0.125283 0
M  V30 9 C 1.266278 -0.411800 -1.147682 0
M  V30 10 N 0.607949 0.544642 -1.957512 0
M  V30 11 C -0.551564 1.240340 -1.529414 0
M  V30 12 C -0.984625 1.217407 -0.197475 0
M  V30 13 C -2.114823 1.898548 0.193354 0
M  V30 14 C -2.874318 2.629493 -0.684245 0
M  V30 15 C -4.061917 3.324478 -0.267300 0
M  V30 16 N -4.514587 3.380436 1.022323 0
M  V30 17 C -5.631124 4.025148 1.366019 0
M  V30 18 C -6.406798 4.684378 0.419877 0
M  V30 19 C -5.943752 4.624117 -0.879999 0
M  V30 20 N -4.826474 3.968578 -1.162626 0
M  V30 21 C -2.470518 2.673108 -2.020660 0
M  V30 22 C -1.327252 1.981875 -2.403407 0
M  V30 23 C 0.944579 -1.726656 -1.516111 0
M  V30 24 N 0.170111 -2.318101 -2.430796 0
M  V30 25 C 0.261078 -3.653761 -2.316339 0
M  V30 26 N 1.108402 -3.960178 -1.311090 0
M  V30 27 C 1.475550 -5.300199 -0.872780 0
M  V30 28 C 1.654254 -6.191166 -2.077166 0
M  V30 29 C 0.384579 -5.853377 0.052923 0
M  V30 30 C 1.532002 -2.777446 -0.815519 0
M  V30 31 N 2.395818 -2.575196 0.200612 0
M  V30 32 H 0.766245 0.007764 3.192591 0
M  V30 33 H -0.413318 -1.010089 4.188888 0
M  V30 34 H 1.105890 -0.459618 4.943498 0
M  V30 35 H 1.017662 -2.433654 2.620436 0
M  V30 36 H 1.002410 -2.806125 4.343150 0
M  V30 37 H 3.025103 -1.744011 4.851046 0
M  V30 38 H 3.316327 -2.899598 3.551067 0
M  V30 39 H 4.585054 -0.869250 3.364640 0
M  V30 40 H 3.375733 1.001322 2.509747 0
M  V30 41 H 4.479519 -1.076075 1.039078 0
M  V30 42 H 0.990818 0.735418 -2.888662 0
M  V30 43 H -0.420656 0.653745 0.555450 0
M  V30 44 H -2.414825 1.856162 1.242220 0
M  V30 45 H -5.899169 4.007949 2.413822 0
M  V30 46 H -7.305957 5.202387 0.692515 0
M  V30 47 H -6.515040 5.124158 -1.667820 0
M  V30 48 H -3.053629 3.235622 -2.708464 0
M  V30 49 H -0.982684 1.995010 -3.446955 0
M  V30 50 H -0.292550 -4.321398 -2.970661 0
M  V30 51 H 2.394730 -5.250283 -0.269059 0
M  V30 52 H 1.515769 -7.244769 -1.687703 0
M  V30 53 H 0.832678 -6.046172 -2.783843 0
M  V30 54 H 2.661642 -6.096574 -2.514188 0
M  V30 55 H 0.120213 -5.003300 0.714218 0
M  V30 56 H -0.508027 -6.079170 -0.531135 0
M  V30 57 H 0.764988 -6.683724 0.674886 0
M  V30 END ATOM
M  V30 BEGIN BOND
M  V30 1 1 1 2
M  V30 2 1 2 3
M  V30 3 1 3 4
M  V30 4 1 4 5
M  V30 5 1 4 6
M  V30 6 1 6 7
M  V30 7 2 7 8
M  V30 8 1 8 9
M  V30 9 1 9 10
M  V30 10 1 10 11
M  V30 11 2 11 12
M  V30 12 1 12 13
M  V30 13 2 13 14
M  V30 14 1 14 15
M  V30 15 2 15 16
M  V30 16 1 16 17
M  V30 17 2 17 18
M  V30 18 1 18 19
M  V30 19 2 19 20
M  V30 20 1 14 21
M  V30 21 2 21 22
M  V30 22 2 9 23
M  V30 23 1 23 24
M  V30 24 2 24 25
M  V30 25 1 25 26
M  V30 26 1 26 27
M  V30 27 1 27 28
M  V30 28 1 27 29
M  V30 29 1 26 30
M  V30 30 2 30 31
M  V30 31 1 31 7
M  V30 32 1 22 11
M  V30 33 1 30 23
M  V30 34 1 20 15
M  V30 35 1 1 32
M  V30 36 1 1 33
M  V30 37 1 1 34
M  V30 38 1 2 35
M  V30 39 1 2 36
M  V30 40 1 3 37
M  V30 41 1 3 38
M  V30 42 1 4 39 CFG=1
M  V30 43 1 5 40
M  V30 44 1 6 41
M  V30 45 1 10 42
M  V30 46 1 12 43
M  V30 47 1 13 44
M  V30 48 1 17 45
M  V30 49 1 18 46
M  V30 50 1 19 47
M  V30 51 1 21 48
M  V30 52 1 22 49
M  V30 53 1 25 50
M  V30 54 1 27 51
M  V30 55 1 28 52
M  V30 56 1 28 53
M  V30 57 1 28 54
M  V30 58 1 29 55
M  V30 59 1 29 56
M  V30 60 1 29 57
M  V30 END BOND
M  V30 END CTAB
M  END
>  <Dataset>  (832) 
ChEMBL_Kinases

>  <Ligand_Instance>  (832) 
nan

>  <PDB_ID>  (832) 
nan

>  <Standardized_SMILES>  (832) 
CCC[C@H](O)Nc1nc(Nc2ccc(-c3ncccn3)cc2)c2ncn(C(C)C)c2n1

>  <Name>  (832) 
nan

>  <Pocket>  (832) 
nan

>  <ATP_Site>  (832) 
nan

>  <Peripheral>  (832) 
nan

>  <Num_H_Atoms_ProtBoundConf>  (832) 
nan

>  <Num_Resolved_Atoms>  (832) 
nan

>  <Num_Not_Resolved_Atoms>  (832) 
nan

$$$$
CHEMBL3702160
     RDKit          3D

  0  0  0  0  0  0  0  0  0  0999 V3000
M  V30 BEGIN CTAB
M  V30 COUNTS 66 71 0 0 0
M  V30 BEGIN ATOM
M  V30 1 C 6.172700 1.841638 2.888994 0
M  V30 2 N 5.658638 3.098795 3.339719 0
M  V30 3 C 6.017068 3.350513 4.716017 0
M  V30 4 C 4.268873 3.316836 3.084542 0 CFG=1
M  V30 5 C 3.367362 2.271037 3.749211 0
M  V30 6 N 2.010368 2.586484 3.371083 0
M  V30 7 C 1.171096 1.800209 2.540116 0
M  V30 8 C 1.518561 0.607432 1.951678 0
M  V30 9 C 0.593467 -0.043967 1.168443 0
M  V30 10 C -0.681985 0.404829 0.915586 0
M  V30 11 N -1.658413 -0.235985 0.117847 0
M  V30 12 C -1.532898 -1.453268 -0.577677 0
M  V30 13 N -0.453582 -2.243044 -0.617868 0
M  V30 14 C -0.371754 -3.398735 -1.293375 0
M  V30 15 C -1.501670 -3.785159 -1.995840 0
M  V30 16 C -1.668677 -4.908940 -2.760190 0
M  V30 17 C -0.848346 -5.976501 -3.084730 0
M  V30 18 C -1.298646 -6.987430 -3.902034 0
M  V30 19 N -2.557255 -6.887120 -4.362721 0
M  V30 20 C -3.356933 -5.851018 -4.049194 0
M  V30 21 C -2.968401 -4.803046 -3.234037 0
M  V30 22 N -3.547055 -3.667561 -2.770833 0
M  V30 23 C -4.831303 -3.198661 -3.012291 0
M  V30 24 C -5.925902 -3.946926 -3.569468 0
M  V30 25 C -6.301483 -4.978986 -2.580490 0
M  V30 26 C -5.852161 -4.330850 -1.263368 0
M  V30 27 C -5.483532 -2.901950 -1.650621 0
M  V30 28 C -2.630064 -3.026311 -1.994558 0
M  V30 29 N -2.579030 -1.897859 -1.281189 0
M  V30 30 N -0.934825 1.574185 1.528819 0
M  V30 31 N -0.072814 2.223026 2.284351 0
M  V30 32 C 1.555646 3.819653 3.929669 0
M  V30 33 C 2.461567 4.985884 3.598486 0
M  V30 34 C 3.910245 4.642611 3.765154 0 CFG=2
M  V30 35 O 4.710351 5.617642 3.220943 0
M  V30 36 H 7.247772 1.779553 3.190836 0
M  V30 37 H 5.666780 0.963136 3.385531 0
M  V30 38 H 6.176759 1.740752 1.786405 0
M  V30 39 H 5.307333 2.946079 5.445790 0
M  V30 40 H 7.002971 2.859581 4.886097 0
M  V30 41 H 6.208691 4.443519 4.861495 0
M  V30 42 H 4.006646 3.389038 2.028354 0
M  V30 43 H 3.652646 1.271435 3.423967 0
M  V30 44 H 3.439777 2.377889 4.855945 0
M  V30 45 H 2.509496 0.217151 2.122293 0
M  V30 46 H 0.929119 -0.969871 0.739002 0
M  V30 47 H -2.568911 0.275613 0.054958 0
M  V30 48 H 0.518891 -4.009835 -1.301531 0
M  V30 49 H 0.165499 -6.013810 -2.686564 0
M  V30 50 H -0.640579 -7.807829 -4.139774 0
M  V30 51 H -4.323614 -5.861469 -4.464084 0
M  V30 52 H -4.800257 -2.174661 -3.499339 0
M  V30 53 H -6.816006 -3.220848 -3.514672 0
M  V30 54 H -5.970871 -4.198361 -4.635946 0
M  V30 55 H -5.913033 -5.981561 -2.696711 0
M  V30 56 H -7.419419 -5.092912 -2.479235 0
M  V30 57 H -6.610727 -4.388460 -0.481920 0
M  V30 58 H -4.883337 -4.827332 -1.001373 0
M  V30 59 H -4.804500 -2.438551 -0.943233 0
M  V30 60 H -6.429363 -2.337099 -1.797235 0
M  V30 61 H 0.566007 4.064550 3.493250 0
M  V30 62 H 1.367012 3.757751 5.031573 0
M  V30 63 H 2.258240 5.377925 2.593668 0
M  V30 64 H 2.225051 5.783797 4.333555 0
M  V30 65 H 4.163132 4.538453 4.856455 0
M  V30 66 H 4.966360 5.344618 2.299505 0
M  V30 END ATOM
M  V30 BEGIN BOND
M  V30 1 1 1 2
M  V30 2 1 2 3
M  V30 3 1 2 4
M  V30 4 1 4 5
M  V30 5 1 5 6
M  V30 6 1 6 7
M  V30 7 2 7 8
M  V30 8 1 8 9
M  V30 9 2 9 10
M  V30 10 1 10 11
M  V30 11 1 11 12
M  V30 12 2 12 13
M  V30 13 1 13 14
M  V30 14 2 14 15
M  V30 15 1 15 16
M  V30 16 2 16 17
M  V30 17 1 17 18
M  V30 18 2 18 19
M  V30 19 1 19 20
M  V30 20 2 20 21
M  V30 21 1 21 22
M  V30 22 1 22 23
M  V30 23 1 23 24
M  V30 24 1 24 25
M  V30 25 1 25 26
M  V30 26 1 26 27
M  V30 27 1 22 28
M  V30 28 2 28 29
M  V30 29 1 10 30
M  V30 30 2 30 31
M  V30 31 1 6 32
M  V30 32 1 32 33
M  V30 33 1 33 34
M  V30 34 1 34 35
M  V30 35 1 34 4
M  V30 36 1 31 7
M  V30 37 1 29 12
M  V30 38 1 28 15
M  V30 39 1 21 16
M  V30 40 1 27 23
M  V30 41 1 1 36
M  V30 42 1 1 37
M  V30 43 1 1 38
M  V30 44 1 3 39
M  V30 45 1 3 40
M  V30 46 1 3 41
M  V30 47 1 4 42 CFG=3
M  V30 48 1 5 43
M  V30 49 1 5 44
M  V30 50 1 8 45
M  V30 51 1 9 46
M  V30 52 1 11 47
M  V30 53 1 14 48
M  V30 54 1 17 49
M  V30 55 1 18 50
M  V30 56 1 20 51
M  V30 57 1 23 52
M  V30 58 1 24 53
M  V30 59 1 24 54
M  V30 60 1 25 55
M  V30 61 1 25 56
M  V30 62 1 26 57
M  V30 63 1 26 58
M  V30 64 1 27 59
M  V30 65 1 27 60
M  V30 66 1 32 61
M  V30 67 1 32 62
M  V30 68 1 33 63
M  V30 69 1 33 64
M  V30 70 1 34 65 CFG=1
M  V30 71 1 35 66
M  V30 END BOND
M  V30 END CTAB
M  END
>  <Dataset>  (833) 
ChEMBL_Kinases

>  <Ligand_Instance>  (833) 
nan

>  <PDB_ID>  (833) 
nan

>  <Standardized_SMILES>  (833) 
CN(C)[C@H]1CN(c2ccc(Nc3ncc4c5ccncc5n(C5CCCC5)c4n3)nn2)CC[C@@H]1O

>  <Name>  (833) 
nan

>  <Pocket>  (833) 
nan

>  <ATP_Site>  (833) 
nan

>  <Peripheral>  (833) 
nan

>  <Num_H_Atoms_ProtBoundConf>  (833) 
nan

>  <Num_Resolved_Atoms>  (833) 
nan

>  <Num_Not_Resolved_Atoms>  (833) 
nan

$$$$
CHEMBL2295949
     RDKit          3D

  0  0  0  0  0  0  0  0  0  0999 V3000
M  V30 BEGIN CTAB
M  V30 COUNTS 60 63 0 0 0
M  V30 BEGIN ATOM
M  V30 1 C 5.547268 0.793376 5.824129 0
M  V30 2 C 4.292125 0.428552 5.063353 0
M  V30 3 C 3.961603 -1.040429 5.181721 0
M  V30 4 C 4.414672 0.831529 3.585641 0
M  V30 5 C 3.127439 0.421636 2.933039 0 CFG=1
M  V30 6 O 2.089704 1.100689 3.575580 0
M  V30 7 N 3.073103 0.776759 1.530815 0
M  V30 8 C 1.864103 0.321812 0.948987 0
M  V30 9 N 0.705211 0.999160 0.857618 0
M  V30 10 C -0.387517 0.429741 0.267064 0
M  V30 11 N -1.613243 1.138702 0.194245 0
M  V30 12 C -2.767529 0.760598 -0.504087 0
M  V30 13 C -4.047062 0.728864 -0.001974 0
M  V30 14 C -5.123880 0.358001 -0.776676 0
M  V30 15 C -4.994339 -0.003436 -2.097427 0
M  V30 16 C -6.143389 -0.396448 -2.891477 0
M  V30 17 N -7.363385 -0.398996 -2.298653 0
M  V30 18 C -8.454846 -0.760674 -3.010055 0
M  V30 19 C -8.320006 -1.123509 -4.329466 0
M  V30 20 C -7.065052 -1.119413 -4.933756 0
M  V30 21 N -6.022541 -0.752256 -4.179276 0
M  V30 22 C -3.700891 0.017726 -2.643253 0
M  V30 23 C -2.624665 0.396318 -1.842077 0
M  V30 24 C -0.206951 -0.851094 -0.208567 0
M  V30 25 N -1.035675 -1.706928 -0.820721 0
M  V30 26 C -0.448674 -2.875075 -1.111497 0
M  V30 27 N 0.823141 -2.795276 -0.675550 0
M  V30 28 C 1.808724 -3.852549 -0.794205 0
M  V30 29 C 2.652056 -3.637375 -2.037457 0
M  V30 30 C 2.763896 -3.904348 0.384433 0
M  V30 31 C 0.963463 -1.574759 -0.132739 0
M  V30 32 N 2.018290 -0.947917 0.468894 0
M  V30 33 H 5.961505 -0.150612 6.282327 0
M  V30 34 H 6.293188 1.295265 5.193417 0
M  V30 35 H 5.361780 1.451569 6.695437 0
M  V30 36 H 3.475098 0.997668 5.550190 0
M  V30 37 H 4.214516 -1.632789 4.300655 0
M  V30 38 H 2.867258 -1.159656 5.351347 0
M  V30 39 H 4.439048 -1.465388 6.098679 0
M  V30 40 H 4.563233 1.911193 3.494854 0
M  V30 41 H 5.257987 0.295829 3.126972 0
M  V30 42 H 2.937500 -0.664355 3.042680 0
M  V30 43 H 2.186535 2.064739 3.334050 0
M  V30 44 H 3.543753 1.233298 0.735822 0
M  V30 45 H -1.691554 2.042577 0.707491 0
M  V30 46 H -4.190405 1.012909 1.048480 0
M  V30 47 H -6.144601 0.333893 -0.371939 0
M  V30 48 H -9.413365 -0.752709 -2.509857 0
M  V30 49 H -9.177858 -1.421051 -4.930763 0
M  V30 50 H -7.015428 -1.412724 -5.972208 0
M  V30 51 H -3.660690 -0.271507 -3.671544 0
M  V30 52 H -1.717806 0.369759 -2.431235 0
M  V30 53 H -0.981744 -3.695527 -1.614910 0
M  V30 54 H 1.289110 -4.838719 -0.911430 0
M  V30 55 H 3.239152 -2.708325 -1.903285 0
M  V30 56 H 2.064678 -3.645761 -2.968357 0
M  V30 57 H 3.419095 -4.457437 -2.011785 0
M  V30 58 H 2.530073 -3.163456 1.169214 0
M  V30 59 H 2.706374 -4.927108 0.837635 0
M  V30 60 H 3.815089 -3.749520 0.066326 0
M  V30 END ATOM
M  V30 BEGIN BOND
M  V30 1 1 1 2
M  V30 2 1 2 3
M  V30 3 1 2 4
M  V30 4 1 4 5
M  V30 5 1 5 6
M  V30 6 1 5 7
M  V30 7 1 7 8
M  V30 8 2 8 9
M  V30 9 1 9 10
M  V30 10 1 10 11
M  V30 11 1 11 12
M  V30 12 2 12 13
M  V30 13 1 13 14
M  V30 14 2 14 15
M  V30 15 1 15 16
M  V30 16 2 16 17
M  V30 17 1 17 18
M  V30 18 2 18 19
M  V30 19 1 19 20
M  V30 20 2 20 21
M  V30 21 1 15 22
M  V30 22 2 22 23
M  V30 23 2 10 24
M  V30 24 1 24 25
M  V30 25 2 25 26
M  V30 26 1 26 27
M  V30 27 1 27 28
M  V30 28 1 28 29
M  V30 29 1 28 30
M  V30 30 1 27 31
M  V30 31 2 31 32
M  V30 32 1 32 8
M  V30 33 1 23 12
M  V30 34 1 31 24
M  V30 35 1 21 16
M  V30 36 1 1 33
M  V30 37 1 1 34
M  V30 38 1 1 35
M  V30 39 1 2 36
M  V30 40 1 3 37
M  V30 41 1 3 38
M  V30 42 1 3 39
M  V30 43 1 4 40
M  V30 44 1 4 41
M  V30 45 1 5 42 CFG=3
M  V30 46 1 6 43
M  V30 47 1 7 44
M  V30 48 1 11 45
M  V30 49 1 13 46
M  V30 50 1 14 47
M  V30 51 1 18 48
M  V30 52 1 19 49
M  V30 53 1 20 50
M  V30 54 1 22 51
M  V30 55 1 23 52
M  V30 56 1 26 53
M  V30 57 1 28 54
M  V30 58 1 29 55
M  V30 59 1 29 56
M  V30 60 1 29 57
M  V30 61 1 30 58
M  V30 62 1 30 59
M  V30 63 1 30 60
M  V30 END BOND
M  V30 END CTAB
M  END
>  <Dataset>  (834) 
ChEMBL_Kinases

>  <Ligand_Instance>  (834) 
nan

>  <PDB_ID>  (834) 
nan

>  <Standardized_SMILES>  (834) 
CC(C)C[C@@H](O)Nc1nc(Nc2ccc(-c3ncccn3)cc2)c2ncn(C(C)C)c2n1

>  <Name>  (834) 
nan

>  <Pocket>  (834) 
nan

>  <ATP_Site>  (834) 
nan

>  <Peripheral>  (834) 
nan

>  <Num_H_Atoms_ProtBoundConf>  (834) 
nan

>  <Num_Resolved_Atoms>  (834) 
nan

>  <Num_Not_Resolved_Atoms>  (834) 
nan

$$$$
CHEMBL3699771
     RDKit          3D

  0  0  0  0  0  0  0  0  0  0999 V3000
M  V30 BEGIN CTAB
M  V30 COUNTS 58 63 0 0 0
M  V30 BEGIN ATOM
M  V30 1 N 4.927425 -0.084000 4.601736 0
M  V30 2 C 3.836269 -0.590109 3.805905 0
M  V30 3 O 3.462100 -1.790668 3.886167 0
M  V30 4 C 3.185822 0.355507 2.902687 0
M  V30 5 C 3.579878 1.693548 2.790552 0
M  V30 6 C 2.907240 2.516881 1.908863 0
M  V30 7 C 3.298918 3.919847 1.773712 0
M  V30 8 C 2.699604 4.830808 0.929673 0
M  V30 9 C 3.414475 5.988667 1.166242 0
M  V30 10 N 4.366051 5.748859 2.092341 0
M  V30 11 N 4.305234 4.466806 2.478315 0
M  V30 12 C 1.868993 1.982385 1.171269 0
M  V30 13 N 1.467075 0.698936 1.257532 0
M  V30 14 C 0.495876 -0.002272 0.637863 0
M  V30 15 C -0.386896 0.617225 -0.358784 0
M  V30 16 C -0.523116 0.294220 -1.693756 0
M  V30 17 C -1.407638 0.993467 -2.474943 0
M  V30 18 C -2.147346 2.010531 -1.908665 0
M  V30 19 C -2.057109 2.382050 -0.579808 0
M  V30 20 C -1.144341 1.645575 0.184135 0
M  V30 21 C 0.564729 -1.300830 1.148109 0
M  V30 22 C -0.388455 -2.279382 0.638393 0
M  V30 23 C -1.743644 -2.100764 0.811373 0
M  V30 24 C -2.659219 -3.016075 0.336408 0
M  V30 25 C -2.235662 -4.144594 -0.330459 0
M  V30 26 C -2.967314 -5.279086 -0.941090 0
M  V30 27 N -2.434672 -6.549299 -0.490395 0
M  V30 28 C -4.452338 -5.271980 -0.866738 0
M  V30 29 C -4.571432 -4.818519 -2.311945 0
M  V30 30 C -3.101916 -5.168538 -2.460757 0
M  V30 31 C -0.858681 -4.331791 -0.509525 0
M  V30 32 C 0.063449 -3.401930 -0.026608 0
M  V30 33 N 1.554099 -1.303585 2.027373 0
M  V30 34 C 2.134987 -0.086115 2.121929 0
M  V30 35 H 4.718981 0.827228 5.105685 0
M  V30 36 H 5.736928 -0.749743 4.514013 0
M  V30 37 H 4.403318 2.032189 3.404804 0
M  V30 38 H 1.881484 4.721712 0.241443 0
M  V30 39 H 3.254959 6.955750 0.693095 0
M  V30 40 H 4.947053 4.054739 3.188797 0
M  V30 41 H 1.384439 2.689652 0.496682 0
M  V30 42 H 0.116938 -0.518181 -1.992567 0
M  V30 43 H -1.479642 0.704943 -3.512266 0
M  V30 44 H -2.824599 2.526744 -2.560944 0
M  V30 45 H -2.645932 3.182604 -0.154523 0
M  V30 46 H -1.103445 1.971677 1.231031 0
M  V30 47 H -2.156031 -1.248683 1.319815 0
M  V30 48 H -3.735245 -2.986345 0.408982 0
M  V30 49 H -3.137398 -7.325083 -0.566917 0
M  V30 50 H -2.301444 -6.435680 0.551255 0
M  V30 51 H -4.865594 -4.568988 -0.131765 0
M  V30 52 H -4.928830 -6.279336 -0.719000 0
M  V30 53 H -5.210969 -5.416657 -2.966351 0
M  V30 54 H -4.804902 -3.740465 -2.407289 0
M  V30 55 H -2.484641 -4.315138 -2.823984 0
M  V30 56 H -2.859026 -6.083579 -3.000318 0
M  V30 57 H -0.348853 -5.165392 -1.012210 0
M  V30 58 H 1.134614 -3.497592 -0.137310 0
M  V30 END ATOM
M  V30 BEGIN BOND
M  V30 1 1 1 2
M  V30 2 2 2 3
M  V30 3 1 2 4
M  V30 4 2 4 5
M  V30 5 1 5 6
M  V30 6 1 6 7
M  V30 7 2 7 8
M  V30 8 1 8 9
M  V30 9 2 9 10
M  V30 10 1 10 11
M  V30 11 2 6 12
M  V30 12 1 12 13
M  V30 13 1 13 14
M  V30 14 1 14 15
M  V30 15 2 15 16
M  V30 16 1 16 17
M  V30 17 2 17 18
M  V30 18 1 18 19
M  V30 19 2 19 20
M  V30 20 2 14 21
M  V30 21 1 21 22
M  V30 22 2 22 23
M  V30 23 1 23 24
M  V30 24 2 24 25
M  V30 25 1 25 26
M  V30 26 1 26 27
M  V30 27 1 26 28
M  V30 28 1 28 29
M  V30 29 1 29 30
M  V30 30 1 25 31
M  V30 31 2 31 32
M  V30 32 1 21 33
M  V30 33 2 33 34
M  V30 34 1 34 4
M  V30 35 1 11 7
M  V30 36 1 34 13
M  V30 37 1 20 15
M  V30 38 1 32 22
M  V30 39 1 30 26
M  V30 40 1 1 35
M  V30 41 1 1 36
M  V30 42 1 5 37
M  V30 43 1 8 38
M  V30 44 1 9 39
M  V30 45 1 11 40
M  V30 46 1 12 41
M  V30 47 1 16 42
M  V30 48 1 17 43
M  V30 49 1 18 44
M  V30 50 1 19 45
M  V30 51 1 20 46
M  V30 52 1 23 47
M  V30 53 1 24 48
M  V30 54 1 27 49
M  V30 55 1 27 50
M  V30 56 1 28 51
M  V30 57 1 28 52
M  V30 58 1 29 53
M  V30 59 1 29 54
M  V30 60 1 30 55
M  V30 61 1 30 56
M  V30 62 1 31 57
M  V30 63 1 32 58
M  V30 END BOND
M  V30 END CTAB
M  END
>  <Dataset>  (835) 
ChEMBL_Kinases

>  <Ligand_Instance>  (835) 
nan

>  <PDB_ID>  (835) 
nan

>  <Standardized_SMILES>  (835) 
NC(=O)c1cc(-c2ccn[nH]2)cn2c(-c3ccccc3)c(-c3ccc(C4(N)CCC4)cc3)nc12

>  <Name>  (835) 
nan

>  <Pocket>  (835) 
nan

>  <ATP_Site>  (835) 
nan

>  <Peripheral>  (835) 
nan

>  <Num_H_Atoms_ProtBoundConf>  (835) 
nan

>  <Num_Resolved_Atoms>  (835) 
nan

>  <Num_Not_Resolved_Atoms>  (835) 
nan

$$$$
CHEMBL230595
     RDKit          3D

  0  0  0  0  0  0  0  0  0  0999 V3000
M  V30 BEGIN CTAB
M  V30 COUNTS 46 48 0 0 0
M  V30 BEGIN ATOM
M  V30 1 C -4.308135 -3.646605 3.951239 0
M  V30 2 S -3.233510 -5.017606 3.716727 0
M  V30 3 O -3.532947 -6.055284 4.745739 0
M  V30 4 O -3.546137 -5.641114 2.369236 0
M  V30 5 N -1.562861 -4.557218 3.745739 0
M  V30 6 C -1.057408 -3.659700 2.793404 0
M  V30 7 C -0.232518 -2.650678 3.302053 0
M  V30 8 C 0.296017 -1.733887 2.408313 0
M  V30 9 C 0.037749 -1.784140 1.049891 0
M  V30 10 C 0.665145 -0.747763 0.223987 0
M  V30 11 C 0.679243 0.592134 0.571147 0
M  V30 12 C 1.291982 1.531209 -0.257547 0
M  V30 13 C 1.314918 2.949886 0.096916 0
M  V30 14 C 2.377100 3.770020 -0.290269 0
M  V30 15 C 2.381366 5.112316 0.055259 0
M  V30 16 C 1.298443 5.591641 0.790985 0
M  V30 17 Cl 1.345598 7.292298 1.205153 0
M  V30 18 C 0.242807 4.787555 1.178643 0
M  V30 19 C 0.237731 3.451187 0.835128 0
M  V30 20 C 1.902704 1.137325 -1.452838 0
M  V30 21 C 1.843016 -0.213166 -1.721849 0
M  V30 22 C 2.475785 -0.639666 -2.964818 0
M  V30 23 N 3.124302 0.241802 -3.874058 0
M  V30 24 O 2.603213 -1.747391 -3.497603 0
M  V30 25 C 1.258367 -1.200354 -0.956471 0
M  V30 26 N 1.262138 -2.551380 -1.337666 0
M  V30 27 C -0.773368 -2.784309 0.585427 0
M  V30 28 C -1.325963 -3.723907 1.434541 0
M  V30 29 H -3.876832 -2.836356 4.543919 0
M  V30 30 H -4.564443 -3.223932 2.943997 0
M  V30 31 H -5.246141 -4.024893 4.441889 0
M  V30 32 H -0.891415 -4.934255 4.470227 0
M  V30 33 H -0.009121 -2.579658 4.353003 0
M  V30 34 H 0.937722 -0.953707 2.827644 0
M  V30 35 H 0.210599 0.895377 1.488766 0
M  V30 36 H 3.182686 3.307118 -0.865173 0
M  V30 37 H 3.208229 5.745614 -0.247530 0
M  V30 38 H -0.584089 5.192404 1.750333 0
M  V30 39 H -0.574853 2.789076 1.122537 0
M  V30 40 H 2.382222 1.824744 -2.114906 0
M  V30 41 H 4.009350 0.794091 -3.967141 0
M  V30 42 H 3.998775 0.412138 -3.303162 0
M  V30 43 H 1.003015 -3.010681 -2.248494 0
M  V30 44 H 1.572409 -3.219575 -0.600745 0
M  V30 45 H -0.968382 -2.813346 -0.481905 0
M  V30 46 H -1.966210 -4.513832 1.068231 0
M  V30 END ATOM
M  V30 BEGIN BOND
M  V30 1 1 1 2
M  V30 2 2 2 3
M  V30 3 2 2 4
M  V30 4 1 2 5
M  V30 5 1 5 6
M  V30 6 2 6 7
M  V30 7 1 7 8
M  V30 8 2 8 9
M  V30 9 1 9 10
M  V30 10 2 10 11
M  V30 11 1 11 12
M  V30 12 1 12 13
M  V30 13 2 13 14
M  V30 14 1 14 15
M  V30 15 2 15 16
M  V30 16 1 16 17
M  V30 17 1 16 18
M  V30 18 2 18 19
M  V30 19 2 12 20
M  V30 20 1 20 21
M  V30 21 1 21 22
M  V30 22 1 22 23
M  V30 23 2 22 24
M  V30 24 2 21 25
M  V30 25 1 25 26
M  V30 26 1 9 27
M  V30 27 2 27 28
M  V30 28 1 28 6
M  V30 29 1 25 10
M  V30 30 1 19 13
M  V30 31 1 1 29
M  V30 32 1 1 30
M  V30 33 1 1 31
M  V30 34 1 5 32
M  V30 35 1 7 33
M  V30 36 1 8 34
M  V30 37 1 11 35
M  V30 38 1 14 36
M  V30 39 1 15 37
M  V30 40 1 18 38
M  V30 41 1 19 39
M  V30 42 1 20 40
M  V30 43 1 23 41
M  V30 44 1 23 42
M  V30 45 1 26 43
M  V30 46 1 26 44
M  V30 47 1 27 45
M  V30 48 1 28 46
M  V30 END BOND
M  V30 END CTAB
M  END
>  <Dataset>  (836) 
ChEMBL_Kinases

>  <Ligand_Instance>  (836) 
nan

>  <PDB_ID>  (836) 
nan

>  <Standardized_SMILES>  (836) 
CS(=O)(=O)Nc1ccc(-c2cc(-c3ccc(Cl)cc3)cc(C(N)=O)c2N)cc1

>  <Name>  (836) 
nan

>  <Pocket>  (836) 
nan

>  <ATP_Site>  (836) 
nan

>  <Peripheral>  (836) 
nan

>  <Num_H_Atoms_ProtBoundConf>  (836) 
nan

>  <Num_Resolved_Atoms>  (836) 
nan

>  <Num_Not_Resolved_Atoms>  (836) 
nan

$$$$
CHEMBL4563026
     RDKit          3D

  0  0  0  0  0  0  0  0  0  0999 V3000
M  V30 BEGIN CTAB
M  V30 COUNTS 79 83 0 0 0
M  V30 BEGIN ATOM
M  V30 1 C 0.248799 -4.720620 -0.303766 0
M  V30 2 C 1.701880 -4.706818 -0.802689 0
M  V30 3 C 1.920178 -6.139901 -1.320679 0
M  V30 4 C 1.810068 -3.731885 -1.895185 0
M  V30 5 C 2.895519 -2.726169 -1.810506 0
M  V30 6 N 2.358114 -1.375187 -1.809117 0
M  V30 7 C 2.624314 -0.400365 -2.805447 0
M  V30 8 O 3.371026 -0.624906 -3.799706 0
M  V30 9 C 2.050996 0.937390 -2.753441 0
M  V30 10 C 2.320819 1.832341 -3.785501 0
M  V30 11 C 1.794277 3.129764 -3.804391 0
M  V30 12 C 0.977749 3.561127 -2.777292 0
M  V30 13 N 0.390318 4.853885 -2.726881 0
M  V30 14 C -0.400582 5.225381 -1.605969 0
M  V30 15 N 0.037478 5.927747 -0.525724 0
M  V30 16 C -0.806739 6.212712 0.493393 0
M  V30 17 C -2.118047 5.777717 0.415458 0
M  V30 18 F -2.823163 6.158023 1.526483 0
M  V30 19 C -2.565279 5.056852 -0.694157 0
M  V30 20 N -3.932483 4.670351 -0.619337 0
M  V30 21 C -3.786058 3.354014 -0.102279 0
M  V30 22 C -3.851490 3.038517 1.235594 0
M  V30 23 C -3.711463 1.770532 1.759281 0
M  V30 24 C -3.488107 0.716638 0.898195 0
M  V30 25 C -3.297634 -0.690970 1.233396 0
M  V30 26 O -3.161643 -1.673790 0.499661 0
M  V30 27 N -3.251319 -1.054502 2.607362 0
M  V30 28 C -3.097403 -2.199859 3.408470 0
M  V30 29 C -1.771316 -2.523348 3.730407 0
M  V30 30 C -1.471849 -3.634810 4.523965 0
M  V30 31 C -2.540149 -4.376081 4.960626 0
M  V30 32 C -3.839681 -4.076030 4.657143 0
M  V30 33 C -4.152413 -2.973446 3.868311 0
M  V30 34 Cl -5.775533 -2.514587 3.430915 0
M  V30 35 C -3.413387 0.971245 -0.456565 0
M  V30 36 C -3.559123 2.271261 -0.962553 0
M  V30 37 N -1.674281 4.808998 -1.670278 0
M  V30 38 C 0.725573 2.658202 -1.766908 0
M  V30 39 C 1.235632 1.379350 -1.734600 0
M  V30 40 C 3.834557 -2.861299 -0.672029 0
M  V30 41 C 3.215510 -3.377083 0.572078 0
M  V30 42 C 4.380238 -3.729624 1.513306 0
M  V30 43 C 2.375000 -2.355842 1.304468 0
M  V30 44 N 2.518005 -4.573673 0.328358 0
M  V30 45 O 3.156943 -5.652510 0.767016 0 RAD=2 VAL=1
M  V30 46 H -0.346543 -5.528485 -0.765826 0
M  V30 47 H 0.178072 -4.718340 0.788555 0
M  V30 48 H -0.261876 -3.774804 -0.653542 0
M  V30 49 H 1.165915 -6.392658 -2.104768 0
M  V30 50 H 1.783811 -6.839025 -0.472091 0
M  V30 51 H 2.953459 -6.282981 -1.695240 0
M  V30 52 H 0.835723 -3.181715 -2.066715 0
M  V30 53 H 1.924077 -4.289895 -2.869433 0
M  V30 54 H 3.539467 -2.750982 -2.741068 0
M  V30 55 H 1.741954 -1.170696 -0.993787 0
M  V30 56 H 2.955985 1.570966 -4.631724 0
M  V30 57 H 2.008417 3.818252 -4.609683 0
M  V30 58 H 0.508003 5.557911 -3.477183 0
M  V30 59 H -0.370805 6.772196 1.305523 0
M  V30 60 H -4.809099 5.182406 -0.865206 0
M  V30 61 H -4.024195 3.803808 1.963426 0
M  V30 62 H -3.762211 1.518131 2.799077 0
M  V30 63 H -3.346900 -0.366712 3.412000 0
M  V30 64 H -0.924412 -1.938952 3.385942 0
M  V30 65 H -0.452657 -3.866227 4.759550 0
M  V30 66 H -2.313016 -5.247532 5.583140 0
M  V30 67 H -4.660623 -4.689207 5.023474 0
M  V30 68 H -3.241323 0.211647 -1.233058 0
M  V30 69 H -3.498663 2.457229 -2.033366 0
M  V30 70 H 0.079080 2.996867 -0.951245 0
M  V30 71 H 1.001676 0.722979 -0.919667 0
M  V30 72 H 4.370242 -1.882823 -0.525335 0
M  V30 73 H 4.647275 -3.577562 -0.953799 0
M  V30 74 H 4.079902 -3.627686 2.584917 0
M  V30 75 H 4.746130 -4.745960 1.356386 0
M  V30 76 H 5.199127 -2.968700 1.363757 0
M  V30 77 H 2.826493 -1.363709 1.183955 0
M  V30 78 H 2.424370 -2.615957 2.383059 0
M  V30 79 H 1.309748 -2.386809 1.044896 0
M  V30 END ATOM
M  V30 BEGIN BOND
M  V30 1 1 1 2
M  V30 2 1 2 3
M  V30 3 1 2 4
M  V30 4 1 4 5
M  V30 5 1 5 6
M  V30 6 1 6 7
M  V30 7 2 7 8
M  V30 8 1 7 9
M  V30 9 2 9 10
M  V30 10 1 10 11
M  V30 11 2 11 12
M  V30 12 1 12 13
M  V30 13 1 13 14
M  V30 14 2 14 15
M  V30 15 1 15 16
M  V30 16 2 16 17
M  V30 17 1 17 18
M  V30 18 1 17 19
M  V30 19 1 19 20
M  V30 20 1 20 21
M  V30 21 2 21 22
M  V30 22 1 22 23
M  V30 23 2 23 24
M  V30 24 1 24 25
M  V30 25 2 25 26
M  V30 26 1 25 27
M  V30 27 1 27 28
M  V30 28 2 28 29
M  V30 29 1 29 30
M  V30 30 2 30 31
M  V30 31 1 31 32
M  V30 32 2 32 33
M  V30 33 1 33 34
M  V30 34 1 24 35
M  V30 35 2 35 36
M  V30 36 2 19 37
M  V30 37 1 12 38
M  V30 38 2 38 39
M  V30 39 1 5 40
M  V30 40 1 40 41
M  V30 41 1 41 42
M  V30 42 1 41 43
M  V30 43 1 41 44
M  V30 44 1 44 45
M  V30 45 1 44 2
M  V30 46 1 39 9
M  V30 47 1 37 14
M  V30 48 1 36 21
M  V30 49 1 33 28
M  V30 50 1 1 46
M  V30 51 1 1 47
M  V30 52 1 1 48
M  V30 53 1 3 49
M  V30 54 1 3 50
M  V30 55 1 3 51
M  V30 56 1 4 52
M  V30 57 1 4 53
M  V30 58 1 5 54
M  V30 59 1 6 55
M  V30 60 1 10 56
M  V30 61 1 11 57
M  V30 62 1 13 58
M  V30 63 1 16 59
M  V30 64 1 20 60
M  V30 65 1 22 61
M  V30 66 1 23 62
M  V30 67 1 27 63
M  V30 68 1 29 64
M  V30 69 1 30 65
M  V30 70 1 31 66
M  V30 71 1 32 67
M  V30 72 1 35 68
M  V30 73 1 36 69
M  V30 74 1 38 70
M  V30 75 1 39 71
M  V30 76 1 40 72
M  V30 77 1 40 73
M  V30 78 1 42 74
M  V30 79 1 42 75
M  V30 80 1 42 76
M  V30 81 1 43 77
M  V30 82 1 43 78
M  V30 83 1 43 79
M  V30 END BOND
M  V30 END CTAB
M  END
>  <Dataset>  (837) 
ChEMBL_Kinases

>  <Ligand_Instance>  (837) 
nan

>  <PDB_ID>  (837) 
nan

>  <Standardized_SMILES>  (837) 
CC1(C)CC(NC(=O)c2ccc(Nc3ncc(F)c(Nc4ccc(C(=O)Nc5ccccc5Cl)cc4)n3)cc2)CC(C)(C)N1[O]

>  <Name>  (837) 
nan

>  <Pocket>  (837) 
nan

>  <ATP_Site>  (837) 
nan

>  <Peripheral>  (837) 
nan

>  <Num_H_Atoms_ProtBoundConf>  (837) 
nan

>  <Num_Resolved_Atoms>  (837) 
nan

>  <Num_Not_Resolved_Atoms>  (837) 
nan

$$$$
CHEMBL3699755
     RDKit          3D

  0  0  0  0  0  0  0  0  0  0999 V3000
M  V30 BEGIN CTAB
M  V30 COUNTS 52 56 0 0 0
M  V30 BEGIN ATOM
M  V30 1 C 3.159437 0.561540 7.731065 0
M  V30 2 O 2.184430 -0.076901 6.942671 0
M  V30 3 C 2.104823 0.121896 5.569927 0
M  V30 4 C 2.914768 0.926916 4.792600 0
M  V30 5 C 2.710412 1.022656 3.429604 0
M  V30 6 N 1.713611 0.325047 2.857087 0
M  V30 7 C 1.394216 0.317099 1.549432 0
M  V30 8 C 1.899647 0.953865 0.368352 0
M  V30 9 C 2.424527 0.188894 -0.676118 0
M  V30 10 C 2.908727 0.819623 -1.810163 0
M  V30 11 C 2.894919 2.193164 -1.955364 0
M  V30 12 C 2.384335 2.973854 -0.944006 0
M  V30 13 C 1.913358 2.325231 0.163543 0
M  V30 14 C 0.327253 -0.523294 1.426045 0
M  V30 15 C -0.538661 -1.020531 0.362708 0
M  V30 16 C -1.360757 -0.216239 -0.397647 0
M  V30 17 C -2.161018 -0.772292 -1.398443 0
M  V30 18 C -2.159906 -2.148737 -1.665252 0
M  V30 19 C -3.077506 -2.459531 -2.752466 0
M  V30 20 N -3.135027 -1.490920 -3.830701 0
M  V30 21 C -4.527500 -2.751052 -2.334636 0
M  V30 22 C -4.512160 -3.812847 -3.434899 0
M  V30 23 C -2.988386 -3.869851 -3.223305 0
M  V30 24 C -1.324602 -2.910730 -0.881940 0
M  V30 25 C -0.529906 -2.377591 0.108198 0
M  V30 26 N 0.025690 -1.005824 2.668935 0
M  V30 27 C 0.896164 -0.474824 3.576033 0
M  V30 28 C 1.079156 -0.588159 4.940553 0
M  V30 29 C 0.179500 -1.457306 5.674234 0
M  V30 30 N -0.544475 -2.141616 6.261347 0
M  V30 31 H 3.475135 1.551694 7.352470 0
M  V30 32 H 2.803170 0.733053 8.776091 0
M  V30 33 H 4.089168 -0.046799 7.821486 0
M  V30 34 H 3.692856 1.454279 5.328242 0
M  V30 35 H 3.371630 1.668861 2.852900 0
M  V30 36 H 2.464591 -0.885916 -0.625884 0
M  V30 37 H 3.321706 0.235903 -2.634288 0
M  V30 38 H 3.289042 2.631111 -2.868532 0
M  V30 39 H 2.351736 4.035923 -1.007591 0
M  V30 40 H 1.510976 2.941845 0.960768 0
M  V30 41 H -1.329625 0.834765 -0.158400 0
M  V30 42 H -2.744084 -0.005135 -1.899232 0
M  V30 43 H -3.910500 -0.822966 -3.660138 0
M  V30 44 H -3.152961 -1.918470 -4.780692 0
M  V30 45 H -4.623187 -3.243374 -1.358514 0
M  V30 46 H -5.225140 -1.903884 -2.526565 0
M  V30 47 H -4.795535 -3.387673 -4.400801 0
M  V30 48 H -5.031782 -4.731912 -3.150830 0
M  V30 49 H -2.698495 -4.605957 -2.452903 0
M  V30 50 H -2.461773 -3.992269 -4.210715 0
M  V30 51 H -1.360090 -3.949045 -1.125123 0
M  V30 52 H 0.072432 -3.122116 0.634542 0
M  V30 END ATOM
M  V30 BEGIN BOND
M  V30 1 1 1 2
M  V30 2 1 2 3
M  V30 3 1 3 4
M  V30 4 2 4 5
M  V30 5 1 5 6
M  V30 6 1 6 7
M  V30 7 1 7 8
M  V30 8 2 8 9
M  V30 9 1 9 10
M  V30 10 2 10 11
M  V30 11 1 11 12
M  V30 12 2 12 13
M  V30 13 2 7 14
M  V30 14 1 14 15
M  V30 15 2 15 16
M  V30 16 1 16 17
M  V30 17 2 17 18
M  V30 18 1 18 19
M  V30 19 1 19 20
M  V30 20 1 19 21
M  V30 21 1 21 22
M  V30 22 1 22 23
M  V30 23 1 18 24
M  V30 24 2 24 25
M  V30 25 1 14 26
M  V30 26 2 26 27
M  V30 27 1 27 28
M  V30 28 1 28 29
M  V30 29 3 29 30
M  V30 30 2 28 3
M  V30 31 1 27 6
M  V30 32 1 13 8
M  V30 33 1 25 15
M  V30 34 1 23 19
M  V30 35 1 1 31
M  V30 36 1 1 32
M  V30 37 1 1 33
M  V30 38 1 4 34
M  V30 39 1 5 35
M  V30 40 1 9 36
M  V30 41 1 10 37
M  V30 42 1 11 38
M  V30 43 1 12 39
M  V30 44 1 13 40
M  V30 45 1 16 41
M  V30 46 1 17 42
M  V30 47 1 20 43
M  V30 48 1 20 44
M  V30 49 1 21 45
M  V30 50 1 21 46
M  V30 51 1 22 47
M  V30 52 1 22 48
M  V30 53 1 23 49
M  V30 54 1 23 50
M  V30 55 1 24 51
M  V30 56 1 25 52
M  V30 END BOND
M  V30 END CTAB
M  END
>  <Dataset>  (838) 
ChEMBL_Kinases

>  <Ligand_Instance>  (838) 
nan

>  <PDB_ID>  (838) 
nan

>  <Standardized_SMILES>  (838) 
COc1ccn2c(-c3ccccc3)c(-c3ccc(C4(N)CCC4)cc3)nc2c1C#N

>  <Name>  (838) 
nan

>  <Pocket>  (838) 
nan

>  <ATP_Site>  (838) 
nan

>  <Peripheral>  (838) 
nan

>  <Num_H_Atoms_ProtBoundConf>  (838) 
nan

>  <Num_Resolved_Atoms>  (838) 
nan

>  <Num_Not_Resolved_Atoms>  (838) 
nan

$$$$
CHEMBL4536515
     RDKit          3D

  0  0  0  0  0  0  0  0  0  0999 V3000
M  V30 BEGIN CTAB
M  V30 COUNTS 37 39 0 0 0
M  V30 BEGIN ATOM
M  V30 1 C 1.235276 -3.538297 2.149603 0
M  V30 2 C 0.091686 -2.974375 1.404615 0
M  V30 3 C 0.198380 -1.768501 0.778869 0
M  V30 4 C 1.379293 -0.924472 0.720278 0
M  V30 5 C 2.667385 -1.029762 1.170626 0
M  V30 6 C 3.430475 0.067934 0.854471 0
M  V30 7 C 2.535318 0.856720 0.181730 0
M  V30 8 C 2.888671 2.175770 -0.372930 0
M  V30 9 C 2.156783 3.277592 -0.422222 0
M  V30 10 S 2.448221 4.945663 -1.061709 0
M  V30 11 C 0.680008 5.304974 -1.247548 0
M  V30 12 N 0.211792 6.182038 -2.035180 0
M  V30 13 N 0.041353 4.402556 -0.340353 0
M  V30 14 C 0.804772 3.311423 0.117012 0
M  V30 15 O 0.301837 2.477528 0.919750 0
M  V30 16 O 1.399146 0.238152 0.141886 0
M  V30 17 C -0.939119 -1.315583 0.117606 0
M  V30 18 C -2.118987 -2.010955 0.073650 0
M  V30 19 C -2.221995 -3.224311 0.704481 0
M  V30 20 N -3.483963 -3.857811 0.604628 0 CHG=1 VAL=4
M  V30 21 O -4.241132 -3.672131 -0.356188 0
M  V30 22 O -4.187630 -4.729649 1.370662 0 CHG=-1 VAL=1
M  V30 23 C -1.108309 -3.682713 1.359347 0
M  V30 24 C -1.191776 -4.995836 2.032552 0
M  V30 25 H 1.507889 -2.849166 2.976771 0
M  V30 26 H 0.831238 -4.437677 2.721230 0
M  V30 27 H 2.034482 -3.868433 1.494212 0
M  V30 28 H 3.083852 -1.851681 1.706010 0
M  V30 29 H 4.466239 0.248444 1.083320 0
M  V30 30 H 3.891140 2.302439 -0.816622 0
M  V30 31 H -0.798559 6.418912 -2.171173 0
M  V30 32 H -0.961262 4.647077 -0.096728 0
M  V30 33 H -0.940659 -0.348020 -0.415291 0
M  V30 34 H -2.951306 -1.585130 -0.462657 0
M  V30 35 H -2.100314 -5.546119 1.740827 0
M  V30 36 H -0.350705 -5.670983 1.683262 0
M  V30 37 H -1.091875 -4.932041 3.134176 0
M  V30 END ATOM
M  V30 BEGIN BOND
M  V30 1 1 1 2
M  V30 2 2 2 3
M  V30 3 1 3 4
M  V30 4 2 4 5
M  V30 5 1 5 6
M  V30 6 2 6 7
M  V30 7 1 7 8
M  V30 8 2 8 9
M  V30 9 1 9 10
M  V30 10 1 10 11
M  V30 11 2 11 12 CFG=2
M  V30 12 1 11 13
M  V30 13 1 13 14
M  V30 14 2 14 15
M  V30 15 1 7 16
M  V30 16 1 3 17
M  V30 17 2 17 18
M  V30 18 1 18 19
M  V30 19 1 19 20
M  V30 20 2 20 21
M  V30 21 1 20 22
M  V30 22 2 19 23
M  V30 23 1 23 24
M  V30 24 1 23 2
M  V30 25 1 16 4
M  V30 26 1 14 9
M  V30 27 1 1 25
M  V30 28 1 1 26
M  V30 29 1 1 27
M  V30 30 1 5 28
M  V30 31 1 6 29
M  V30 32 1 8 30
M  V30 33 1 12 31
M  V30 34 1 13 32
M  V30 35 1 17 33
M  V30 36 1 18 34
M  V30 37 1 24 35
M  V30 38 1 24 36
M  V30 39 1 24 37
M  V30 END BOND
M  V30 END CTAB
M  END
>  <Dataset>  (839) 
ChEMBL_Kinases

>  <Ligand_Instance>  (839) 
nan

>  <PDB_ID>  (839) 
nan

>  <Standardized_SMILES>  (839) 
Cc1c(-c2ccc(/C=C3/SC(=N)NC3=O)o2)ccc([N+](=O)[O-])c1C

>  <Name>  (839) 
nan

>  <Pocket>  (839) 
nan

>  <ATP_Site>  (839) 
nan

>  <Peripheral>  (839) 
nan

>  <Num_H_Atoms_ProtBoundConf>  (839) 
nan

>  <Num_Resolved_Atoms>  (839) 
nan

>  <Num_Not_Resolved_Atoms>  (839) 
nan

$$$$
CHEMBL3699754
     RDKit          3D

  0  0  0  0  0  0  0  0  0  0999 V3000
M  V30 BEGIN CTAB
M  V30 COUNTS 47 51 0 0 0
M  V30 BEGIN ATOM
M  V30 1 N -2.274753 -4.222160 2.207245 0
M  V30 2 C -1.249440 -4.433786 1.200772 0
M  V30 3 C -0.577805 -3.194779 0.742103 0
M  V30 4 C -0.407830 -2.717003 -0.541321 0
M  V30 5 C 0.256652 -1.525869 -0.750095 0
M  V30 6 C 0.767449 -0.779787 0.293533 0
M  V30 7 C 1.459596 0.474859 -0.022551 0
M  V30 8 N 2.568232 0.691135 -0.757001 0
M  V30 9 C 2.847009 2.023646 -0.779002 0
M  V30 10 C 3.876851 2.733743 -1.396502 0
M  V30 11 Cl 5.116460 1.933883 -2.350437 0
M  V30 12 C 3.916991 4.123349 -1.247304 0
M  V30 13 C 2.938752 4.749040 -0.495288 0
M  V30 14 Cl 2.990654 6.488192 -0.309339 0
M  V30 15 C 1.923045 4.011849 0.109108 0
M  V30 16 N 1.908639 2.676606 -0.050847 0
M  V30 17 C 1.049319 1.728565 0.419106 0
M  V30 18 C -0.128050 2.006257 1.263619 0
M  V30 19 C -1.440776 1.766833 0.936645 0
M  V30 20 C -2.436344 2.085424 1.843863 0
M  V30 21 C -2.085120 2.639206 3.062356 0
M  V30 22 C -0.773401 2.878258 3.388642 0
M  V30 23 C 0.231330 2.555844 2.471066 0
M  V30 24 C 0.607606 -1.243592 1.603464 0
M  V30 25 C -0.062309 -2.442162 1.798267 0
M  V30 26 C -1.806591 -5.257097 0.079878 0
M  V30 27 C -1.430822 -6.487702 0.917711 0
M  V30 28 C -0.328336 -5.601855 1.511702 0
M  V30 29 H -1.929054 -3.790772 3.082453 0
M  V30 30 H -2.962217 -3.531197 1.789981 0
M  V30 31 H -0.837615 -3.362328 -1.294835 0
M  V30 32 H 0.358205 -1.201135 -1.793501 0
M  V30 33 H 4.693267 4.739993 -1.702376 0
M  V30 34 H 1.150882 4.519756 0.704345 0
M  V30 35 H -1.559459 1.328497 -0.055029 0
M  V30 36 H -3.447873 1.868537 1.517380 0
M  V30 37 H -2.892020 2.880142 3.757698 0
M  V30 38 H -0.529053 3.312515 4.349817 0
M  V30 39 H 1.241644 2.779881 2.814550 0
M  V30 40 H 1.009597 -0.654387 2.408205 0
M  V30 41 H -0.135534 -2.718118 2.848116 0
M  V30 42 H -2.896193 -5.105023 -0.048366 0
M  V30 43 H -1.210641 -5.318966 -0.854404 0
M  V30 44 H -1.089627 -7.339625 0.328942 0
M  V30 45 H -2.231343 -6.687831 1.640564 0
M  V30 46 H 0.568674 -5.545093 0.883537 0
M  V30 47 H -0.168562 -5.780014 2.595125 0
M  V30 END ATOM
M  V30 BEGIN BOND
M  V30 1 1 1 2
M  V30 2 1 2 3
M  V30 3 2 3 4
M  V30 4 1 4 5
M  V30 5 2 5 6
M  V30 6 1 6 7
M  V30 7 1 7 8
M  V30 8 2 8 9
M  V30 9 1 9 10
M  V30 10 1 10 11
M  V30 11 2 10 12
M  V30 12 1 12 13
M  V30 13 1 13 14
M  V30 14 2 13 15
M  V30 15 1 15 16
M  V30 16 1 16 17
M  V30 17 1 17 18
M  V30 18 2 18 19
M  V30 19 1 19 20
M  V30 20 2 20 21
M  V30 21 1 21 22
M  V30 22 2 22 23
M  V30 23 1 6 24
M  V30 24 2 24 25
M  V30 25 1 2 26
M  V30 26 1 26 27
M  V30 27 1 27 28
M  V30 28 1 28 2
M  V30 29 1 25 3
M  V30 30 2 17 7
M  V30 31 1 23 18
M  V30 32 1 16 9
M  V30 33 1 1 29
M  V30 34 1 1 30
M  V30 35 1 4 31
M  V30 36 1 5 32
M  V30 37 1 12 33
M  V30 38 1 15 34
M  V30 39 1 19 35
M  V30 40 1 20 36
M  V30 41 1 21 37
M  V30 42 1 22 38
M  V30 43 1 23 39
M  V30 44 1 24 40
M  V30 45 1 25 41
M  V30 46 1 26 42
M  V30 47 1 26 43
M  V30 48 1 27 44
M  V30 49 1 27 45
M  V30 50 1 28 46
M  V30 51 1 28 47
M  V30 END BOND
M  V30 END CTAB
M  END
>  <Dataset>  (840) 
ChEMBL_Kinases

>  <Ligand_Instance>  (840) 
nan

>  <PDB_ID>  (840) 
nan

>  <Standardized_SMILES>  (840) 
NC1(c2ccc(-c3nc4c(Cl)cc(Cl)cn4c3-c3ccccc3)cc2)CCC1

>  <Name>  (840) 
nan

>  <Pocket>  (840) 
nan

>  <ATP_Site>  (840) 
nan

>  <Peripheral>  (840) 
nan

>  <Num_H_Atoms_ProtBoundConf>  (840) 
nan

>  <Num_Resolved_Atoms>  (840) 
nan

>  <Num_Not_Resolved_Atoms>  (840) 
nan

$$$$
CHEMBL230699
     RDKit          3D

  0  0  0  0  0  0  0  0  0  0999 V3000
M  V30 BEGIN CTAB
M  V30 COUNTS 46 48 0 0 0
M  V30 BEGIN ATOM
M  V30 1 C 4.103328 -3.655924 -0.960763 0
M  V30 2 S 2.887661 -3.898366 -2.206591 0
M  V30 3 O 1.601769 -4.430748 -1.593972 0
M  V30 4 O 3.375973 -4.993506 -3.111783 0
M  V30 5 N 2.596059 -2.499061 -3.162088 0
M  V30 6 C 2.102078 -1.380333 -2.416503 0
M  V30 7 C 2.753235 -0.196960 -2.767896 0
M  V30 8 C 2.423721 0.995531 -2.164446 0
M  V30 9 C 1.435908 1.026168 -1.197503 0
M  V30 10 C 0.801152 -0.152299 -0.860814 0
M  V30 11 C -0.249120 -0.165156 0.157683 0
M  V30 12 C 0.068412 0.554578 1.279251 0
M  V30 13 C -0.829444 0.630327 2.324001 0
M  V30 14 C -0.614486 1.363216 3.572702 0
M  V30 15 C 0.132955 2.521421 3.647728 0
M  V30 16 C 0.314338 3.191127 4.857836 0
M  V30 17 C -0.266235 2.680852 5.993733 0
M  V30 18 C -1.020191 1.525468 5.957816 0
M  V30 19 C -1.180245 0.887565 4.745923 0
M  V30 20 C -2.030277 -0.035191 2.189670 0
M  V30 21 C -2.388059 -0.769992 1.078034 0
M  V30 22 C -3.659896 -1.470799 0.942374 0
M  V30 23 N -4.558533 -1.360230 2.062175 0
M  V30 24 O -3.824495 -2.096153 -0.148079 0
M  V30 25 C -1.459839 -0.819953 0.054653 0
M  V30 26 N -1.710179 -1.539385 -1.133575 0
M  V30 27 C 1.117494 -1.357527 -1.454560 0
M  V30 28 H 4.702485 -4.577902 -0.762367 0
M  V30 29 H 4.843834 -2.877353 -1.217491 0
M  V30 30 H 3.595490 -3.439399 0.008697 0
M  V30 31 H 2.752747 -2.432800 -4.193625 0
M  V30 32 H 3.548926 -0.119891 -3.522483 0
M  V30 33 H 2.859384 1.964277 -2.357439 0
M  V30 34 H 1.100440 1.911384 -0.661285 0
M  V30 35 H 0.996594 1.098001 1.441138 0
M  V30 36 H 0.579328 2.894116 2.714099 0
M  V30 37 H 0.921872 4.104736 4.833146 0
M  V30 38 H -0.110848 3.219615 6.923267 0
M  V30 39 H -1.473451 1.140414 6.885397 0
M  V30 40 H -1.784806 -0.013022 4.796368 0
M  V30 41 H -2.772307 -0.004699 2.989020 0
M  V30 42 H -4.774718 -2.387914 2.229198 0
M  V30 43 H -5.067882 -2.074897 2.621414 0
M  V30 44 H -1.869509 -1.104399 -2.088868 0
M  V30 45 H -1.762260 -2.591889 -1.179738 0
M  V30 46 H 0.679893 -2.309521 -1.255551 0
M  V30 END ATOM
M  V30 BEGIN BOND
M  V30 1 1 1 2
M  V30 2 2 2 3
M  V30 3 2 2 4
M  V30 4 1 2 5
M  V30 5 1 5 6
M  V30 6 2 6 7
M  V30 7 1 7 8
M  V30 8 2 8 9
M  V30 9 1 9 10
M  V30 10 1 10 11
M  V30 11 2 11 12
M  V30 12 1 12 13
M  V30 13 1 13 14
M  V30 14 2 14 15
M  V30 15 1 15 16
M  V30 16 2 16 17
M  V30 17 1 17 18
M  V30 18 2 18 19
M  V30 19 2 13 20
M  V30 20 1 20 21
M  V30 21 1 21 22
M  V30 22 1 22 23
M  V30 23 2 22 24
M  V30 24 2 21 25
M  V30 25 1 25 26
M  V30 26 2 10 27
M  V30 27 1 27 6
M  V30 28 1 25 11
M  V30 29 1 19 14
M  V30 30 1 1 28
M  V30 31 1 1 29
M  V30 32 1 1 30
M  V30 33 1 5 31
M  V30 34 1 7 32
M  V30 35 1 8 33
M  V30 36 1 9 34
M  V30 37 1 12 35
M  V30 38 1 15 36
M  V30 39 1 16 37
M  V30 40 1 17 38
M  V30 41 1 18 39
M  V30 42 1 19 40
M  V30 43 1 20 41
M  V30 44 1 23 42
M  V30 45 1 23 43
M  V30 46 1 26 44
M  V30 47 1 26 45
M  V30 48 1 27 46
M  V30 END BOND
M  V30 END CTAB
M  END
>  <Dataset>  (841) 
ChEMBL_Kinases

>  <Ligand_Instance>  (841) 
nan

>  <PDB_ID>  (841) 
nan

>  <Standardized_SMILES>  (841) 
CS(=O)(=O)Nc1cccc(-c2cc(-c3ccccc3)cc(C(N)=O)c2N)c1

>  <Name>  (841) 
nan

>  <Pocket>  (841) 
nan

>  <ATP_Site>  (841) 
nan

>  <Peripheral>  (841) 
nan

>  <Num_H_Atoms_ProtBoundConf>  (841) 
nan

>  <Num_Resolved_Atoms>  (841) 
nan

>  <Num_Not_Resolved_Atoms>  (841) 
nan

$$$$
CHEMBL220658
     RDKit          3D

  0  0  0  0  0  0  0  0  0  0999 V3000
M  V30 BEGIN CTAB
M  V30 COUNTS 46 48 0 0 0
M  V30 BEGIN ATOM
M  V30 1 C -3.612687 -5.543836 1.487514 0
M  V30 2 S -3.863336 -5.311851 -0.255150 0
M  V30 3 O -5.353025 -5.278189 -0.522082 0
M  V30 4 O -3.337590 -6.553339 -0.926808 0
M  V30 5 C -3.056579 -3.882041 -0.860438 0
M  V30 6 C -1.759921 -3.942867 -1.329859 0
M  V30 7 C -1.149890 -2.814978 -1.798185 0
M  V30 8 C -1.787642 -1.572002 -1.826796 0
M  V30 9 C -0.941027 -0.482603 -2.378913 0
M  V30 10 N -0.202937 0.083900 -1.264028 0
M  V30 11 C -0.713578 0.968918 -0.280239 0
M  V30 12 O -1.897897 1.350968 -0.295811 0
M  V30 13 C 0.159584 1.452661 0.782766 0
M  V30 14 C -0.294769 2.314305 1.753720 0
M  V30 15 C 0.524346 2.777924 2.759973 0
M  V30 16 N 0.057468 3.668164 3.765788 0
M  V30 17 C 1.828190 2.324140 2.733047 0
M  V30 18 C 2.698737 2.804672 3.749480 0
M  V30 19 N 3.392287 3.210341 4.567562 0
M  V30 20 C 2.302695 1.463035 1.773479 0
M  V30 21 N 3.623239 0.948320 1.707603 0
M  V30 22 C 4.814467 1.063382 2.514368 0
M  V30 23 C 6.113801 0.463775 2.107607 0
M  V30 24 C 5.885279 1.950972 2.005091 0
M  V30 25 N 1.437751 1.061784 0.830842 0
M  V30 26 C -3.076311 -1.528909 -1.356664 0
M  V30 27 C -3.692142 -2.659305 -0.885680 0
M  V30 28 H -4.105859 -6.501466 1.741871 0
M  V30 29 H -4.048838 -4.690602 2.060650 0
M  V30 30 H -2.536673 -5.649803 1.715115 0
M  V30 31 H -1.261288 -4.920495 -1.306069 0
M  V30 32 H -0.134695 -2.968499 -2.143113 0
M  V30 33 H -0.288248 -0.851618 -3.167642 0
M  V30 34 H -1.640189 0.300329 -2.766084 0
M  V30 35 H 0.806827 -0.190565 -1.181367 0
M  V30 36 H -1.319639 2.654982 1.753126 0
M  V30 37 H 0.457272 4.650470 3.759456 0
M  V30 38 H -0.623065 3.613546 4.569125 0
M  V30 39 H 3.855931 0.325534 0.899380 0
M  V30 40 H 4.572895 0.973487 3.604645 0
M  V30 41 H 6.208665 -0.130129 1.190245 0
M  V30 42 H 6.786108 0.155567 2.917688 0
M  V30 43 H 6.483626 2.620105 2.648226 0
M  V30 44 H 5.813766 2.327255 0.965321 0
M  V30 45 H -3.521299 -0.552967 -1.402128 0
M  V30 46 H -4.715515 -2.548943 -0.528731 0
M  V30 END ATOM
M  V30 BEGIN BOND
M  V30 1 1 1 2
M  V30 2 2 2 3
M  V30 3 2 2 4
M  V30 4 1 2 5
M  V30 5 2 5 6
M  V30 6 1 6 7
M  V30 7 2 7 8
M  V30 8 1 8 9
M  V30 9 1 9 10
M  V30 10 1 10 11
M  V30 11 2 11 12
M  V30 12 1 11 13
M  V30 13 2 13 14
M  V30 14 1 14 15
M  V30 15 1 15 16
M  V30 16 2 15 17
M  V30 17 1 17 18
M  V30 18 3 18 19
M  V30 19 1 17 20
M  V30 20 1 20 21
M  V30 21 1 21 22
M  V30 22 1 22 23
M  V30 23 1 23 24
M  V30 24 2 20 25
M  V30 25 1 8 26
M  V30 26 2 26 27
M  V30 27 1 27 5
M  V30 28 1 25 13
M  V30 29 1 24 22
M  V30 30 1 1 28
M  V30 31 1 1 29
M  V30 32 1 1 30
M  V30 33 1 6 31
M  V30 34 1 7 32
M  V30 35 1 9 33
M  V30 36 1 9 34
M  V30 37 1 10 35
M  V30 38 1 14 36
M  V30 39 1 16 37
M  V30 40 1 16 38
M  V30 41 1 21 39
M  V30 42 1 22 40
M  V30 43 1 23 41
M  V30 44 1 23 42
M  V30 45 1 24 43
M  V30 46 1 24 44
M  V30 47 1 26 45
M  V30 48 1 27 46
M  V30 END BOND
M  V30 END CTAB
M  END
>  <Dataset>  (842) 
ChEMBL_Kinases

>  <Ligand_Instance>  (842) 
nan

>  <PDB_ID>  (842) 
nan

>  <Standardized_SMILES>  (842) 
CS(=O)(=O)c1ccc(CNC(=O)c2cc(N)c(C#N)c(NC3CC3)n2)cc1

>  <Name>  (842) 
nan

>  <Pocket>  (842) 
nan

>  <ATP_Site>  (842) 
nan

>  <Peripheral>  (842) 
nan

>  <Num_H_Atoms_ProtBoundConf>  (842) 
nan

>  <Num_Resolved_Atoms>  (842) 
nan

>  <Num_Not_Resolved_Atoms>  (842) 
nan

$$$$
CHEMBL3699753
     RDKit          3D

  0  0  0  0  0  0  0  0  0  0999 V3000
M  V30 BEGIN CTAB
M  V30 COUNTS 56 60 0 0 0
M  V30 BEGIN ATOM
M  V30 1 C 5.932800 -5.920335 0.051262 0
M  V30 2 C 5.862686 -5.113302 -1.237725 0
M  V30 3 O 4.822759 -4.172688 -1.124858 0
M  V30 4 C 4.526316 -3.293656 -2.157975 0
M  V30 5 O 5.280205 -3.452446 -3.149777 0
M  V30 6 C 3.465891 -2.292999 -2.117054 0
M  V30 7 C 3.323703 -1.510144 -3.245200 0
M  V30 8 C 2.306786 -0.551661 -3.208614 0
M  V30 9 Br 2.031146 0.576407 -4.714899 0
M  V30 10 C 1.535863 -0.469437 -2.055700 0
M  V30 11 N 0.509204 0.352474 -1.766457 0
M  V30 12 C 0.053403 0.074335 -0.514987 0
M  V30 13 C -1.055434 0.767293 0.139036 0
M  V30 14 C -2.250529 0.497150 -0.541638 0
M  V30 15 C -3.461924 1.033516 -0.131710 0
M  V30 16 C -3.486340 1.854301 0.976135 0
M  V30 17 C -4.655221 2.516113 1.569416 0
M  V30 18 N -4.821257 2.264068 3.008597 0
M  V30 19 C -5.985668 2.285597 0.906474 0
M  V30 20 C -6.343739 3.716735 1.330616 0
M  V30 21 C -4.835183 3.982361 1.293271 0
M  V30 22 C -2.309832 2.118454 1.643753 0
M  V30 23 C -1.098845 1.590578 1.245112 0
M  V30 24 C 0.827797 -0.956334 -0.015797 0
M  V30 25 C 0.726262 -1.603232 1.284756 0
M  V30 26 C 0.363163 -2.929942 1.179476 0
M  V30 27 C 0.218172 -3.713954 2.312336 0
M  V30 28 C 0.439491 -3.163359 3.568889 0
M  V30 29 C 0.807206 -1.821028 3.679826 0
M  V30 30 C 0.940194 -1.079058 2.533475 0
M  V30 31 N 1.736336 -1.275628 -0.984709 0
M  V30 32 C 2.704270 -2.218192 -0.966419 0
M  V30 33 H 5.137150 -6.676541 0.125434 0
M  V30 34 H 6.916896 -6.458142 0.119595 0
M  V30 35 H 5.823080 -5.267850 0.952386 0
M  V30 36 H 6.867551 -4.656947 -1.378625 0
M  V30 37 H 5.715638 -5.830228 -2.067664 0
M  V30 38 H 3.957366 -1.635699 -4.092673 0
M  V30 39 H -2.380497 -0.131556 -1.429438 0
M  V30 40 H -4.400835 0.867692 -0.603358 0
M  V30 41 H -3.954874 2.472663 3.543102 0
M  V30 42 H -5.193214 1.305151 3.181446 0
M  V30 43 H -6.008317 2.261094 -0.193868 0
M  V30 44 H -6.657234 1.593836 1.450269 0
M  V30 45 H -6.886232 4.294625 0.573468 0
M  V30 46 H -6.698778 3.804712 2.373300 0
M  V30 47 H -4.504236 4.642374 2.107566 0
M  V30 48 H -4.457652 4.248328 0.280478 0
M  V30 49 H -2.205917 2.755637 2.535647 0
M  V30 50 H -0.118284 1.718046 1.671635 0
M  V30 51 H 0.146405 -3.544076 0.295389 0
M  V30 52 H -0.059089 -4.757102 2.371642 0
M  V30 53 H 0.355917 -3.679512 4.516238 0
M  V30 54 H 1.002937 -1.291569 4.593102 0
M  V30 55 H 1.219407 -0.052513 2.542081 0
M  V30 56 H 2.896632 -2.880277 -0.133217 0
M  V30 END ATOM
M  V30 BEGIN BOND
M  V30 1 1 1 2
M  V30 2 1 2 3
M  V30 3 1 3 4
M  V30 4 2 4 5
M  V30 5 1 4 6
M  V30 6 1 6 7
M  V30 7 2 7 8
M  V30 8 1 8 9
M  V30 9 1 8 10
M  V30 10 2 10 11
M  V30 11 1 11 12
M  V30 12 1 12 13
M  V30 13 2 13 14
M  V30 14 1 14 15
M  V30 15 2 15 16
M  V30 16 1 16 17
M  V30 17 1 17 18
M  V30 18 1 17 19
M  V30 19 1 19 20
M  V30 20 1 20 21
M  V30 21 1 16 22
M  V30 22 2 22 23
M  V30 23 2 12 24
M  V30 24 1 24 25
M  V30 25 2 25 26
M  V30 26 1 26 27
M  V30 27 2 27 28
M  V30 28 1 28 29
M  V30 29 2 29 30
M  V30 30 1 24 31
M  V30 31 1 31 32
M  V30 32 2 32 6
M  V30 33 1 31 10
M  V30 34 1 23 13
M  V30 35 1 30 25
M  V30 36 1 21 17
M  V30 37 1 1 33
M  V30 38 1 1 34
M  V30 39 1 1 35
M  V30 40 1 2 36
M  V30 41 1 2 37
M  V30 42 1 7 38
M  V30 43 1 14 39
M  V30 44 1 15 40
M  V30 45 1 18 41
M  V30 46 1 18 42
M  V30 47 1 19 43
M  V30 48 1 19 44
M  V30 49 1 20 45
M  V30 50 1 20 46
M  V30 51 1 21 47
M  V30 52 1 21 48
M  V30 53 1 22 49
M  V30 54 1 23 50
M  V30 55 1 26 51
M  V30 56 1 27 52
M  V30 57 1 28 53
M  V30 58 1 29 54
M  V30 59 1 30 55
M  V30 60 1 32 56
M  V30 END BOND
M  V30 END CTAB
M  END
>  <Dataset>  (843) 
ChEMBL_Kinases

>  <Ligand_Instance>  (843) 
nan

>  <PDB_ID>  (843) 
nan

>  <Standardized_SMILES>  (843) 
CCOC(=O)c1cc(Br)c2nc(-c3ccc(C4(N)CCC4)cc3)c(-c3ccccc3)n2c1

>  <Name>  (843) 
nan

>  <Pocket>  (843) 
nan

>  <ATP_Site>  (843) 
nan

>  <Peripheral>  (843) 
nan

>  <Num_H_Atoms_ProtBoundConf>  (843) 
nan

>  <Num_Resolved_Atoms>  (843) 
nan

>  <Num_Not_Resolved_Atoms>  (843) 
nan

$$$$
CHEMBL3699762
     RDKit          3D

  0  0  0  0  0  0  0  0  0  0999 V3000
M  V30 BEGIN CTAB
M  V30 COUNTS 60 65 0 0 0
M  V30 BEGIN ATOM
M  V30 1 C 3.890481 -1.974155 4.885094 0
M  V30 2 C 3.072966 -1.390129 3.820056 0
M  V30 3 C 3.230446 -0.101326 3.435969 0
M  V30 4 C 4.156903 0.845944 3.982177 0
M  V30 5 C 5.110947 0.920537 4.952758 0
M  V30 6 C 5.746030 2.129023 5.080509 0
M  V30 7 N 5.143368 2.855427 4.121553 0
M  V30 8 N 4.243549 2.121108 3.503164 0
M  V30 9 C 2.384300 0.285528 2.417485 0
M  V30 10 N 1.484673 -0.524437 1.849745 0
M  V30 11 C 0.598701 -0.309881 0.863822 0
M  V30 12 C 0.370530 0.933341 0.108676 0
M  V30 13 C 1.349428 1.535927 -0.666693 0
M  V30 14 C 1.072415 2.708768 -1.355766 0
M  V30 15 C -0.186441 3.294147 -1.278665 0
M  V30 16 C -1.187442 2.725442 -0.517993 0
M  V30 17 C -0.853722 1.562855 0.142921 0
M  V30 18 C -0.112937 -1.436899 0.619888 0
M  V30 19 C -1.176824 -1.725453 -0.333478 0
M  V30 20 C -2.444008 -2.115781 0.049501 0
M  V30 21 C -3.405147 -2.372819 -0.936589 0
M  V30 22 C -3.112100 -2.244160 -2.281648 0
M  V30 23 C -4.308613 -2.578195 -3.092900 0
M  V30 24 N -5.024371 -3.757897 -2.640007 0
M  V30 25 C -5.232275 -1.406751 -3.400584 0
M  V30 26 C -5.493892 -2.115565 -4.737902 0
M  V30 27 C -4.066054 -2.662405 -4.580698 0
M  V30 28 C -1.842690 -1.853556 -2.652845 0
M  V30 29 C -0.899705 -1.601547 -1.678978 0
M  V30 30 N 0.377648 -2.342242 1.497561 0
M  V30 31 C 1.337534 -1.796659 2.237623 0
M  V30 32 C 2.161464 -2.223343 3.250295 0
M  V30 33 C 2.008446 -3.631145 3.691025 0
M  V30 34 H 3.652452 -3.057355 5.059120 0
M  V30 35 H 3.698940 -1.434326 5.830810 0
M  V30 36 H 4.961237 -1.926317 4.651961 0
M  V30 37 H 5.359232 0.096381 5.585168 0
M  V30 38 H 6.523284 2.388511 5.782193 0
M  V30 39 H 3.740821 2.656334 2.734599 0
M  V30 40 H 2.410239 1.310528 2.011423 0
M  V30 41 H 2.319566 1.061944 -0.710753 0
M  V30 42 H 1.883483 3.144971 -1.955231 0
M  V30 43 H -0.372300 4.222421 -1.836646 0
M  V30 44 H -2.172853 3.157648 -0.440117 0
M  V30 45 H -1.655681 1.123000 0.741978 0
M  V30 46 H -2.611944 -2.198492 1.114331 0
M  V30 47 H -4.351306 -2.669690 -0.470407 0
M  V30 48 H -4.353792 -4.524757 -2.429516 0
M  V30 49 H -5.685336 -3.539510 -1.867364 0
M  V30 50 H -6.103452 -1.311902 -2.751069 0
M  V30 51 H -4.655650 -0.498625 -3.616451 0
M  V30 52 H -6.233481 -2.932797 -4.649220 0
M  V30 53 H -5.624807 -1.443515 -5.593401 0
M  V30 54 H -3.945808 -3.680550 -5.000685 0
M  V30 55 H -3.348951 -1.914492 -4.937697 0
M  V30 56 H -1.734299 -1.788830 -3.719495 0
M  V30 57 H 0.070304 -1.299202 -2.090538 0
M  V30 58 H 1.161459 -4.133034 3.184308 0
M  V30 59 H 1.729472 -3.670498 4.785236 0
M  V30 60 H 2.902237 -4.236512 3.497260 0
M  V30 END ATOM
M  V30 BEGIN BOND
M  V30 1 1 1 2
M  V30 2 1 2 3
M  V30 3 1 3 4
M  V30 4 2 4 5
M  V30 5 1 5 6
M  V30 6 2 6 7
M  V30 7 1 7 8
M  V30 8 2 3 9
M  V30 9 1 9 10
M  V30 10 1 10 11
M  V30 11 1 11 12
M  V30 12 2 12 13
M  V30 13 1 13 14
M  V30 14 2 14 15
M  V30 15 1 15 16
M  V30 16 2 16 17
M  V30 17 2 11 18
M  V30 18 1 18 19
M  V30 19 2 19 20
M  V30 20 1 20 21
M  V30 21 2 21 22
M  V30 22 1 22 23
M  V30 23 1 23 24
M  V30 24 1 23 25
M  V30 25 1 25 26
M  V30 26 1 26 27
M  V30 27 1 22 28
M  V30 28 2 28 29
M  V30 29 1 18 30
M  V30 30 2 30 31
M  V30 31 1 31 32
M  V30 32 1 32 33
M  V30 33 2 32 2
M  V30 34 1 8 4
M  V30 35 1 31 10
M  V30 36 1 17 12
M  V30 37 1 29 19
M  V30 38 1 27 23
M  V30 39 1 1 34
M  V30 40 1 1 35
M  V30 41 1 1 36
M  V30 42 1 5 37
M  V30 43 1 6 38
M  V30 44 1 8 39
M  V30 45 1 9 40
M  V30 46 1 13 41
M  V30 47 1 14 42
M  V30 48 1 15 43
M  V30 49 1 16 44
M  V30 50 1 17 45
M  V30 51 1 20 46
M  V30 52 1 21 47
M  V30 53 1 24 48
M  V30 54 1 24 49
M  V30 55 1 25 50
M  V30 56 1 25 51
M  V30 57 1 26 52
M  V30 58 1 26 53
M  V30 59 1 27 54
M  V30 60 1 27 55
M  V30 61 1 28 56
M  V30 62 1 29 57
M  V30 63 1 33 58
M  V30 64 1 33 59
M  V30 65 1 33 60
M  V30 END BOND
M  V30 END CTAB
M  END
>  <Dataset>  (844) 
ChEMBL_Kinases

>  <Ligand_Instance>  (844) 
nan

>  <PDB_ID>  (844) 
nan

>  <Standardized_SMILES>  (844) 
Cc1c(-c2ccn[nH]2)cn2c(-c3ccccc3)c(-c3ccc(C4(N)CCC4)cc3)nc2c1C

>  <Name>  (844) 
nan

>  <Pocket>  (844) 
nan

>  <ATP_Site>  (844) 
nan

>  <Peripheral>  (844) 
nan

>  <Num_H_Atoms_ProtBoundConf>  (844) 
nan

>  <Num_Resolved_Atoms>  (844) 
nan

>  <Num_Not_Resolved_Atoms>  (844) 
nan

$$$$
CHEMBL4535537
     RDKit          3D

  0  0  0  0  0  0  0  0  0  0999 V3000
M  V30 BEGIN CTAB
M  V30 COUNTS 41 44 0 0 0
M  V30 BEGIN ATOM
M  V30 1 O 5.217040 -0.964391 1.129146 0
M  V30 2 C 3.974573 -1.041207 0.960174 0
M  V30 3 N 3.461538 -1.695758 -0.192308 0
M  V30 4 C 1.975176 -1.658586 -0.297766 0
M  V30 5 C 1.468975 -3.037591 -0.401801 0
M  V30 6 C 0.292074 -3.289385 -1.256070 0
M  V30 7 C 0.194489 -2.377168 -2.451671 0
M  V30 8 C 0.441680 -0.946320 -2.126949 0
M  V30 9 C 1.734380 -0.737782 -1.445188 0
M  V30 10 N 1.669983 -1.002091 0.956730 0
M  V30 11 C 2.758406 -0.622739 1.652940 0
M  V30 12 C 2.746459 0.034734 2.865646 0
M  V30 13 Cl 4.196226 0.503976 3.722202 0
M  V30 14 C 1.539918 0.347870 3.449999 0
M  V30 15 C 0.372325 -0.021895 2.775108 0
M  V30 16 N -0.843892 0.310162 3.403522 0
M  V30 17 C -1.904428 1.143087 2.960627 0
M  V30 18 C -1.913698 1.819828 1.764033 0
M  V30 19 C -2.980218 2.616322 1.383807 0
M  V30 20 N -4.061296 2.767687 2.167342 0
M  V30 21 C -4.044288 2.096112 3.347474 0
M  V30 22 C -3.010972 1.304392 3.751415 0
M  V30 23 F -3.053151 0.660622 4.939710 0
M  V30 24 C 0.515798 -0.671477 1.575579 0
M  V30 25 O -0.618621 -0.947082 1.080316 0
M  V30 26 H 3.964557 -2.200713 -0.980070 0
M  V30 27 H 2.308174 -3.696400 -0.775184 0
M  V30 28 H 1.280338 -3.413663 0.626889 0
M  V30 29 H -0.688409 -3.240471 -0.705807 0
M  V30 30 H 0.327036 -4.330555 -1.640506 0
M  V30 31 H -0.834981 -2.464655 -2.858756 0
M  V30 32 H 0.935346 -2.723469 -3.207833 0
M  V30 33 H -0.395340 -0.504877 -1.556783 0
M  V30 34 H 0.529834 -0.420078 -3.132593 0
M  V30 35 H 1.702677 0.310827 -1.010316 0
M  V30 36 H 2.598229 -0.758206 -2.159316 0
M  V30 37 H 1.508432 0.856402 4.387713 0
M  V30 38 H -0.904400 -0.159923 4.319763 0
M  V30 39 H -1.085999 1.743194 1.100442 0
M  V30 40 H -2.929584 3.128347 0.422079 0
M  V30 41 H -4.891554 2.186869 4.011344 0
M  V30 END ATOM
M  V30 BEGIN BOND
M  V30 1 2 1 2
M  V30 2 1 2 3
M  V30 3 1 3 4
M  V30 4 1 4 5
M  V30 5 1 5 6
M  V30 6 1 6 7
M  V30 7 1 7 8
M  V30 8 1 8 9
M  V30 9 1 4 10
M  V30 10 1 10 11
M  V30 11 2 11 12
M  V30 12 1 12 13
M  V30 13 1 12 14
M  V30 14 2 14 15
M  V30 15 1 15 16
M  V30 16 1 16 17
M  V30 17 2 17 18
M  V30 18 1 18 19
M  V30 19 2 19 20
M  V30 20 1 20 21
M  V30 21 2 21 22
M  V30 22 1 22 23
M  V30 23 1 15 24
M  V30 24 2 24 25
M  V30 25 1 11 2
M  V30 26 1 22 17
M  V30 27 1 9 4
M  V30 28 1 24 10
M  V30 29 1 3 26
M  V30 30 1 5 27
M  V30 31 1 5 28
M  V30 32 1 6 29
M  V30 33 1 6 30
M  V30 34 1 7 31
M  V30 35 1 7 32
M  V30 36 1 8 33
M  V30 37 1 8 34
M  V30 38 1 9 35
M  V30 39 1 9 36
M  V30 40 1 14 37
M  V30 41 1 16 38
M  V30 42 1 18 39
M  V30 43 1 19 40
M  V30 44 1 21 41
M  V30 END BOND
M  V30 END CTAB
M  END
>  <Dataset>  (845) 
ChEMBL_Kinases

>  <Ligand_Instance>  (845) 
nan

>  <PDB_ID>  (845) 
nan

>  <Standardized_SMILES>  (845) 
O=C1NC2(CCCCC2)n2c1c(Cl)cc(Nc1ccncc1F)c2=O

>  <Name>  (845) 
nan

>  <Pocket>  (845) 
nan

>  <ATP_Site>  (845) 
nan

>  <Peripheral>  (845) 
nan

>  <Num_H_Atoms_ProtBoundConf>  (845) 
nan

>  <Num_Resolved_Atoms>  (845) 
nan

>  <Num_Not_Resolved_Atoms>  (845) 
nan

$$$$
CHEMBL3699752
     RDKit          3D

  0  0  0  0  0  0  0  0  0  0999 V3000
M  V30 BEGIN CTAB
M  V30 COUNTS 50 54 0 0 0
M  V30 BEGIN ATOM
M  V30 1 C 2.858823 -4.531059 3.384954 0
M  V30 2 C 3.554967 -3.339708 2.806929 0
M  V30 3 C 4.917351 -3.129375 2.874942 0
M  V30 4 C 5.446070 -2.006577 2.311890 0
M  V30 5 Cl 7.176751 -1.726317 2.391426 0
M  V30 6 C 4.685877 -1.045184 1.663150 0
M  V30 7 N 3.351988 -1.267869 1.605930 0
M  V30 8 C 2.354135 -0.545862 1.060806 0
M  V30 9 C 2.419974 0.725294 0.349927 0
M  V30 10 C 2.039883 0.870114 -0.969903 0
M  V30 11 C 2.130298 2.105084 -1.585662 0
M  V30 12 C 2.596117 3.212570 -0.909169 0
M  V30 13 C 2.988788 3.101359 0.426640 0
M  V30 14 C 2.882943 1.844576 1.009084 0
M  V30 15 C 1.157446 -1.201397 1.268307 0
M  V30 16 C -0.228558 -0.907818 0.914381 0
M  V30 17 C -0.958070 0.190013 1.371905 0
M  V30 18 C -2.283377 0.341661 0.947601 0
M  V30 19 C -2.867841 -0.573912 0.091078 0
M  V30 20 C -4.264442 -0.268650 -0.254982 0
M  V30 21 N -5.111395 0.191446 0.834280 0
M  V30 22 C -4.455006 0.610316 -1.480724 0
M  V30 23 C -5.728281 -0.194208 -1.732255 0
M  V30 24 C -5.003124 -1.341791 -1.014250 0
M  V30 25 C -2.132972 -1.645314 -0.346305 0
M  V30 26 C -0.821337 -1.817760 0.058352 0
M  V30 27 N 1.448277 -2.338743 1.951717 0
M  V30 28 C 2.797193 -2.383791 2.161528 0
M  V30 29 H 2.277730 -4.192267 4.287782 0
M  V30 30 H 3.584184 -5.323561 3.659793 0
M  V30 31 H 2.106001 -4.959112 2.694899 0
M  V30 32 H 5.492628 -3.882956 3.380396 0
M  V30 33 H 5.050807 -0.149809 1.206166 0
M  V30 34 H 1.669331 -0.000835 -1.514539 0
M  V30 35 H 1.813162 2.131967 -2.617906 0
M  V30 36 H 2.654522 4.152649 -1.412762 0
M  V30 37 H 3.354036 3.947873 0.972218 0
M  V30 38 H 3.178484 1.733930 2.033093 0
M  V30 39 H -0.410752 0.831946 2.027234 0
M  V30 40 H -2.692668 1.249013 1.402639 0
M  V30 41 H -5.746713 -0.592896 1.172452 0
M  V30 42 H -4.554253 0.458271 1.685142 0
M  V30 43 H -4.612706 1.676186 -1.238214 0
M  V30 44 H -3.653162 0.396583 -2.208058 0
M  V30 45 H -6.596949 0.214507 -1.214043 0
M  V30 46 H -5.940168 -0.372323 -2.801037 0
M  V30 47 H -5.677486 -1.975489 -0.422113 0
M  V30 48 H -4.439608 -1.892858 -1.785836 0
M  V30 49 H -2.609015 -2.330546 -1.002685 0
M  V30 50 H -0.298365 -2.688810 -0.326933 0
M  V30 END ATOM
M  V30 BEGIN BOND
M  V30 1 1 1 2
M  V30 2 2 2 3
M  V30 3 1 3 4
M  V30 4 1 4 5
M  V30 5 2 4 6
M  V30 6 1 6 7
M  V30 7 1 7 8
M  V30 8 1 8 9
M  V30 9 2 9 10
M  V30 10 1 10 11
M  V30 11 2 11 12
M  V30 12 1 12 13
M  V30 13 2 13 14
M  V30 14 2 8 15
M  V30 15 1 15 16
M  V30 16 2 16 17
M  V30 17 1 17 18
M  V30 18 2 18 19
M  V30 19 1 19 20
M  V30 20 1 20 21
M  V30 21 1 20 22
M  V30 22 1 22 23
M  V30 23 1 23 24
M  V30 24 1 19 25
M  V30 25 2 25 26
M  V30 26 1 15 27
M  V30 27 2 27 28
M  V30 28 1 28 2
M  V30 29 1 28 7
M  V30 30 1 14 9
M  V30 31 1 26 16
M  V30 32 1 24 20
M  V30 33 1 1 29
M  V30 34 1 1 30
M  V30 35 1 1 31
M  V30 36 1 3 32
M  V30 37 1 6 33
M  V30 38 1 10 34
M  V30 39 1 11 35
M  V30 40 1 12 36
M  V30 41 1 13 37
M  V30 42 1 14 38
M  V30 43 1 17 39
M  V30 44 1 18 40
M  V30 45 1 21 41
M  V30 46 1 21 42
M  V30 47 1 22 43
M  V30 48 1 22 44
M  V30 49 1 23 45
M  V30 50 1 23 46
M  V30 51 1 24 47
M  V30 52 1 24 48
M  V30 53 1 25 49
M  V30 54 1 26 50
M  V30 END BOND
M  V30 END CTAB
M  END
>  <Dataset>  (846) 
ChEMBL_Kinases

>  <Ligand_Instance>  (846) 
nan

>  <PDB_ID>  (846) 
nan

>  <Standardized_SMILES>  (846) 
Cc1cc(Cl)cn2c(-c3ccccc3)c(-c3ccc(C4(N)CCC4)cc3)nc12

>  <Name>  (846) 
nan

>  <Pocket>  (846) 
nan

>  <ATP_Site>  (846) 
nan

>  <Peripheral>  (846) 
nan

>  <Num_H_Atoms_ProtBoundConf>  (846) 
nan

>  <Num_Resolved_Atoms>  (846) 
nan

>  <Num_Not_Resolved_Atoms>  (846) 
nan

$$$$
CHEMBL230912
     RDKit          3D

  0  0  0  0  0  0  0  0  0  0999 V3000
M  V30 BEGIN CTAB
M  V30 COUNTS 49 51 0 0 0
M  V30 BEGIN ATOM
M  V30 1 C 2.621850 -6.712149 -1.944017 0
M  V30 2 S 3.267056 -5.190136 -2.599527 0
M  V30 3 O 4.765540 -5.323880 -2.653296 0
M  V30 4 O 2.780375 -5.035330 -4.010504 0
M  V30 5 C 2.783112 -3.819796 -1.610911 0
M  V30 6 C 3.563010 -3.371781 -0.539054 0
M  V30 7 C 3.108542 -2.279833 0.195534 0
M  V30 8 C 1.925076 -1.633090 -0.098317 0
M  V30 9 C 1.441641 -0.488142 0.665720 0
M  V30 10 C 2.391836 0.350227 1.209015 0
M  V30 11 C 1.891158 1.421258 1.924393 0
M  V30 12 C 2.808819 2.368200 2.539232 0
M  V30 13 N 4.213973 2.198732 2.409471 0
M  V30 14 O 2.368499 3.349715 3.193982 0
M  V30 15 C 0.539796 1.634793 2.082571 0
M  V30 16 N 0.095950 2.753337 2.829176 0
M  V30 17 C -0.377902 0.753940 1.510701 0
M  V30 18 C -1.824899 0.950824 1.658127 0
M  V30 19 C -2.595717 -0.148953 1.979109 0
M  V30 20 C -3.965384 -0.095092 2.145011 0
M  V30 21 C -4.580989 1.147602 1.974108 0
M  V30 22 S -6.330800 1.215265 2.187787 0
M  V30 23 N -7.036742 0.903418 0.642734 0
M  V30 24 O -6.714592 2.590552 2.613479 0
M  V30 25 O -6.714614 0.162856 3.188823 0
M  V30 26 C -3.806695 2.243501 1.653462 0
M  V30 27 C -2.440967 2.157404 1.494550 0
M  V30 28 C 0.081449 -0.337255 0.782511 0
M  V30 29 C 1.167198 -2.098182 -1.169720 0
M  V30 30 C 1.598616 -3.178928 -1.911498 0
M  V30 31 H 3.359334 -7.120426 -1.247004 0
M  V30 32 H 2.411034 -7.440196 -2.743972 0
M  V30 33 H 1.689634 -6.478948 -1.350659 0
M  V30 34 H 4.498521 -3.880741 -0.304079 0
M  V30 35 H 3.690422 -1.915322 1.025758 0
M  V30 36 H 3.453163 0.192919 1.091627 0
M  V30 37 H 4.998731 2.101208 1.738948 0
M  V30 38 H 5.121081 2.091983 2.912717 0
M  V30 39 H -0.290162 2.626678 3.791934 0
M  V30 40 H 0.277826 3.542837 2.167508 0
M  V30 41 H -2.169989 -1.133452 2.122703 0
M  V30 42 H -4.549145 -0.981653 2.398807 0
M  V30 43 H -6.696629 1.648504 -0.006714 0
M  V30 44 H -6.584526 0.017295 0.278079 0
M  V30 45 H -4.349539 3.185766 1.533820 0
M  V30 46 H -1.874232 3.021090 1.247062 0
M  V30 47 H -0.647049 -0.987429 0.361104 0
M  V30 48 H 0.250427 -1.584640 -1.384959 0
M  V30 49 H 0.979803 -3.502001 -2.729736 0
M  V30 END ATOM
M  V30 BEGIN BOND
M  V30 1 1 1 2
M  V30 2 2 2 3
M  V30 3 2 2 4
M  V30 4 1 2 5
M  V30 5 2 5 6
M  V30 6 1 6 7
M  V30 7 2 7 8
M  V30 8 1 8 9
M  V30 9 2 9 10
M  V30 10 1 10 11
M  V30 11 1 11 12
M  V30 12 1 12 13
M  V30 13 2 12 14
M  V30 14 2 11 15
M  V30 15 1 15 16
M  V30 16 1 15 17
M  V30 17 1 17 18
M  V30 18 2 18 19
M  V30 19 1 19 20
M  V30 20 2 20 21
M  V30 21 1 21 22
M  V30 22 1 22 23
M  V30 23 2 22 24
M  V30 24 2 22 25
M  V30 25 1 21 26
M  V30 26 2 26 27
M  V30 27 2 17 28
M  V30 28 1 8 29
M  V30 29 2 29 30
M  V30 30 1 30 5
M  V30 31 1 28 9
M  V30 32 1 27 18
M  V30 33 1 1 31
M  V30 34 1 1 32
M  V30 35 1 1 33
M  V30 36 1 6 34
M  V30 37 1 7 35
M  V30 38 1 10 36
M  V30 39 1 13 37
M  V30 40 1 13 38
M  V30 41 1 16 39
M  V30 42 1 16 40
M  V30 43 1 19 41
M  V30 44 1 20 42
M  V30 45 1 23 43
M  V30 46 1 23 44
M  V30 47 1 26 45
M  V30 48 1 27 46
M  V30 49 1 28 47
M  V30 50 1 29 48
M  V30 51 1 30 49
M  V30 END BOND
M  V30 END CTAB
M  END
>  <Dataset>  (847) 
ChEMBL_Kinases

>  <Ligand_Instance>  (847) 
nan

>  <PDB_ID>  (847) 
nan

>  <Standardized_SMILES>  (847) 
CS(=O)(=O)c1ccc(-c2cc(C(N)=O)c(N)c(-c3ccc(S(N)(=O)=O)cc3)c2)cc1

>  <Name>  (847) 
nan

>  <Pocket>  (847) 
nan

>  <ATP_Site>  (847) 
nan

>  <Peripheral>  (847) 
nan

>  <Num_H_Atoms_ProtBoundConf>  (847) 
nan

>  <Num_Resolved_Atoms>  (847) 
nan

>  <Num_Not_Resolved_Atoms>  (847) 
nan

$$$$
CHEMBL230913
     RDKit          3D

  0  0  0  0  0  0  0  0  0  0999 V3000
M  V30 BEGIN CTAB
M  V30 COUNTS 59 62 0 0 0
M  V30 BEGIN ATOM
M  V30 1 C 6.543594 -2.523171 4.544346 0
M  V30 2 S 4.972330 -2.095083 5.229956 0
M  V30 3 O 4.255197 -3.366990 5.596584 0
M  V30 4 O 5.201270 -1.263015 6.453828 0
M  V30 5 C 4.072177 -1.200503 4.013506 0
M  V30 6 C 3.242168 -1.854317 3.096320 0
M  V30 7 C 2.560456 -1.111981 2.166079 0
M  V30 8 C 2.661293 0.262035 2.098431 0
M  V30 9 C 1.885510 0.941652 1.061479 0
M  V30 10 C 2.360238 2.117470 0.494546 0
M  V30 11 C 1.650599 2.780544 -0.485837 0
M  V30 12 C 2.152454 4.017397 -1.080682 0
M  V30 13 N 3.405801 4.532501 -0.621836 0
M  V30 14 O 1.460645 4.576168 -1.970766 0
M  V30 15 C 0.431082 2.290685 -0.940241 0
M  V30 16 N -0.359705 2.893525 -1.930022 0
M  V30 17 C -0.053758 1.124580 -0.387404 0
M  V30 18 C -1.306955 0.464042 -0.735882 0
M  V30 19 C -2.093457 0.019241 0.328819 0
M  V30 20 C -3.300003 -0.620503 0.132617 0
M  V30 21 C -3.784868 -0.849544 -1.149585 0
M  V30 22 S -5.307749 -1.660669 -1.308634 0
M  V30 23 O -6.147994 -1.335925 -0.105865 0
M  V30 24 O -6.047274 -1.183364 -2.530175 0
M  V30 25 N -5.143441 -3.369356 -1.389105 0
M  V30 26 C -4.385766 -3.836796 -2.505663 0
M  V30 27 C -3.810901 -5.155197 -2.048823 0
M  V30 28 C -4.202484 -5.326970 -0.612189 0
M  V30 29 C -4.594470 -3.929197 -0.179883 0
M  V30 30 C -3.002847 -0.407454 -2.197262 0
M  V30 31 C -1.795789 0.232724 -2.006482 0
M  V30 32 C 0.691698 0.487611 0.597407 0
M  V30 33 C 3.469179 0.936832 2.985923 0
M  V30 34 C 4.158675 0.186326 3.926736 0
M  V30 35 H 7.016676 -3.290582 5.205630 0
M  V30 36 H 6.393965 -2.868883 3.519273 0
M  V30 37 H 7.155187 -1.579998 4.566621 0
M  V30 38 H 3.183189 -2.943869 3.175169 0
M  V30 39 H 1.933242 -1.683522 1.483907 0
M  V30 40 H 3.301432 2.558890 0.797575 0
M  V30 41 H 4.360198 4.109085 -0.567994 0
M  V30 42 H 3.558151 5.509871 -0.234575 0
M  V30 43 H -1.185012 3.541792 -1.858595 0
M  V30 44 H -0.347811 2.866028 -2.979344 0
M  V30 45 H -1.788914 0.158083 1.359943 0
M  V30 46 H -3.885814 -0.953628 0.992741 0
M  V30 47 H -3.543761 -3.161524 -2.767937 0
M  V30 48 H -5.105554 -3.982583 -3.360473 0
M  V30 49 H -4.143946 -6.007237 -2.698514 0
M  V30 50 H -2.687121 -5.171976 -2.100112 0
M  V30 51 H -3.384804 -5.738724 0.023379 0
M  V30 52 H -5.056637 -6.022568 -0.539766 0
M  V30 53 H -5.380633 -4.020477 0.610521 0
M  V30 54 H -3.714923 -3.358201 0.189107 0
M  V30 55 H -3.367550 -0.578908 -3.179050 0
M  V30 56 H -1.178366 0.581427 -2.815179 0
M  V30 57 H 0.344398 -0.445945 1.067633 0
M  V30 58 H 3.551404 2.012701 2.936987 0
M  V30 59 H 4.804967 0.682513 4.642355 0
M  V30 END ATOM
M  V30 BEGIN BOND
M  V30 1 1 1 2
M  V30 2 2 2 3
M  V30 3 2 2 4
M  V30 4 1 2 5
M  V30 5 2 5 6
M  V30 6 1 6 7
M  V30 7 2 7 8
M  V30 8 1 8 9
M  V30 9 2 9 10
M  V30 10 1 10 11
M  V30 11 1 11 12
M  V30 12 1 12 13
M  V30 13 2 12 14
M  V30 14 2 11 15
M  V30 15 1 15 16
M  V30 16 1 15 17
M  V30 17 1 17 18
M  V30 18 2 18 19
M  V30 19 1 19 20
M  V30 20 2 20 21
M  V30 21 1 21 22
M  V30 22 2 22 23
M  V30 23 2 22 24
M  V30 24 1 22 25
M  V30 25 1 25 26
M  V30 26 1 26 27
M  V30 27 1 27 28
M  V30 28 1 28 29
M  V30 29 1 21 30
M  V30 30 2 30 31
M  V30 31 2 17 32
M  V30 32 1 8 33
M  V30 33 2 33 34
M  V30 34 1 34 5
M  V30 35 1 32 9
M  V30 36 1 31 18
M  V30 37 1 29 25
M  V30 38 1 1 35
M  V30 39 1 1 36
M  V30 40 1 1 37
M  V30 41 1 6 38
M  V30 42 1 7 39
M  V30 43 1 10 40
M  V30 44 1 13 41
M  V30 45 1 13 42
M  V30 46 1 16 43
M  V30 47 1 16 44
M  V30 48 1 19 45
M  V30 49 1 20 46
M  V30 50 1 26 47
M  V30 51 1 26 48
M  V30 52 1 27 49
M  V30 53 1 27 50
M  V30 54 1 28 51
M  V30 55 1 28 52
M  V30 56 1 29 53
M  V30 57 1 29 54
M  V30 58 1 30 55
M  V30 59 1 31 56
M  V30 60 1 32 57
M  V30 61 1 33 58
M  V30 62 1 34 59
M  V30 END BOND
M  V30 END CTAB
M  END
>  <Dataset>  (848) 
ChEMBL_Kinases

>  <Ligand_Instance>  (848) 
nan

>  <PDB_ID>  (848) 
nan

>  <Standardized_SMILES>  (848) 
CS(=O)(=O)c1ccc(-c2cc(C(N)=O)c(N)c(-c3ccc(S(=O)(=O)N4CCCC4)cc3)c2)cc1

>  <Name>  (848) 
nan

>  <Pocket>  (848) 
nan

>  <ATP_Site>  (848) 
nan

>  <Peripheral>  (848) 
nan

>  <Num_H_Atoms_ProtBoundConf>  (848) 
nan

>  <Num_Resolved_Atoms>  (848) 
nan

>  <Num_Not_Resolved_Atoms>  (848) 
nan

$$$$
CHEMBL3699751
     RDKit          3D

  0  0  0  0  0  0  0  0  0  0999 V3000
M  V30 BEGIN CTAB
M  V30 COUNTS 47 51 0 0 0
M  V30 BEGIN ATOM
M  V30 1 N -2.254613 -4.196097 2.261562 0
M  V30 2 C -1.217715 -4.368607 1.233254 0
M  V30 3 C -0.533873 -3.138818 0.830520 0
M  V30 4 C -0.437495 -2.656372 -0.469573 0
M  V30 5 C 0.217684 -1.490470 -0.816470 0
M  V30 6 C 0.820277 -0.749423 0.194635 0
M  V30 7 C 1.518700 0.487968 -0.142378 0
M  V30 8 N 2.575223 0.739556 -0.944277 0
M  V30 9 C 2.852490 2.067069 -0.929151 0
M  V30 10 C 3.783419 2.891638 -1.528537 0
M  V30 11 F 4.696532 2.306179 -2.365955 0
M  V30 12 C 3.805881 4.255734 -1.303184 0
M  V30 13 C 2.870705 4.841870 -0.448839 0
M  V30 14 F 2.870025 6.174654 -0.211006 0
M  V30 15 C 1.937410 3.987210 0.147073 0
M  V30 16 N 1.951317 2.667728 -0.099518 0
M  V30 17 C 1.118528 1.715868 0.397940 0
M  V30 18 C -0.002410 1.937764 1.335743 0
M  V30 19 C -1.302855 1.666585 0.961405 0
M  V30 20 C -2.346791 1.873306 1.838653 0
M  V30 21 C -2.072375 2.361466 3.113663 0
M  V30 22 C -0.780461 2.635192 3.497737 0
M  V30 23 C 0.253944 2.427378 2.620133 0
M  V30 24 C 0.756714 -1.184848 1.524184 0
M  V30 25 C 0.079968 -2.366646 1.792394 0
M  V30 26 C -1.841399 -5.141367 0.095384 0
M  V30 27 C -1.523367 -6.391281 0.929164 0
M  V30 28 C -0.349007 -5.580162 1.492539 0
M  V30 29 H -1.975711 -3.545252 3.002768 0
M  V30 30 H -3.067652 -3.732459 1.758775 0
M  V30 31 H -0.908598 -3.239337 -1.247825 0
M  V30 32 H 0.257806 -1.167471 -1.849526 0
M  V30 33 H 4.538793 4.896502 -1.776685 0
M  V30 34 H 1.210413 4.440457 0.810666 0
M  V30 35 H -1.499950 1.287383 -0.034595 0
M  V30 36 H -3.382782 1.673613 1.586281 0
M  V30 37 H -2.826934 2.558984 3.880252 0
M  V30 38 H -0.538691 3.016916 4.488119 0
M  V30 39 H 1.299200 2.636970 2.896812 0
M  V30 40 H 1.236396 -0.577306 2.262765 0
M  V30 41 H 0.082333 -2.627764 2.855950 0
M  V30 42 H -2.900881 -4.936895 -0.064670 0
M  V30 43 H -1.201380 -5.220462 -0.829884 0
M  V30 44 H -1.217855 -7.261241 0.337810 0
M  V30 45 H -2.333955 -6.536505 1.670180 0
M  V30 46 H 0.511449 -5.578420 0.811161 0
M  V30 47 H -0.138369 -5.805058 2.556148 0
M  V30 END ATOM
M  V30 BEGIN BOND
M  V30 1 1 1 2
M  V30 2 1 2 3
M  V30 3 2 3 4
M  V30 4 1 4 5
M  V30 5 2 5 6
M  V30 6 1 6 7
M  V30 7 1 7 8
M  V30 8 2 8 9
M  V30 9 1 9 10
M  V30 10 1 10 11
M  V30 11 2 10 12
M  V30 12 1 12 13
M  V30 13 1 13 14
M  V30 14 2 13 15
M  V30 15 1 15 16
M  V30 16 1 16 17
M  V30 17 1 17 18
M  V30 18 2 18 19
M  V30 19 1 19 20
M  V30 20 2 20 21
M  V30 21 1 21 22
M  V30 22 2 22 23
M  V30 23 1 6 24
M  V30 24 2 24 25
M  V30 25 1 2 26
M  V30 26 1 26 27
M  V30 27 1 27 28
M  V30 28 1 28 2
M  V30 29 1 25 3
M  V30 30 2 17 7
M  V30 31 1 23 18
M  V30 32 1 16 9
M  V30 33 1 1 29
M  V30 34 1 1 30
M  V30 35 1 4 31
M  V30 36 1 5 32
M  V30 37 1 12 33
M  V30 38 1 15 34
M  V30 39 1 19 35
M  V30 40 1 20 36
M  V30 41 1 21 37
M  V30 42 1 22 38
M  V30 43 1 23 39
M  V30 44 1 24 40
M  V30 45 1 25 41
M  V30 46 1 26 42
M  V30 47 1 26 43
M  V30 48 1 27 44
M  V30 49 1 27 45
M  V30 50 1 28 46
M  V30 51 1 28 47
M  V30 END BOND
M  V30 END CTAB
M  END
>  <Dataset>  (849) 
ChEMBL_Kinases

>  <Ligand_Instance>  (849) 
nan

>  <PDB_ID>  (849) 
nan

>  <Standardized_SMILES>  (849) 
NC1(c2ccc(-c3nc4c(F)cc(F)cn4c3-c3ccccc3)cc2)CCC1

>  <Name>  (849) 
nan

>  <Pocket>  (849) 
nan

>  <ATP_Site>  (849) 
nan

>  <Peripheral>  (849) 
nan

>  <Num_H_Atoms_ProtBoundConf>  (849) 
nan

>  <Num_Resolved_Atoms>  (849) 
nan

>  <Num_Not_Resolved_Atoms>  (849) 
nan

$$$$
CHEMBL231036
     RDKit          3D

  0  0  0  0  0  0  0  0  0  0999 V3000
M  V30 BEGIN CTAB
M  V30 COUNTS 34 37 0 0 0
M  V30 BEGIN ATOM
M  V30 1 C 0.172277 -0.992830 5.371412 0
M  V30 2 N -0.856736 -0.512163 4.500023 0
M  V30 3 C -0.672715 -0.464748 3.092029 0
M  V30 4 N 0.486838 -0.876560 2.551592 0
M  V30 5 C 0.661607 -0.832211 1.222310 0
M  V30 6 C 1.894185 -1.280389 0.770005 0
M  V30 7 C 2.069581 -1.232281 -0.606406 0
M  V30 8 C 3.291669 -1.674034 -1.085524 0
M  V30 9 C 3.604809 -1.683159 -2.428749 0
M  V30 10 C 2.643145 -1.228508 -3.306981 0
M  V30 11 C 1.414699 -0.780792 -2.868339 0
M  V30 12 C 1.104058 -0.774506 -1.503401 0
M  V30 13 C -0.112621 -0.338749 -0.979050 0
M  V30 14 C -0.317061 -0.373590 0.376338 0
M  V30 15 C -1.500096 0.051409 0.870931 0
M  V30 16 C -1.640360 -0.009597 2.235705 0
M  V30 17 N -2.872726 0.453345 2.513888 0
M  V30 18 C -3.438410 0.778364 1.322348 0
M  V30 19 N -2.590588 0.532653 0.277688 0
M  V30 20 C -2.962329 0.796070 -1.089012 0
M  V30 21 H 0.772604 -1.825092 4.939050 0
M  V30 22 H -0.321320 -1.444927 6.275948 0
M  V30 23 H 0.853493 -0.178237 5.671589 0
M  V30 24 H -1.759584 -0.190632 4.910376 0
M  V30 25 H 2.644637 -1.633570 1.436411 0
M  V30 26 H 4.051893 -2.032301 -0.404732 0
M  V30 27 H 4.566642 -2.033760 -2.771570 0
M  V30 28 H 2.814180 -1.204507 -4.380571 0
M  V30 29 H 0.652242 -0.422044 -3.544468 0
M  V30 30 H -0.756196 -0.018102 -1.759286 0
M  V30 31 H -4.457912 1.183506 1.292672 0
M  V30 32 H -3.043558 -0.107565 -1.730098 0
M  V30 33 H -2.378002 1.586273 -1.589510 0
M  V30 34 H -4.019952 1.219752 -1.124374 0
M  V30 END ATOM
M  V30 BEGIN BOND
M  V30 1 1 1 2
M  V30 2 1 2 3
M  V30 3 2 3 4
M  V30 4 1 4 5
M  V30 5 2 5 6
M  V30 6 1 6 7
M  V30 7 2 7 8
M  V30 8 1 8 9
M  V30 9 2 9 10
M  V30 10 1 10 11
M  V30 11 2 11 12
M  V30 12 1 12 13
M  V30 13 2 13 14
M  V30 14 1 14 15
M  V30 15 2 15 16
M  V30 16 1 16 17
M  V30 17 2 17 18
M  V30 18 1 18 19
M  V30 19 1 19 20
M  V30 20 1 16 3
M  V30 21 1 14 5
M  V30 22 1 19 15
M  V30 23 1 12 7
M  V30 24 1 1 21
M  V30 25 1 1 22
M  V30 26 1 1 23
M  V30 27 1 2 24
M  V30 28 1 6 25
M  V30 29 1 8 26
M  V30 30 1 9 27
M  V30 31 1 10 28
M  V30 32 1 11 29
M  V30 33 1 13 30
M  V30 34 1 18 31
M  V30 35 1 20 32
M  V30 36 1 20 33
M  V30 37 1 20 34
M  V30 END BOND
M  V30 END CTAB
M  END
>  <Dataset>  (850) 
ChEMBL_Kinases

>  <Ligand_Instance>  (850) 
nan

>  <PDB_ID>  (850) 
nan

>  <Standardized_SMILES>  (850) 
CNc1nc2cc3ccccc3cc2c2c1ncn2C

>  <Name>  (850) 
nan

>  <Pocket>  (850) 
nan

>  <ATP_Site>  (850) 
nan

>  <Peripheral>  (850) 
nan

>  <Num_H_Atoms_ProtBoundConf>  (850) 
nan

>  <Num_Resolved_Atoms>  (850) 
nan

>  <Num_Not_Resolved_Atoms>  (850) 
nan

$$$$
CHEMBL231037
     RDKit          3D

  0  0  0  0  0  0  0  0  0  0999 V3000
M  V30 BEGIN CTAB
M  V30 COUNTS 39 42 0 0 0
M  V30 BEGIN ATOM
M  V30 1 C -2.437866 -2.297578 2.163756 0
M  V30 2 N -1.442112 -2.197195 1.138695 0
M  V30 3 C -1.345765 -3.097831 0.136150 0
M  V30 4 N -0.339890 -2.789047 -0.693103 0
M  V30 5 C 0.270823 -1.662963 -0.265236 0
M  V30 6 C 1.337394 -0.846412 -0.653459 0
M  V30 7 N 1.901191 -1.371185 -1.824548 0
M  V30 8 C 2.466460 -1.894905 -2.996222 0
M  V30 9 C 1.643152 -3.127828 -3.478609 0
M  V30 10 N 0.297167 -2.743509 -3.774142 0
M  V30 11 N 1.651376 0.237760 0.073919 0
M  V30 12 C 0.987397 0.594414 1.178010 0
M  V30 13 C 1.435394 1.733005 1.808024 0
M  V30 14 C 0.732239 2.076885 2.942942 0
M  V30 15 C 1.144488 3.216199 3.613959 0
M  V30 16 C 0.498040 3.632870 4.757593 0
M  V30 17 C -0.568706 2.894354 5.223384 0
M  V30 18 C -0.956299 1.766196 4.535736 0
M  V30 19 C -0.345492 1.305464 3.388375 0
M  V30 20 C -0.704621 0.172398 2.663725 0
M  V30 21 C -0.052099 -0.227000 1.530559 0
M  V30 22 C -0.467081 -1.345832 0.882826 0
M  V30 23 H -2.036175 -2.511637 3.185887 0
M  V30 24 H -3.200993 -1.483448 2.141054 0
M  V30 25 H -3.092299 -3.213137 1.993931 0
M  V30 26 H -1.977726 -3.984370 -0.030144 0
M  V30 27 H 2.670906 -0.621274 -1.916589 0
M  V30 28 H 2.410388 -1.239456 -3.920860 0
M  V30 29 H 3.508321 -2.314250 -2.898554 0
M  V30 30 H 1.760447 -3.940496 -2.751476 0
M  V30 31 H 2.135507 -3.417752 -4.429119 0
M  V30 32 H 0.087223 -2.740846 -4.807496 0
M  V30 33 H 0.035254 -1.853277 -3.307673 0
M  V30 34 H 2.258416 2.293814 1.439537 0
M  V30 35 H 1.980720 3.789316 3.243106 0
M  V30 36 H 0.776559 4.513092 5.321179 0
M  V30 37 H -1.127103 3.154948 6.111966 0
M  V30 38 H -1.783116 1.174292 4.877252 0
M  V30 39 H -1.524557 -0.274584 3.141775 0
M  V30 END ATOM
M  V30 BEGIN BOND
M  V30 1 1 1 2
M  V30 2 1 2 3
M  V30 3 2 3 4
M  V30 4 1 4 5
M  V30 5 2 5 6
M  V30 6 1 6 7
M  V30 7 1 7 8
M  V30 8 1 8 9
M  V30 9 1 9 10
M  V30 10 1 6 11
M  V30 11 2 11 12
M  V30 12 1 12 13
M  V30 13 2 13 14
M  V30 14 1 14 15
M  V30 15 2 15 16
M  V30 16 1 16 17
M  V30 17 2 17 18
M  V30 18 1 18 19
M  V30 19 2 19 20
M  V30 20 1 20 21
M  V30 21 2 21 22
M  V30 22 1 22 2
M  V30 23 1 22 5
M  V30 24 1 21 12
M  V30 25 1 19 14
M  V30 26 1 1 23
M  V30 27 1 1 24
M  V30 28 1 1 25
M  V30 29 1 3 26
M  V30 30 1 7 27
M  V30 31 1 8 28
M  V30 32 1 8 29
M  V30 33 1 9 30
M  V30 34 1 9 31
M  V30 35 1 10 32
M  V30 36 1 10 33
M  V30 37 1 13 34
M  V30 38 1 15 35
M  V30 39 1 16 36
M  V30 40 1 17 37
M  V30 41 1 18 38
M  V30 42 1 20 39
M  V30 END BOND
M  V30 END CTAB
M  END
>  <Dataset>  (851) 
ChEMBL_Kinases

>  <Ligand_Instance>  (851) 
nan

>  <PDB_ID>  (851) 
nan

>  <Standardized_SMILES>  (851) 
Cn1cnc2c(NCCN)nc3cc4ccccc4cc3c21

>  <Name>  (851) 
nan

>  <Pocket>  (851) 
nan

>  <ATP_Site>  (851) 
nan

>  <Peripheral>  (851) 
nan

>  <Num_H_Atoms_ProtBoundConf>  (851) 
nan

>  <Num_Resolved_Atoms>  (851) 
nan

>  <Num_Not_Resolved_Atoms>  (851) 
nan

$$$$
CHEMBL231108
     RDKit          3D

  0  0  0  0  0  0  0  0  0  0999 V3000
M  V30 BEGIN CTAB
M  V30 COUNTS 42 44 0 0 0
M  V30 BEGIN ATOM
M  V30 1 N 4.182709 -1.321539 3.721137 0
M  V30 2 C 4.170560 -0.256763 2.734852 0
M  V30 3 O 5.219957 -0.249932 3.383823 0
M  V30 4 C 2.965832 -0.205052 1.935280 0
M  V30 5 C 3.022377 0.860468 1.060699 0
M  V30 6 C 1.951573 1.086719 0.190104 0
M  V30 7 C 1.862145 2.162980 -0.786230 0
M  V30 8 C 0.592637 2.644222 -1.065246 0
M  V30 9 C 0.415776 3.670893 -1.985146 0
M  V30 10 C 1.530723 4.209468 -2.622551 0
M  V30 11 Cl 1.372949 5.501821 -3.788713 0
M  V30 12 C 2.797483 3.739563 -2.353585 0
M  V30 13 C 2.929112 2.720191 -1.434585 0
M  V30 14 C 0.924721 0.179008 0.316126 0
M  V30 15 C 0.889928 -0.878210 1.197311 0
M  V30 16 C -0.255645 -1.800780 1.258799 0
M  V30 17 C -0.784160 -2.270591 0.065105 0
M  V30 18 C -1.866500 -3.147216 0.032783 0
M  V30 19 C -2.423582 -3.555463 1.231076 0
M  V30 20 S -3.781954 -4.657317 1.187671 0
M  V30 21 N -5.233790 -3.688766 1.132768 0
M  V30 22 O -3.756762 -5.425754 2.466406 0
M  V30 23 O -3.703298 -5.555690 0.008688 0
M  V30 24 C -1.913881 -3.100614 2.430768 0
M  V30 25 C -0.840648 -2.232297 2.434970 0
M  V30 26 C 1.928694 -1.088736 2.034201 0
M  V30 27 O 1.939654 -2.134337 2.933918 0
M  V30 28 H 3.687046 -1.948796 4.428590 0
M  V30 29 H 3.695387 -1.950337 4.427923 0
M  V30 30 H 3.841398 1.569967 0.973827 0
M  V30 31 H -0.339720 2.293634 -0.623797 0
M  V30 32 H -0.521646 4.112874 -2.270728 0
M  V30 33 H 3.666777 4.168521 -2.858915 0
M  V30 34 H 3.918962 2.348821 -1.220611 0
M  V30 35 H 0.076682 0.316282 -0.337586 0
M  V30 36 H -0.383244 -1.980368 -0.900085 0
M  V30 37 H -2.265099 -3.502709 -0.899418 0
M  V30 38 H -5.284530 -3.138312 0.265375 0
M  V30 39 H -5.167223 -2.978519 1.914604 0
M  V30 40 H -2.336223 -3.408277 3.386466 0
M  V30 41 H -0.420907 -1.859814 3.361093 0
M  V30 42 H 1.560624 -3.041787 2.664547 0
M  V30 END ATOM
M  V30 BEGIN BOND
M  V30 1 1 1 2
M  V30 2 2 2 3
M  V30 3 1 2 4
M  V30 4 2 4 5
M  V30 5 1 5 6
M  V30 6 1 6 7
M  V30 7 2 7 8
M  V30 8 1 8 9
M  V30 9 2 9 10
M  V30 10 1 10 11
M  V30 11 1 10 12
M  V30 12 2 12 13
M  V30 13 2 6 14
M  V30 14 1 14 15
M  V30 15 1 15 16
M  V30 16 2 16 17
M  V30 17 1 17 18
M  V30 18 2 18 19
M  V30 19 1 19 20
M  V30 20 1 20 21
M  V30 21 2 20 22
M  V30 22 2 20 23
M  V30 23 1 19 24
M  V30 24 2 24 25
M  V30 25 2 15 26
M  V30 26 1 26 27
M  V30 27 1 26 4
M  V30 28 1 13 7
M  V30 29 1 25 16
M  V30 30 1 1 28
M  V30 31 1 1 29
M  V30 32 1 5 30
M  V30 33 1 8 31
M  V30 34 1 9 32
M  V30 35 1 12 33
M  V30 36 1 13 34
M  V30 37 1 14 35
M  V30 38 1 17 36
M  V30 39 1 18 37
M  V30 40 1 21 38
M  V30 41 1 21 39
M  V30 42 1 24 40
M  V30 43 1 25 41
M  V30 44 1 27 42
M  V30 END BOND
M  V30 END CTAB
M  END
>  <Dataset>  (852) 
ChEMBL_Kinases

>  <Ligand_Instance>  (852) 
nan

>  <PDB_ID>  (852) 
nan

>  <Standardized_SMILES>  (852) 
NC(=O)c1cc(-c2ccc(Cl)cc2)cc(-c2ccc(S(N)(=O)=O)cc2)c1O

>  <Name>  (852) 
nan

>  <Pocket>  (852) 
nan

>  <ATP_Site>  (852) 
nan

>  <Peripheral>  (852) 
nan

>  <Num_H_Atoms_ProtBoundConf>  (852) 
nan

>  <Num_Resolved_Atoms>  (852) 
nan

>  <Num_Not_Resolved_Atoms>  (852) 
nan

$$$$
CHEMBL231129
     RDKit          3D

  0  0  0  0  0  0  0  0  0  0999 V3000
M  V30 BEGIN CTAB
M  V30 COUNTS 63 66 0 0 0
M  V30 BEGIN ATOM
M  V30 1 N 5.045162 0.138464 2.387334 0
M  V30 2 C 3.648297 -0.065020 2.367351 0
M  V30 3 O 3.176445 -0.792706 3.245490 0
M  V30 4 C 2.858169 0.583495 1.330095 0
M  V30 5 C 3.386784 1.422414 0.388104 0
M  V30 6 C 2.533483 1.981786 -0.544388 0
M  V30 7 C 3.128551 2.876556 -1.532039 0
M  V30 8 C 2.618124 2.997643 -2.828310 0
M  V30 9 C 3.228693 3.868691 -3.705043 0
M  V30 10 C 4.332888 4.636354 -3.366524 0
M  V30 11 C 4.853780 4.532932 -2.090903 0
M  V30 12 C 4.233735 3.658108 -1.225089 0
M  V30 13 C 1.175174 1.759836 -0.602852 0
M  V30 14 C 0.625217 0.931276 0.320840 0
M  V30 15 C -0.808717 0.617652 0.337250 0
M  V30 16 C -1.583525 0.562355 1.472483 0
M  V30 17 C -2.925949 0.258650 1.386981 0
M  V30 18 C -3.548356 -0.002971 0.153997 0
M  V30 19 S -5.244378 -0.348180 0.377704 0
M  V30 20 O -5.846011 0.483874 1.469896 0
M  V30 21 O -5.974290 0.060488 -0.892471 0
M  V30 22 N -5.469129 -2.011849 0.602388 0
M  V30 23 N -5.130480 -2.862487 -0.374344 0
M  V30 24 C -3.860016 -3.454770 -0.242043 0
M  V30 25 C -3.607320 -4.166489 1.084524 0
M  V30 26 N -2.287491 -4.759031 1.079059 0
M  V30 27 C -1.275880 -3.712865 1.070282 0
M  V30 28 C -0.022606 -4.399257 1.583672 0
M  V30 29 C -0.510682 -5.547484 2.397891 0
M  V30 30 C -1.996577 -5.586632 2.209071 0
M  V30 31 C -2.768034 0.053136 -0.982794 0
M  V30 32 C -1.425510 0.357333 -0.897961 0
M  V30 33 C 1.490617 0.365199 1.264730 0
M  V30 34 N 0.929131 -0.502546 2.247658 0
M  V30 35 H 5.584506 1.016591 2.621887 0
M  V30 36 H 5.969818 -0.321895 2.230647 0
M  V30 37 H 4.448128 1.621251 0.405576 0
M  V30 38 H 1.750845 2.414019 -3.139337 0
M  V30 39 H 2.793256 3.934184 -4.713764 0
M  V30 40 H 4.799506 5.307273 -4.041869 0
M  V30 41 H 5.712700 5.101977 -1.740713 0
M  V30 42 H 4.638090 3.578673 -0.231855 0
M  V30 43 H 0.570431 2.247940 -1.377069 0
M  V30 44 H -1.078512 0.771297 2.401545 0
M  V30 45 H -3.401339 0.252812 2.366872 0
M  V30 46 H -6.176871 -2.279268 1.304027 0
M  V30 47 H -5.839416 -3.323001 -0.945823 0
M  V30 48 H -3.714164 -4.248598 -1.039703 0
M  V30 49 H -3.031971 -2.728320 -0.334468 0
M  V30 50 H -4.427299 -4.871505 1.301388 0
M  V30 51 H -3.653434 -3.392411 1.884008 0
M  V30 52 H -1.122762 -3.430479 0.001061 0
M  V30 53 H -1.563399 -2.862487 1.692964 0
M  V30 54 H 0.601893 -4.746769 0.709978 0
M  V30 55 H 0.591470 -3.722526 2.202696 0
M  V30 56 H -0.027196 -6.507246 2.095463 0
M  V30 57 H -0.273724 -5.358152 3.478845 0
M  V30 58 H -2.484363 -5.202070 3.157058 0
M  V30 59 H -2.335691 -6.646434 2.030577 0
M  V30 60 H -3.358441 -0.163483 -1.853702 0
M  V30 61 H -0.908866 0.373364 -1.865472 0
M  V30 62 H 0.819641 -0.334808 3.297060 0
M  V30 63 H 0.482402 -1.346452 2.630379 0
M  V30 END ATOM
M  V30 BEGIN BOND
M  V30 1 1 1 2
M  V30 2 2 2 3
M  V30 3 1 2 4
M  V30 4 2 4 5
M  V30 5 1 5 6
M  V30 6 1 6 7
M  V30 7 2 7 8
M  V30 8 1 8 9
M  V30 9 2 9 10
M  V30 10 1 10 11
M  V30 11 2 11 12
M  V30 12 2 6 13
M  V30 13 1 13 14
M  V30 14 1 14 15
M  V30 15 2 15 16
M  V30 16 1 16 17
M  V30 17 2 17 18
M  V30 18 1 18 19
M  V30 19 2 19 20
M  V30 20 2 19 21
M  V30 21 1 19 22
M  V30 22 1 22 23
M  V30 23 1 23 24
M  V30 24 1 24 25
M  V30 25 1 25 26
M  V30 26 1 26 27
M  V30 27 1 27 28
M  V30 28 1 28 29
M  V30 29 1 29 30
M  V30 30 1 18 31
M  V30 31 2 31 32
M  V30 32 2 14 33
M  V30 33 1 33 34
M  V30 34 1 33 4
M  V30 35 1 12 7
M  V30 36 1 32 15
M  V30 37 1 30 26
M  V30 38 1 1 35
M  V30 39 1 1 36
M  V30 40 1 5 37
M  V30 41 1 8 38
M  V30 42 1 9 39
M  V30 43 1 10 40
M  V30 44 1 11 41
M  V30 45 1 12 42
M  V30 46 1 13 43
M  V30 47 1 16 44
M  V30 48 1 17 45
M  V30 49 1 22 46
M  V30 50 1 23 47
M  V30 51 1 24 48
M  V30 52 1 24 49
M  V30 53 1 25 50
M  V30 54 1 25 51
M  V30 55 1 27 52
M  V30 56 1 27 53
M  V30 57 1 28 54
M  V30 58 1 28 55
M  V30 59 1 29 56
M  V30 60 1 29 57
M  V30 61 1 30 58
M  V30 62 1 30 59
M  V30 63 1 31 60
M  V30 64 1 32 61
M  V30 65 1 34 62
M  V30 66 1 34 63
M  V30 END BOND
M  V30 END CTAB
M  END
>  <Dataset>  (853) 
ChEMBL_Kinases

>  <Ligand_Instance>  (853) 
nan

>  <PDB_ID>  (853) 
nan

>  <Standardized_SMILES>  (853) 
NC(=O)c1cc(-c2ccccc2)cc(-c2ccc(S(=O)(=O)NNCCN3CCCC3)cc2)c1N

>  <Name>  (853) 
nan

>  <Pocket>  (853) 
nan

>  <ATP_Site>  (853) 
nan

>  <Peripheral>  (853) 
nan

>  <Num_H_Atoms_ProtBoundConf>  (853) 
nan

>  <Num_Resolved_Atoms>  (853) 
nan

>  <Num_Not_Resolved_Atoms>  (853) 
nan

$$$$
CHEMBL230809
     RDKit          3D

  0  0  0  0  0  0  0  0  0  0999 V3000
M  V30 BEGIN CTAB
M  V30 COUNTS 46 48 0 0 0
M  V30 BEGIN ATOM
M  V30 1 N 4.871891 -2.908581 0.794114 0
M  V30 2 C 3.557224 -2.751282 1.316561 0
M  V30 3 O 3.288091 -3.557522 2.216138 0
M  V30 4 C 2.652619 -1.725985 0.809143 0
M  V30 5 C 3.100275 -0.898974 -0.200413 0
M  V30 6 C 2.196770 0.048872 -0.635105 0
M  V30 7 C 2.698098 0.924014 -1.717382 0
M  V30 8 C 2.210581 2.227345 -1.762065 0
M  V30 9 C 2.657984 3.069100 -2.758589 0
M  V30 10 C 3.570797 2.679510 -3.719022 0
M  V30 11 C 4.038817 1.367259 -3.645020 0
M  V30 12 C 3.605821 0.511969 -2.659891 0
M  V30 13 C 0.929911 0.189498 -0.121985 0
M  V30 14 C 0.507317 -0.658118 0.894222 0
M  V30 15 C -0.838346 -0.518549 1.448170 0
M  V30 16 C -1.116090 -0.538366 2.802374 0
M  V30 17 C -2.388569 -0.405283 3.288661 0
M  V30 18 C -3.450768 -0.244228 2.419561 0
M  V30 19 C -4.826729 -0.100369 2.946849 0
M  V30 20 S -5.515709 -1.731047 3.067286 0
M  V30 21 N -4.573952 -2.697364 4.124719 0
M  V30 22 O -6.921970 -1.684947 3.636515 0
M  V30 23 O -5.501310 -2.314266 1.690914 0
M  V30 24 C -3.183478 -0.223275 1.067922 0
M  V30 25 C -1.892634 -0.357304 0.549403 0
M  V30 26 C 1.391175 -1.631029 1.362655 0
M  V30 27 N 0.997362 -2.519133 2.402483 0
M  V30 28 H 5.790849 -2.669602 1.212692 0
M  V30 29 H 5.765640 -2.653254 1.252623 0
M  V30 30 H 4.101249 -1.010954 -0.605028 0
M  V30 31 H 1.498447 2.563031 -1.028981 0
M  V30 32 H 2.263131 4.090187 -2.777059 0
M  V30 33 H 3.909042 3.366298 -4.498219 0
M  V30 34 H 4.757276 1.016913 -4.378746 0
M  V30 35 H 3.967625 -0.506389 -2.600661 0
M  V30 36 H 0.299648 0.969241 -0.537215 0
M  V30 37 H -0.292995 -0.664008 3.497703 0
M  V30 38 H -2.539538 -0.429352 4.364937 0
M  V30 39 H -4.792064 0.335550 3.963246 0
M  V30 40 H -5.482070 0.526681 2.319222 0
M  V30 41 H -4.483632 -2.230209 5.061981 0
M  V30 42 H -3.638292 -2.943368 3.768549 0
M  V30 43 H -4.038868 -0.095186 0.410362 0
M  V30 44 H -1.782247 -0.328319 -0.526329 0
M  V30 45 H 1.083060 -2.641565 3.431691 0
M  V30 46 H 0.436856 -3.294110 1.938915 0
M  V30 END ATOM
M  V30 BEGIN BOND
M  V30 1 1 1 2
M  V30 2 2 2 3
M  V30 3 1 2 4
M  V30 4 2 4 5
M  V30 5 1 5 6
M  V30 6 1 6 7
M  V30 7 2 7 8
M  V30 8 1 8 9
M  V30 9 2 9 10
M  V30 10 1 10 11
M  V30 11 2 11 12
M  V30 12 2 6 13
M  V30 13 1 13 14
M  V30 14 1 14 15
M  V30 15 2 15 16
M  V30 16 1 16 17
M  V30 17 2 17 18
M  V30 18 1 18 19
M  V30 19 1 19 20
M  V30 20 1 20 21
M  V30 21 2 20 22
M  V30 22 2 20 23
M  V30 23 1 18 24
M  V30 24 2 24 25
M  V30 25 2 14 26
M  V30 26 1 26 27
M  V30 27 1 26 4
M  V30 28 1 12 7
M  V30 29 1 25 15
M  V30 30 1 1 28
M  V30 31 1 1 29
M  V30 32 1 5 30
M  V30 33 1 8 31
M  V30 34 1 9 32
M  V30 35 1 10 33
M  V30 36 1 11 34
M  V30 37 1 12 35
M  V30 38 1 13 36
M  V30 39 1 16 37
M  V30 40 1 17 38
M  V30 41 1 19 39
M  V30 42 1 19 40
M  V30 43 1 21 41
M  V30 44 1 21 42
M  V30 45 1 24 43
M  V30 46 1 25 44
M  V30 47 1 27 45
M  V30 48 1 27 46
M  V30 END BOND
M  V30 END CTAB
M  END
>  <Dataset>  (854) 
ChEMBL_Kinases

>  <Ligand_Instance>  (854) 
nan

>  <PDB_ID>  (854) 
nan

>  <Standardized_SMILES>  (854) 
NC(=O)c1cc(-c2ccccc2)cc(-c2ccc(CS(N)(=O)=O)cc2)c1N

>  <Name>  (854) 
nan

>  <Pocket>  (854) 
nan

>  <ATP_Site>  (854) 
nan

>  <Peripheral>  (854) 
nan

>  <Num_H_Atoms_ProtBoundConf>  (854) 
nan

>  <Num_Resolved_Atoms>  (854) 
nan

>  <Num_Not_Resolved_Atoms>  (854) 
nan

$$$$
CHEMBL3699761
     RDKit          3D

  0  0  0  0  0  0  0  0  0  0999 V3000
M  V30 BEGIN CTAB
M  V30 COUNTS 57 62 0 0 0
M  V30 BEGIN ATOM
M  V30 1 C 5.744458 -3.449989 -0.759476 0
M  V30 2 C 4.617932 -2.566222 -0.412052 0
M  V30 3 C 4.975816 -1.277844 0.004007 0
M  V30 4 Cl 6.658896 -0.784245 0.066758 0
M  V30 5 C 4.027668 -0.368169 0.372383 0
M  V30 6 N 2.764275 -0.798502 0.304987 0
M  V30 7 C 1.670843 -0.083154 0.615010 0
M  V30 8 C 1.580876 1.290048 1.089224 0
M  V30 9 C 1.104273 1.625694 2.355402 0
M  V30 10 C 1.055406 2.965647 2.720891 0
M  V30 11 C 1.461010 3.992158 1.880307 0
M  V30 12 C 1.929546 3.658954 0.634396 0
M  V30 13 C 1.994536 2.319970 0.227872 0
M  V30 14 C 0.568309 -0.873155 0.413610 0
M  V30 15 C -0.868974 -0.693083 0.567931 0
M  V30 16 C -1.536330 -0.650494 -0.662024 0
M  V30 17 C -2.907459 -0.495336 -0.772227 0
M  V30 18 C -3.660032 -0.376548 0.375984 0
M  V30 19 C -5.126702 -0.211497 0.272894 0
M  V30 20 N -5.702060 -0.939807 -0.874167 0
M  V30 21 C -5.596310 1.216125 0.257673 0
M  V30 22 C -6.266690 0.981007 1.591503 0
M  V30 23 C -5.943362 -0.470430 1.484447 0
M  V30 24 C -3.001564 -0.418509 1.586399 0
M  V30 25 C -1.635759 -0.572589 1.709430 0
M  V30 26 N 1.054250 -2.036935 -0.011894 0
M  V30 27 C 2.381735 -2.021585 -0.087432 0
M  V30 28 C 3.309936 -2.971365 -0.469130 0
M  V30 29 C 2.888874 -4.274575 -0.923302 0
M  V30 30 C 1.563392 -4.686877 -0.789877 0
M  V30 31 C 1.343468 -5.963242 -1.244737 0
M  V30 32 N 2.589268 -6.343503 -1.673653 0
M  V30 33 N 3.414229 -5.361501 -1.470559 0
M  V30 34 H 6.726629 -2.966765 -0.483870 0
M  V30 35 H 5.611364 -4.379451 -0.176978 0
M  V30 36 H 5.796220 -3.681689 -1.824447 0
M  V30 37 H 4.305718 0.618245 0.690291 0
M  V30 38 H 0.781833 0.848113 3.033702 0
M  V30 39 H 0.670955 3.150984 3.725962 0
M  V30 40 H 1.366045 4.984304 2.299705 0
M  V30 41 H 2.235523 4.483570 0.015134 0
M  V30 42 H 2.381792 2.142841 -0.782646 0
M  V30 43 H -1.044760 -0.733327 -1.625373 0
M  V30 44 H -3.428973 -0.461499 -1.715678 0
M  V30 45 H -6.681563 -0.682749 -1.027219 0
M  V30 46 H -5.525126 -1.958720 -0.821615 0
M  V30 47 H -4.729015 1.910963 0.273293 0
M  V30 48 H -6.320175 1.454950 -0.561055 0
M  V30 49 H -5.774948 1.456619 2.468912 0
M  V30 50 H -7.355026 1.242605 1.532017 0
M  V30 51 H -5.456210 -0.958224 2.351565 0
M  V30 52 H -6.899739 -1.043924 1.301690 0
M  V30 53 H -3.527955 -0.330714 2.508694 0
M  V30 54 H -1.061377 -0.616123 2.601441 0
M  V30 55 H 0.629469 -4.252220 -0.406602 0
M  V30 56 H 0.512698 -6.642126 -1.327010 0
M  V30 57 H 4.394878 -5.459864 -1.739403 0
M  V30 END ATOM
M  V30 BEGIN BOND
M  V30 1 1 1 2
M  V30 2 1 2 3
M  V30 3 1 3 4
M  V30 4 2 3 5
M  V30 5 1 5 6
M  V30 6 1 6 7
M  V30 7 1 7 8
M  V30 8 2 8 9
M  V30 9 1 9 10
M  V30 10 2 10 11
M  V30 11 1 11 12
M  V30 12 2 12 13
M  V30 13 2 7 14
M  V30 14 1 14 15
M  V30 15 2 15 16
M  V30 16 1 16 17
M  V30 17 2 17 18
M  V30 18 1 18 19
M  V30 19 1 19 20
M  V30 20 1 19 21
M  V30 21 1 21 22
M  V30 22 1 22 23
M  V30 23 1 18 24
M  V30 24 2 24 25
M  V30 25 1 14 26
M  V30 26 2 26 27
M  V30 27 1 27 28
M  V30 28 1 28 29
M  V30 29 2 29 30
M  V30 30 1 30 31
M  V30 31 2 31 32
M  V30 32 1 32 33
M  V30 33 2 28 2
M  V30 34 1 33 29
M  V30 35 1 27 6
M  V30 36 1 13 8
M  V30 37 1 25 15
M  V30 38 1 23 19
M  V30 39 1 1 34
M  V30 40 1 1 35
M  V30 41 1 1 36
M  V30 42 1 5 37
M  V30 43 1 9 38
M  V30 44 1 10 39
M  V30 45 1 11 40
M  V30 46 1 12 41
M  V30 47 1 13 42
M  V30 48 1 16 43
M  V30 49 1 17 44
M  V30 50 1 20 45
M  V30 51 1 20 46
M  V30 52 1 21 47
M  V30 53 1 21 48
M  V30 54 1 22 49
M  V30 55 1 22 50
M  V30 56 1 23 51
M  V30 57 1 23 52
M  V30 58 1 24 53
M  V30 59 1 25 54
M  V30 60 1 30 55
M  V30 61 1 31 56
M  V30 62 1 33 57
M  V30 END BOND
M  V30 END CTAB
M  END
>  <Dataset>  (855) 
ChEMBL_Kinases

>  <Ligand_Instance>  (855) 
nan

>  <PDB_ID>  (855) 
nan

>  <Standardized_SMILES>  (855) 
Cc1c(Cl)cn2c(-c3ccccc3)c(-c3ccc(C4(N)CCC4)cc3)nc2c1-c1ccn[nH]1

>  <Name>  (855) 
nan

>  <Pocket>  (855) 
nan

>  <ATP_Site>  (855) 
nan

>  <Peripheral>  (855) 
nan

>  <Num_H_Atoms_ProtBoundConf>  (855) 
nan

>  <Num_Resolved_Atoms>  (855) 
nan

>  <Num_Not_Resolved_Atoms>  (855) 
nan

$$$$
CHEMBL3699760
     RDKit          3D

  0  0  0  0  0  0  0  0  0  0999 V3000
M  V30 BEGIN CTAB
M  V30 COUNTS 60 65 0 0 0
M  V30 BEGIN ATOM
M  V30 1 C 2.371483 0.523737 6.076729 0
M  V30 2 C 2.292274 0.325274 4.612396 0
M  V30 3 C 3.390386 0.539968 3.804474 0
M  V30 4 Cl 4.882929 1.056504 4.576148 0
M  V30 5 C 3.306363 0.349836 2.420505 0
M  V30 6 N 2.116975 -0.042510 1.965186 0
M  V30 7 C 1.846295 -0.277314 0.647242 0
M  V30 8 C 2.593095 -0.214993 -0.603949 0
M  V30 9 C 2.708756 -1.440915 -1.248731 0
M  V30 10 C 3.377374 -1.594235 -2.446021 0
M  V30 11 C 3.958947 -0.489702 -3.035665 0
M  V30 12 C 3.847675 0.740062 -2.396863 0
M  V30 13 C 3.182370 0.875669 -1.211751 0
M  V30 14 C 0.521397 -0.659228 0.597748 0
M  V30 15 C -0.434856 -1.054026 -0.431788 0
M  V30 16 C -0.712149 -0.066772 -1.376583 0
M  V30 17 C -1.597262 -0.293563 -2.410925 0
M  V30 18 C -2.232499 -1.511226 -2.534481 0
M  V30 19 C -3.203693 -1.978683 -3.542049 0
M  V30 20 N -4.356939 -2.650063 -2.989551 0
M  V30 21 C -3.544769 -0.963516 -4.598469 0
M  V30 22 C -3.627302 -2.141113 -5.580791 0
M  V30 23 C -2.622476 -2.838296 -4.657750 0
M  V30 24 C -1.954713 -2.502068 -1.586903 0
M  V30 25 C -1.066965 -2.276229 -0.548658 0
M  V30 26 N 0.032090 -0.645251 1.872273 0
M  V30 27 C 1.024968 -0.265353 2.690118 0
M  V30 28 C 1.088166 -0.082574 4.062813 0
M  V30 29 C -0.082327 -0.310803 4.924670 0
M  V30 30 C -0.456574 -1.483786 5.545775 0
M  V30 31 C -1.613267 -1.469821 6.322054 0
M  V30 32 C -2.346004 -0.321304 6.455740 0
M  V30 33 F -3.459675 -0.424304 7.239570 0
M  V30 34 C -1.981118 0.852273 5.840727 0
M  V30 35 C -0.827790 0.851582 5.062591 0
M  V30 36 H 1.615848 -0.052482 6.616498 0
M  V30 37 H 2.401461 1.579255 6.355024 0
M  V30 38 H 3.366491 0.091089 6.390641 0
M  V30 39 H 4.180980 0.523967 1.803276 0
M  V30 40 H 2.286226 -2.358361 -0.862861 0
M  V30 41 H 3.465900 -2.547408 -2.945248 0
M  V30 42 H 4.481780 -0.583107 -3.962676 0
M  V30 43 H 4.279828 1.635722 -2.807141 0
M  V30 44 H 3.049069 1.796061 -0.648010 0
M  V30 45 H -0.264251 0.919437 -1.364180 0
M  V30 46 H -1.875093 0.403265 -3.185403 0
M  V30 47 H -5.011362 -2.037688 -2.483221 0
M  V30 48 H -4.761526 -3.358204 -3.609235 0
M  V30 49 H -4.486938 -0.418913 -4.456504 0
M  V30 50 H -2.723423 -0.311454 -4.892686 0
M  V30 51 H -4.652703 -2.583514 -5.492773 0
M  V30 52 H -3.276470 -1.930925 -6.590064 0
M  V30 53 H -2.854952 -3.918215 -4.581316 0
M  V30 54 H -1.583151 -2.604501 -4.937164 0
M  V30 55 H -2.390978 -3.511689 -1.570385 0
M  V30 56 H -0.816746 -3.005586 0.209378 0
M  V30 57 H 0.193053 -2.307715 5.366035 0
M  V30 58 H -1.873946 -2.420378 6.796803 0
M  V30 59 H -2.599417 1.724889 5.983826 0
M  V30 60 H -0.614173 1.814232 4.616423 0
M  V30 END ATOM
M  V30 BEGIN BOND
M  V30 1 1 1 2
M  V30 2 1 2 3
M  V30 3 1 3 4
M  V30 4 2 3 5
M  V30 5 1 5 6
M  V30 6 1 6 7
M  V30 7 1 7 8
M  V30 8 2 8 9
M  V30 9 1 9 10
M  V30 10 2 10 11
M  V30 11 1 11 12
M  V30 12 2 12 13
M  V30 13 2 7 14
M  V30 14 1 14 15
M  V30 15 2 15 16
M  V30 16 1 16 17
M  V30 17 2 17 18
M  V30 18 1 18 19
M  V30 19 1 19 20
M  V30 20 1 19 21
M  V30 21 1 21 22
M  V30 22 1 22 23
M  V30 23 1 18 24
M  V30 24 2 24 25
M  V30 25 1 14 26
M  V30 26 2 26 27
M  V30 27 1 27 28
M  V30 28 1 28 29
M  V30 29 2 29 30
M  V30 30 1 30 31
M  V30 31 2 31 32
M  V30 32 1 32 33
M  V30 33 1 32 34
M  V30 34 2 34 35
M  V30 35 2 28 2
M  V30 36 1 35 29
M  V30 37 1 27 6
M  V30 38 1 13 8
M  V30 39 1 25 15
M  V30 40 1 23 19
M  V30 41 1 1 36
M  V30 42 1 1 37
M  V30 43 1 1 38
M  V30 44 1 5 39
M  V30 45 1 9 40
M  V30 46 1 10 41
M  V30 47 1 11 42
M  V30 48 1 12 43
M  V30 49 1 13 44
M  V30 50 1 16 45
M  V30 51 1 17 46
M  V30 52 1 20 47
M  V30 53 1 20 48
M  V30 54 1 21 49
M  V30 55 1 21 50
M  V30 56 1 22 51
M  V30 57 1 22 52
M  V30 58 1 23 53
M  V30 59 1 23 54
M  V30 60 1 24 55
M  V30 61 1 25 56
M  V30 62 1 30 57
M  V30 63 1 31 58
M  V30 64 1 34 59
M  V30 65 1 35 60
M  V30 END BOND
M  V30 END CTAB
M  END
>  <Dataset>  (856) 
ChEMBL_Kinases

>  <Ligand_Instance>  (856) 
nan

>  <PDB_ID>  (856) 
nan

>  <Standardized_SMILES>  (856) 
Cc1c(Cl)cn2c(-c3ccccc3)c(-c3ccc(C4(N)CCC4)cc3)nc2c1-c1ccc(F)cc1

>  <Name>  (856) 
nan

>  <Pocket>  (856) 
nan

>  <ATP_Site>  (856) 
nan

>  <Peripheral>  (856) 
nan

>  <Num_H_Atoms_ProtBoundConf>  (856) 
nan

>  <Num_Resolved_Atoms>  (856) 
nan

>  <Num_Not_Resolved_Atoms>  (856) 
nan

$$$$
CHEMBL4537933
     RDKit          3D

  0  0  0  0  0  0  0  0  0  0999 V3000
M  V30 BEGIN CTAB
M  V30 COUNTS 34 35 0 0 0
M  V30 BEGIN ATOM
M  V30 1 N -1.514047 -2.476019 5.084361 0
M  V30 2 C -2.045591 -1.573289 4.097633 0
M  V30 3 C -1.084573 -1.410829 2.947106 0
M  V30 4 O -1.533227 -0.552499 1.954567 0
M  V30 5 C -0.904615 -0.199862 0.796413 0
M  V30 6 C 0.336332 -0.651802 0.392610 0
M  V30 7 C 0.881256 -0.228582 -0.805624 0
M  V30 8 C 2.211774 -0.729108 -1.209668 0
M  V30 9 C 3.070516 -0.986057 -0.178817 0
M  V30 10 C 4.324635 -1.460630 -0.576622 0
M  V30 11 C 4.618526 -1.636976 -1.918280 0
M  V30 12 N 3.724841 -1.364315 -2.889948 0
M  V30 13 C 2.483933 -0.898410 -2.565646 0
M  V30 14 C 0.193870 0.651660 -1.616001 0
M  V30 15 C -1.068659 1.138358 -1.249202 0
M  V30 16 C -1.556681 0.679133 -0.044560 0
M  V30 17 C -2.870204 1.181150 0.344446 0
M  V30 18 N -3.636930 2.090497 -0.433918 0
M  V30 19 O -3.530524 0.917420 1.382150 0
M  V30 20 H -0.837753 -2.044395 5.753101 0
M  V30 21 H -2.250468 -3.044414 5.556155 0
M  V30 22 H -2.158502 -0.579406 4.585289 0
M  V30 23 H -3.053287 -1.872371 3.779753 0
M  V30 24 H -0.075696 -1.189330 3.349004 0
M  V30 25 H -0.989129 -2.422144 2.457429 0
M  V30 26 H 0.846321 -1.339565 1.052249 0
M  V30 27 H 2.816215 -0.840365 0.850245 0
M  V30 28 H 5.039194 -1.677522 0.220957 0
M  V30 29 H 5.607658 -2.010410 -2.212662 0
M  V30 30 H 1.686826 -0.645483 -3.247942 0
M  V30 31 H 0.635579 0.964400 -2.537606 0
M  V30 32 H -1.618650 1.825743 -1.870077 0
M  V30 33 H -3.854314 2.398606 -1.410599 0
M  V30 34 H -3.896231 2.443333 -1.378053 0
M  V30 END ATOM
M  V30 BEGIN BOND
M  V30 1 1 1 2
M  V30 2 1 2 3
M  V30 3 1 3 4
M  V30 4 1 4 5
M  V30 5 2 5 6
M  V30 6 1 6 7
M  V30 7 1 7 8
M  V30 8 2 8 9
M  V30 9 1 9 10
M  V30 10 2 10 11
M  V30 11 1 11 12
M  V30 12 2 12 13
M  V30 13 2 7 14
M  V30 14 1 14 15
M  V30 15 2 15 16
M  V30 16 1 16 17
M  V30 17 1 17 18
M  V30 18 2 17 19
M  V30 19 1 16 5
M  V30 20 1 13 8
M  V30 21 1 1 20
M  V30 22 1 1 21
M  V30 23 1 2 22
M  V30 24 1 2 23
M  V30 25 1 3 24
M  V30 26 1 3 25
M  V30 27 1 6 26
M  V30 28 1 9 27
M  V30 29 1 10 28
M  V30 30 1 11 29
M  V30 31 1 13 30
M  V30 32 1 14 31
M  V30 33 1 15 32
M  V30 34 1 18 33
M  V30 35 1 18 34
M  V30 END BOND
M  V30 END CTAB
M  END
>  <Dataset>  (857) 
ChEMBL_Kinases

>  <Ligand_Instance>  (857) 
nan

>  <PDB_ID>  (857) 
nan

>  <Standardized_SMILES>  (857) 
NCCOc1cc(-c2cccnc2)ccc1C(N)=O

>  <Name>  (857) 
nan

>  <Pocket>  (857) 
nan

>  <ATP_Site>  (857) 
nan

>  <Peripheral>  (857) 
nan

>  <Num_H_Atoms_ProtBoundConf>  (857) 
nan

>  <Num_Resolved_Atoms>  (857) 
nan

>  <Num_Not_Resolved_Atoms>  (857) 
nan

$$$$
CHEMBL3702220
     RDKit          3D

  0  0  0  0  0  0  0  0  0  0999 V3000
M  V30 BEGIN CTAB
M  V30 COUNTS 56 60 0 0 0
M  V30 BEGIN ATOM
M  V30 1 C 1.555380 -1.109585 4.894460 0
M  V30 2 C 2.125964 -0.149958 3.887270 0
M  V30 3 C 2.580365 -0.846814 2.628644 0 CFG=1
M  V30 4 C 1.440213 -1.571656 1.942871 0
M  V30 5 N 3.174091 0.018264 1.655220 0
M  V30 6 C 4.402177 0.218291 1.153316 0
M  V30 7 C 5.541899 -0.460866 1.526665 0
M  V30 8 N 6.682145 -0.124159 0.917252 0
M  V30 9 C 6.729445 0.833646 -0.020975 0
M  V30 10 C 5.586609 1.531644 -0.412493 0
M  V30 11 C 4.395377 1.208853 0.196146 0
M  V30 12 C 3.087026 1.646392 0.101203 0
M  V30 13 C 2.525500 2.616202 -0.696605 0
M  V30 14 N 1.191290 2.872896 -0.608329 0
M  V30 15 C 0.454327 2.145836 0.282298 0
M  V30 16 N -0.924140 2.121348 0.649849 0
M  V30 17 C -1.769871 1.116805 0.073032 0
M  V30 18 C -3.110843 0.976038 0.383109 0
M  V30 19 C -3.893994 -0.006517 -0.178146 0
M  V30 20 C -3.388864 -0.897771 -1.074957 0
M  V30 21 N -4.166995 -1.937448 -1.643089 0
M  V30 22 C -5.429951 -2.423995 -1.110862 0
M  V30 23 C -5.080450 -3.747934 -0.432916 0
M  V30 24 N -4.220508 -4.491989 -1.296965 0
M  V30 25 C -4.242724 -4.100410 -2.683073 0
M  V30 26 C -3.777542 -2.663440 -2.866752 0
M  V30 27 C -2.055365 -0.749752 -1.378650 0
M  V30 28 N -1.317855 0.218895 -0.813906 0
M  V30 29 N 1.023763 1.203401 1.050309 0
M  V30 30 C 2.359230 0.901271 1.005729 0
M  V30 31 H 1.003391 -0.520579 5.654206 0
M  V30 32 H 0.796216 -1.787085 4.452178 0
M  V30 33 H 2.336284 -1.690072 5.417737 0
M  V30 34 H 2.967576 0.399184 4.346880 0
M  V30 35 H 1.357021 0.592215 3.600306 0
M  V30 36 H 3.327823 -1.621762 2.902711 0
M  V30 37 H 1.775571 -1.764275 0.896937 0
M  V30 38 H 0.515006 -0.975392 1.864315 0
M  V30 39 H 1.286423 -2.572921 2.407097 0
M  V30 40 H 5.542176 -1.248622 2.290139 0
M  V30 41 H 7.668667 1.113517 -0.525078 0
M  V30 42 H 5.532513 2.312416 -1.156441 0
M  V30 43 H 3.091423 3.195170 -1.399457 0
M  V30 44 H -1.404065 2.783646 1.321818 0
M  V30 45 H -3.508728 1.702019 1.108014 0
M  V30 46 H -4.928070 -0.032544 0.130166 0
M  V30 47 H -5.915042 -1.718400 -0.403825 0
M  V30 48 H -6.097515 -2.633362 -1.960512 0
M  V30 49 H -4.477214 -3.534077 0.499278 0
M  V30 50 H -5.977716 -4.294992 -0.078017 0
M  V30 51 H -4.429329 -5.506022 -1.184476 0
M  V30 52 H -3.508539 -4.739795 -3.220066 0
M  V30 53 H -5.227996 -4.283740 -3.142847 0
M  V30 54 H -2.695624 -2.669273 -3.026912 0
M  V30 55 H -4.366288 -2.281516 -3.731330 0
M  V30 56 H -1.516159 -1.377089 -2.069629 0
M  V30 END ATOM
M  V30 BEGIN BOND
M  V30 1 1 1 2
M  V30 2 1 2 3
M  V30 3 1 3 4
M  V30 4 1 3 5
M  V30 5 1 5 6
M  V30 6 2 6 7
M  V30 7 1 7 8
M  V30 8 2 8 9
M  V30 9 1 9 10
M  V30 10 2 10 11
M  V30 11 1 11 12
M  V30 12 2 12 13
M  V30 13 1 13 14
M  V30 14 2 14 15
M  V30 15 1 15 16
M  V30 16 1 16 17
M  V30 17 2 17 18
M  V30 18 1 18 19
M  V30 19 2 19 20
M  V30 20 1 20 21
M  V30 21 1 21 22
M  V30 22 1 22 23
M  V30 23 1 23 24
M  V30 24 1 24 25
M  V30 25 1 25 26
M  V30 26 1 20 27
M  V30 27 2 27 28
M  V30 28 1 15 29
M  V30 29 2 29 30
M  V30 30 1 30 5
M  V30 31 1 11 6
M  V30 32 1 30 12
M  V30 33 1 28 17
M  V30 34 1 26 21
M  V30 35 1 1 31
M  V30 36 1 1 32
M  V30 37 1 1 33
M  V30 38 1 2 34
M  V30 39 1 2 35
M  V30 40 1 3 36 CFG=1
M  V30 41 1 4 37
M  V30 42 1 4 38
M  V30 43 1 4 39
M  V30 44 1 7 40
M  V30 45 1 9 41
M  V30 46 1 10 42
M  V30 47 1 13 43
M  V30 48 1 16 44
M  V30 49 1 18 45
M  V30 50 1 19 46
M  V30 51 1 22 47
M  V30 52 1 22 48
M  V30 53 1 23 49
M  V30 54 1 23 50
M  V30 55 1 24 51
M  V30 56 1 25 52
M  V30 57 1 25 53
M  V30 58 1 26 54
M  V30 59 1 26 55
M  V30 60 1 27 56
M  V30 END BOND
M  V30 END CTAB
M  END
>  <Dataset>  (858) 
ChEMBL_Kinases

>  <Ligand_Instance>  (858) 
nan

>  <PDB_ID>  (858) 
nan

>  <Standardized_SMILES>  (858) 
CC[C@@H](C)n1c2cnccc2c2cnc(Nc3ccc(N4CCNCC4)cn3)nc21

>  <Name>  (858) 
nan

>  <Pocket>  (858) 
nan

>  <ATP_Site>  (858) 
nan

>  <Peripheral>  (858) 
nan

>  <Num_H_Atoms_ProtBoundConf>  (858) 
nan

>  <Num_Resolved_Atoms>  (858) 
nan

>  <Num_Not_Resolved_Atoms>  (858) 
nan

$$$$
CHEMBL230047
     RDKit          3D

  0  0  0  0  0  0  0  0  0  0999 V3000
M  V30 BEGIN CTAB
M  V30 COUNTS 53 55 0 0 0
M  V30 BEGIN ATOM
M  V30 1 N 3.028473 -3.386351 4.856548 0
M  V30 2 C 3.605040 -2.087834 4.574473 0
M  V30 3 C 4.379696 -2.116437 3.248254 0
M  V30 4 N 4.908242 -0.783801 3.066583 0
M  V30 5 N 5.635613 -0.619908 1.911121 0
M  V30 6 S 4.909298 0.710690 1.039348 0
M  V30 7 O 5.005374 1.898498 1.959066 0
M  V30 8 O 5.725005 1.030931 -0.171366 0
M  V30 9 C 3.253130 0.326280 0.626735 0
M  V30 10 C 2.957454 -0.306346 -0.565113 0
M  V30 11 C 1.644524 -0.603310 -0.877911 0
M  V30 12 C 0.582810 -0.293398 -0.040659 0
M  V30 13 C -0.774693 -0.623280 -0.408757 0
M  V30 14 C -1.795140 0.309431 -0.244459 0
M  V30 15 C -3.056102 -0.084954 -0.619808 0
M  V30 16 C -4.097442 0.921182 -0.431479 0
M  V30 17 C -4.040245 1.843345 0.596061 0
M  V30 18 C -5.029699 2.810616 0.788108 0
M  V30 19 C -6.083125 2.799879 -0.112502 0
M  V30 20 C -6.157311 1.876344 -1.155845 0
M  V30 21 C -5.162857 0.933218 -1.318026 0
M  V30 22 C -3.396413 -1.320505 -1.143244 0
M  V30 23 C -2.397188 -2.256555 -1.312607 0
M  V30 24 C -2.662586 -3.569533 -1.851527 0
M  V30 25 N -3.998629 -3.898914 -2.216726 0
M  V30 26 O -1.714786 -4.383253 -1.983958 0
M  V30 27 C -1.138654 -1.844346 -0.931060 0
M  V30 28 N -0.073327 -2.765859 -1.082278 0
M  V30 29 C 0.866972 0.340051 1.155083 0
M  V30 30 C 2.184643 0.626472 1.446063 0
M  V30 31 H 2.020538 -3.412544 4.545894 0
M  V30 32 H 3.529124 -4.112254 4.275925 0
M  V30 33 H 4.303128 -1.765440 5.374390 0
M  V30 34 H 2.788992 -1.339724 4.526513 0
M  V30 35 H 5.169294 -2.885609 3.282693 0
M  V30 36 H 3.658734 -2.403283 2.456660 0
M  V30 37 H 4.260276 -0.039868 3.328366 0
M  V30 38 H 6.616299 -0.413144 2.138286 0
M  V30 39 H 3.798076 -0.539047 -1.203328 0
M  V30 40 H 1.456618 -1.106155 -1.835352 0
M  V30 41 H -1.574938 1.272746 0.155482 0
M  V30 42 H -3.198148 1.825503 1.288200 0
M  V30 43 H -4.997235 3.540322 1.590593 0
M  V30 44 H -6.866374 3.549204 0.021838 0
M  V30 45 H -7.031171 1.975756 -1.787728 0
M  V30 46 H -5.251889 0.237579 -2.132161 0
M  V30 47 H -4.435856 -1.541448 -1.413733 0
M  V30 48 H -4.824632 -4.145066 -1.609410 0
M  V30 49 H -4.523932 -3.988990 -3.125384 0
M  V30 50 H 0.711792 -3.428347 -1.164931 0
M  V30 51 H 0.432134 -3.481298 -1.637416 0
M  V30 52 H 0.052307 0.582225 1.805578 0
M  V30 53 H 2.384850 1.122549 2.386509 0
M  V30 END ATOM
M  V30 BEGIN BOND
M  V30 1 1 1 2
M  V30 2 1 2 3
M  V30 3 1 3 4
M  V30 4 1 4 5
M  V30 5 1 5 6
M  V30 6 2 6 7
M  V30 7 2 6 8
M  V30 8 1 6 9
M  V30 9 2 9 10
M  V30 10 1 10 11
M  V30 11 2 11 12
M  V30 12 1 12 13
M  V30 13 2 13 14
M  V30 14 1 14 15
M  V30 15 1 15 16
M  V30 16 2 16 17
M  V30 17 1 17 18
M  V30 18 2 18 19
M  V30 19 1 19 20
M  V30 20 2 20 21
M  V30 21 2 15 22
M  V30 22 1 22 23
M  V30 23 1 23 24
M  V30 24 1 24 25
M  V30 25 2 24 26
M  V30 26 2 23 27
M  V30 27 1 27 28
M  V30 28 1 12 29
M  V30 29 2 29 30
M  V30 30 1 30 9
M  V30 31 1 27 13
M  V30 32 1 21 16
M  V30 33 1 1 31
M  V30 34 1 1 32
M  V30 35 1 2 33
M  V30 36 1 2 34
M  V30 37 1 3 35
M  V30 38 1 3 36
M  V30 39 1 4 37
M  V30 40 1 5 38
M  V30 41 1 10 39
M  V30 42 1 11 40
M  V30 43 1 14 41
M  V30 44 1 17 42
M  V30 45 1 18 43
M  V30 46 1 19 44
M  V30 47 1 20 45
M  V30 48 1 21 46
M  V30 49 1 22 47
M  V30 50 1 25 48
M  V30 51 1 25 49
M  V30 52 1 28 50
M  V30 53 1 28 51
M  V30 54 1 29 52
M  V30 55 1 30 53
M  V30 END BOND
M  V30 END CTAB
M  END
>  <Dataset>  (859) 
ChEMBL_Kinases

>  <Ligand_Instance>  (859) 
nan

>  <PDB_ID>  (859) 
nan

>  <Standardized_SMILES>  (859) 
NCCNNS(=O)(=O)c1ccc(-c2cc(-c3ccccc3)cc(C(N)=O)c2N)cc1

>  <Name>  (859) 
nan

>  <Pocket>  (859) 
nan

>  <ATP_Site>  (859) 
nan

>  <Peripheral>  (859) 
nan

>  <Num_H_Atoms_ProtBoundConf>  (859) 
nan

>  <Num_Resolved_Atoms>  (859) 
nan

>  <Num_Not_Resolved_Atoms>  (859) 
nan

$$$$
CHEMBL3702221
     RDKit          3D

  0  0  0  0  0  0  0  0  0  0999 V3000
M  V30 BEGIN CTAB
M  V30 COUNTS 59 63 0 0 0
M  V30 BEGIN ATOM
M  V30 1 C 3.304771 -0.481511 0.453327 0
M  V30 2 C 4.230857 -0.288371 1.634570 0
M  V30 3 C 3.540801 0.425388 2.774621 0 CFG=1
M  V30 4 C 4.453511 0.619094 3.946732 0
M  V30 5 N 2.920882 1.669459 2.314228 0
M  V30 6 C 3.507567 2.817562 1.936586 0
M  V30 7 C 4.821450 3.190738 1.861020 0
M  V30 8 N 5.226824 4.426330 1.444805 0
M  V30 9 C 4.271651 5.327176 1.088686 0
M  V30 10 C 2.915237 5.029949 1.135865 0
M  V30 11 C 2.579901 3.754872 1.568889 0
M  V30 12 C 1.347555 3.175963 1.719723 0
M  V30 13 C 0.014517 3.536653 1.535879 0
M  V30 14 N -0.981387 2.671327 1.796208 0
M  V30 15 C -0.724096 1.411692 2.248798 0
M  V30 16 N -1.679742 0.402438 2.559069 0
M  V30 17 C -2.060472 -0.515883 1.538033 0
M  V30 18 C -2.977402 -1.525029 1.745876 0
M  V30 19 C -3.395133 -2.451756 0.815872 0
M  V30 20 C -2.845683 -2.366621 -0.449086 0
M  V30 21 N -3.145603 -3.232985 -1.549624 0
M  V30 22 C -2.659089 -3.267037 -2.901709 0
M  V30 23 C -2.081842 -4.614098 -3.274104 0
M  V30 24 N -2.718380 -5.689615 -2.536261 0
M  V30 25 C -4.107684 -5.269231 -2.356362 0 CFG=1
M  V30 26 C -4.930620 -6.501529 -2.002524 0
M  V30 27 C -4.117742 -4.259997 -1.230559 0
M  V30 28 C -1.925717 -1.356625 -0.663798 0
M  V30 29 N -1.534677 -0.453177 0.285771 0
M  V30 30 N 0.572806 1.086802 2.418535 0
M  V30 31 C 1.589207 1.909178 2.174014 0
M  V30 32 H 3.661239 -1.291408 -0.211988 0
M  V30 33 H 2.314531 -0.853689 0.842806 0
M  V30 34 H 3.191379 0.432968 -0.163305 0
M  V30 35 H 5.159531 0.228518 1.318787 0
M  V30 36 H 4.532061 -1.288020 2.009187 0
M  V30 37 H 2.720220 -0.252067 3.098786 0
M  V30 38 H 4.107721 1.494471 4.525043 0
M  V30 39 H 4.374789 -0.268684 4.602258 0
M  V30 40 H 5.522859 0.677188 3.659626 0
M  V30 41 H 5.600087 2.517873 2.129340 0
M  V30 42 H 4.609415 6.293283 0.764025 0
M  V30 43 H 2.151173 5.741694 0.854192 0
M  V30 44 H -0.192521 4.516047 1.183668 0
M  V30 45 H -2.132144 0.278448 3.489802 0
M  V30 46 H -3.439798 -1.635384 2.725632 0
M  V30 47 H -4.103661 -3.227079 0.986486 0
M  V30 48 H -3.428739 -2.930199 -3.633102 0
M  V30 49 H -1.821655 -2.546281 -2.990053 0
M  V30 50 H -2.325683 -4.793256 -4.344282 0
M  V30 51 H -0.975988 -4.624137 -3.195535 0
M  V30 52 H -2.236481 -5.713139 -1.601471 0
M  V30 53 H -4.473114 -4.771591 -3.277074 0
M  V30 54 H -4.415092 -6.973152 -1.139467 0
M  V30 55 H -4.858474 -7.181144 -2.859120 0
M  V30 56 H -5.949278 -6.193233 -1.768729 0
M  V30 57 H -3.786472 -4.828225 -0.312706 0
M  V30 58 H -5.147270 -3.860334 -1.130968 0
M  V30 59 H -1.402034 -1.145560 -1.585368 0
M  V30 END ATOM
M  V30 BEGIN BOND
M  V30 1 1 1 2
M  V30 2 1 2 3
M  V30 3 1 3 4
M  V30 4 1 3 5
M  V30 5 1 5 6
M  V30 6 2 6 7
M  V30 7 1 7 8
M  V30 8 2 8 9
M  V30 9 1 9 10
M  V30 10 2 10 11
M  V30 11 1 11 12
M  V30 12 2 12 13
M  V30 13 1 13 14
M  V30 14 2 14 15
M  V30 15 1 15 16
M  V30 16 1 16 17
M  V30 17 2 17 18
M  V30 18 1 18 19
M  V30 19 2 19 20
M  V30 20 1 20 21
M  V30 21 1 21 22
M  V30 22 1 22 23
M  V30 23 1 23 24
M  V30 24 1 24 25
M  V30 25 1 25 26
M  V30 26 1 25 27
M  V30 27 1 20 28
M  V30 28 2 28 29
M  V30 29 1 15 30
M  V30 30 2 30 31
M  V30 31 1 31 5
M  V30 32 1 11 6
M  V30 33 1 31 12
M  V30 34 1 29 17
M  V30 35 1 27 21
M  V30 36 1 1 32
M  V30 37 1 1 33
M  V30 38 1 1 34
M  V30 39 1 2 35
M  V30 40 1 2 36
M  V30 41 1 3 37 CFG=1
M  V30 42 1 4 38
M  V30 43 1 4 39
M  V30 44 1 4 40
M  V30 45 1 7 41
M  V30 46 1 9 42
M  V30 47 1 10 43
M  V30 48 1 13 44
M  V30 49 1 16 45
M  V30 50 1 18 46
M  V30 51 1 19 47
M  V30 52 1 22 48
M  V30 53 1 22 49
M  V30 54 1 23 50
M  V30 55 1 23 51
M  V30 56 1 24 52
M  V30 57 1 25 53 CFG=3
M  V30 58 1 26 54
M  V30 59 1 26 55
M  V30 60 1 26 56
M  V30 61 1 27 57
M  V30 62 1 27 58
M  V30 63 1 28 59
M  V30 END BOND
M  V30 END CTAB
M  END
>  <Dataset>  (860) 
ChEMBL_Kinases

>  <Ligand_Instance>  (860) 
nan

>  <PDB_ID>  (860) 
nan

>  <Standardized_SMILES>  (860) 
CC[C@@H](C)n1c2cnccc2c2cnc(Nc3ccc(N4CCN[C@@H](C)C4)cn3)nc21

>  <Name>  (860) 
nan

>  <Pocket>  (860) 
nan

>  <ATP_Site>  (860) 
nan

>  <Peripheral>  (860) 
nan

>  <Num_H_Atoms_ProtBoundConf>  (860) 
nan

>  <Num_Resolved_Atoms>  (860) 
nan

>  <Num_Not_Resolved_Atoms>  (860) 
nan

$$$$
CHEMBL230055
     RDKit          3D

  0  0  0  0  0  0  0  0  0  0999 V3000
M  V30 BEGIN CTAB
M  V30 COUNTS 53 56 0 0 0
M  V30 BEGIN ATOM
M  V30 1 N -1.132348 3.579871 4.610282 0
M  V30 2 C -1.562222 2.560962 3.739999 0
M  V30 3 O -2.707301 2.073859 3.769493 0
M  V30 4 C -0.620822 2.040982 2.745460 0
M  V30 5 C 0.664213 2.527597 2.649393 0
M  V30 6 C 1.517097 2.009268 1.698813 0
M  V30 7 C 2.886579 2.547973 1.617172 0
M  V30 8 C 3.971769 1.771522 1.214065 0
M  V30 9 C 5.244895 2.308064 1.147976 0
M  V30 10 C 5.455251 3.646288 1.488295 0
M  V30 11 F 6.723479 4.131211 1.408870 0
M  V30 12 C 4.380695 4.438944 1.894144 0
M  V30 13 C 3.100501 3.877949 1.954578 0
M  V30 14 C 1.127735 1.020263 0.840916 0
M  V30 15 C -0.177741 0.523092 0.935547 0
M  V30 16 C -0.478611 -0.528944 -0.030193 0
M  V30 17 C -1.631158 -0.606117 -0.784819 0
M  V30 18 C -1.845406 -1.634040 -1.680068 0
M  V30 19 C -0.918467 -2.636950 -1.866389 0
M  V30 20 S -1.121218 -3.968041 -2.980909 0
M  V30 21 O 0.239305 -4.335377 -3.478562 0
M  V30 22 O -1.955174 -3.501400 -4.130985 0
M  V30 23 N -1.895630 -5.301070 -2.203157 0
M  V30 24 C -1.139662 -5.818687 -1.108337 0
M  V30 25 C -1.983859 -5.735298 0.142070 0
M  V30 26 C -3.386271 -5.670000 -0.402389 0
M  V30 27 C -3.205624 -4.977299 -1.736175 0
M  V30 28 C 0.237109 -2.559179 -1.109483 0
M  V30 29 C 0.474799 -1.538612 -0.205573 0
M  V30 30 C -1.034876 1.039367 1.885957 0
M  V30 31 N -2.343598 0.478291 1.914705 0
M  V30 32 H -1.449072 3.728669 5.614051 0
M  V30 33 H -1.459844 3.706169 5.597814 0
M  V30 34 H 1.009515 3.314293 3.315077 0
M  V30 35 H 3.751900 0.738638 0.961274 0
M  V30 36 H 6.082344 1.684257 0.830151 0
M  V30 37 H 4.567800 5.479758 2.154698 0
M  V30 38 H 2.316332 4.552415 2.277699 0
M  V30 39 H 1.860182 0.670577 0.125239 0
M  V30 40 H -2.368556 0.177807 -0.646993 0
M  V30 41 H -2.758129 -1.667283 -2.257728 0
M  V30 42 H -0.146990 -5.356240 -0.975919 0
M  V30 43 H -0.966438 -6.918847 -1.270919 0
M  V30 44 H -1.802913 -4.812912 0.738477 0
M  V30 45 H -1.814167 -6.617394 0.798927 0
M  V30 46 H -3.741508 -6.713991 -0.542078 0
M  V30 47 H -4.053029 -5.082936 0.262163 0
M  V30 48 H -3.381157 -3.888377 -1.602527 0
M  V30 49 H -3.946951 -5.425570 -2.447213 0
M  V30 50 H 1.051976 -3.288767 -1.160849 0
M  V30 51 H 1.394923 -1.488418 0.388328 0
M  V30 52 H -2.182293 -0.386912 2.469597 0
M  V30 53 H -3.261299 0.816596 1.497636 0
M  V30 END ATOM
M  V30 BEGIN BOND
M  V30 1 1 1 2
M  V30 2 2 2 3
M  V30 3 1 2 4
M  V30 4 2 4 5
M  V30 5 1 5 6
M  V30 6 1 6 7
M  V30 7 2 7 8
M  V30 8 1 8 9
M  V30 9 2 9 10
M  V30 10 1 10 11
M  V30 11 1 10 12
M  V30 12 2 12 13
M  V30 13 2 6 14
M  V30 14 1 14 15
M  V30 15 1 15 16
M  V30 16 2 16 17
M  V30 17 1 17 18
M  V30 18 2 18 19
M  V30 19 1 19 20
M  V30 20 2 20 21
M  V30 21 2 20 22
M  V30 22 1 20 23
M  V30 23 1 23 24
M  V30 24 1 24 25
M  V30 25 1 25 26
M  V30 26 1 26 27
M  V30 27 1 19 28
M  V30 28 2 28 29
M  V30 29 2 15 30
M  V30 30 1 30 31
M  V30 31 1 30 4
M  V30 32 1 13 7
M  V30 33 1 29 16
M  V30 34 1 27 23
M  V30 35 1 1 32
M  V30 36 1 1 33
M  V30 37 1 5 34
M  V30 38 1 8 35
M  V30 39 1 9 36
M  V30 40 1 12 37
M  V30 41 1 13 38
M  V30 42 1 14 39
M  V30 43 1 17 40
M  V30 44 1 18 41
M  V30 45 1 24 42
M  V30 46 1 24 43
M  V30 47 1 25 44
M  V30 48 1 25 45
M  V30 49 1 26 46
M  V30 50 1 26 47
M  V30 51 1 27 48
M  V30 52 1 27 49
M  V30 53 1 28 50
M  V30 54 1 29 51
M  V30 55 1 31 52
M  V30 56 1 31 53
M  V30 END BOND
M  V30 END CTAB
M  END
>  <Dataset>  (861) 
ChEMBL_Kinases

>  <Ligand_Instance>  (861) 
nan

>  <PDB_ID>  (861) 
nan

>  <Standardized_SMILES>  (861) 
NC(=O)c1cc(-c2ccc(F)cc2)cc(-c2ccc(S(=O)(=O)N3CCCC3)cc2)c1N

>  <Name>  (861) 
nan

>  <Pocket>  (861) 
nan

>  <ATP_Site>  (861) 
nan

>  <Peripheral>  (861) 
nan

>  <Num_H_Atoms_ProtBoundConf>  (861) 
nan

>  <Num_Resolved_Atoms>  (861) 
nan

>  <Num_Not_Resolved_Atoms>  (861) 
nan

$$$$
CHEMBL3699758
     RDKit          3D

  0  0  0  0  0  0  0  0  0  0999 V3000
M  V30 BEGIN CTAB
M  V30 COUNTS 50 54 0 0 0
M  V30 BEGIN ATOM
M  V30 1 C 0.467994 -7.510959 1.356347 0
M  V30 2 C 1.024475 -6.137180 1.108205 0
M  V30 3 C 2.380396 -5.897694 0.990306 0
M  V30 4 C 2.880201 -4.625405 0.761569 0
M  V30 5 Br 4.741343 -4.340067 0.606525 0
M  V30 6 C 1.926933 -3.633256 0.662835 0
M  V30 7 N 2.169180 -2.312610 0.441819 0
M  V30 8 C 0.980234 -1.647659 0.408247 0
M  V30 9 C 0.868695 -0.209724 0.189902 0
M  V30 10 C 1.491295 0.564673 1.162908 0
M  V30 11 C 1.476019 1.943888 1.099648 0
M  V30 12 C 0.847212 2.620595 0.075761 0
M  V30 13 C 0.702308 4.045687 -0.197363 0
M  V30 14 N 0.943111 4.348880 -1.595984 0
M  V30 15 C -0.498055 4.727376 0.402970 0
M  V30 16 C 0.367397 5.259632 1.554178 0
M  V30 17 C 1.558432 4.957953 0.651041 0
M  V30 18 C 0.226164 1.824180 -0.894093 0
M  V30 19 C 0.222766 0.446570 -0.860671 0
M  V30 20 C 0.003930 -2.600613 0.615253 0
M  V30 21 C -1.405946 -2.342011 0.658012 0
M  V30 22 C -1.817397 -1.490709 1.689896 0
M  V30 23 C -3.157782 -1.170225 1.828835 0
M  V30 24 C -4.107529 -1.663482 0.980878 0
M  V30 25 C -3.708391 -2.511010 -0.048661 0
M  V30 26 C -2.381695 -2.829285 -0.187589 0
M  V30 27 N 0.606528 -3.787833 0.765322 0
M  V30 28 C 0.165465 -5.058476 0.990312 0
M  V30 29 H 1.141297 -8.267735 0.901048 0
M  V30 30 H -0.549001 -7.516689 0.922303 0
M  V30 31 H 0.440752 -7.710487 2.457754 0
M  V30 32 H 3.017123 -6.769017 1.088893 0
M  V30 33 H 2.027493 0.202186 2.029941 0
M  V30 34 H 1.935079 2.603041 1.817145 0
M  V30 35 H 1.984167 4.206222 -1.757458 0
M  V30 36 H 0.786894 5.380035 -1.706444 0
M  V30 37 H -1.296886 4.113917 0.806970 0
M  V30 38 H -0.864003 5.571643 -0.208252 0
M  V30 39 H 0.260152 6.321759 1.772680 0
M  V30 40 H 0.362210 4.633227 2.455139 0
M  V30 41 H 2.386409 4.464516 1.173615 0
M  V30 42 H 1.923086 5.867318 0.131637 0
M  V30 43 H -0.308304 2.192325 -1.758353 0
M  V30 44 H -0.229262 -0.198636 -1.564619 0
M  V30 45 H -1.143854 -1.035884 2.429124 0
M  V30 46 H -3.535471 -0.516129 2.608619 0
M  V30 47 H -5.168422 -1.452235 1.035314 0
M  V30 48 H -4.338574 -2.975152 -0.791023 0
M  V30 49 H -1.995651 -3.489056 -0.973062 0
M  V30 50 H -0.906996 -5.237845 1.081885 0
M  V30 END ATOM
M  V30 BEGIN BOND
M  V30 1 1 1 2
M  V30 2 1 2 3
M  V30 3 2 3 4
M  V30 4 1 4 5
M  V30 5 1 4 6
M  V30 6 2 6 7
M  V30 7 1 7 8
M  V30 8 1 8 9
M  V30 9 2 9 10
M  V30 10 1 10 11
M  V30 11 2 11 12
M  V30 12 1 12 13
M  V30 13 1 13 14
M  V30 14 1 13 15
M  V30 15 1 15 16
M  V30 16 1 16 17
M  V30 17 1 12 18
M  V30 18 2 18 19
M  V30 19 2 8 20
M  V30 20 1 20 21
M  V30 21 2 21 22
M  V30 22 1 22 23
M  V30 23 2 23 24
M  V30 24 1 24 25
M  V30 25 2 25 26
M  V30 26 1 20 27
M  V30 27 1 27 28
M  V30 28 2 28 2
M  V30 29 1 27 6
M  V30 30 1 19 9
M  V30 31 1 26 21
M  V30 32 1 17 13
M  V30 33 1 1 29
M  V30 34 1 1 30
M  V30 35 1 1 31
M  V30 36 1 3 32
M  V30 37 1 10 33
M  V30 38 1 11 34
M  V30 39 1 14 35
M  V30 40 1 14 36
M  V30 41 1 15 37
M  V30 42 1 15 38
M  V30 43 1 16 39
M  V30 44 1 16 40
M  V30 45 1 17 41
M  V30 46 1 17 42
M  V30 47 1 18 43
M  V30 48 1 19 44
M  V30 49 1 22 45
M  V30 50 1 23 46
M  V30 51 1 24 47
M  V30 52 1 25 48
M  V30 53 1 26 49
M  V30 54 1 28 50
M  V30 END BOND
M  V30 END CTAB
M  END
>  <Dataset>  (862) 
ChEMBL_Kinases

>  <Ligand_Instance>  (862) 
nan

>  <PDB_ID>  (862) 
nan

>  <Standardized_SMILES>  (862) 
Cc1cc(Br)c2nc(-c3ccc(C4(N)CCC4)cc3)c(-c3ccccc3)n2c1

>  <Name>  (862) 
nan

>  <Pocket>  (862) 
nan

>  <ATP_Site>  (862) 
nan

>  <Peripheral>  (862) 
nan

>  <Num_H_Atoms_ProtBoundConf>  (862) 
nan

>  <Num_Resolved_Atoms>  (862) 
nan

>  <Num_Not_Resolved_Atoms>  (862) 
nan

$$$$
CHEMBL230184
     RDKit          3D

  0  0  0  0  0  0  0  0  0  0999 V3000
M  V30 BEGIN CTAB
M  V30 COUNTS 38 41 0 0 0
M  V30 BEGIN ATOM
M  V30 1 C -3.247007 0.715189 1.766085 0
M  V30 2 C -2.430479 -0.462039 1.425144 0
M  V30 3 C -2.944544 -1.742582 1.359431 0
M  V30 4 N -1.962220 -2.588901 1.031052 0
M  V30 5 C -0.782707 -1.911971 0.869600 0
M  V30 6 C 0.544781 -2.245234 0.539148 0
M  V30 7 N 0.586172 -3.651718 0.341128 0
M  V30 8 C 0.626832 -5.018613 0.148587 0
M  V30 9 C 1.051142 -5.443141 -1.256914 0
M  V30 10 O 1.043938 -6.844477 -1.301045 0
M  V30 11 N 1.486748 -1.293080 0.469055 0
M  V30 12 C 1.175632 -0.010494 0.712715 0
M  V30 13 C 2.204489 0.891383 0.613172 0
M  V30 14 C 1.890140 2.227582 0.860126 0
M  V30 15 C 2.966061 3.081820 0.739776 0
M  V30 16 C 2.644998 4.428829 0.985901 0
M  V30 17 C 1.384420 4.873611 1.316197 0
M  V30 18 C 0.421208 3.899306 1.396343 0
M  V30 19 C 0.594395 2.549344 1.181877 0
M  V30 20 C -0.373149 1.572470 1.258468 0
M  V30 21 C -0.135668 0.244656 1.028923 0
M  V30 22 N -1.140682 -0.625835 1.124144 0
M  V30 23 H -4.301871 0.341212 1.971091 0
M  V30 24 H -2.984592 1.187609 2.742109 0
M  V30 25 H -3.404396 1.430751 0.931848 0
M  V30 26 H -3.957699 -2.126859 1.526600 0
M  V30 27 H 1.635359 -3.663670 0.109992 0
M  V30 28 H -0.450847 -5.437128 0.206720 0
M  V30 29 H 1.240736 -5.614296 0.877370 0
M  V30 30 H 2.014702 -5.022834 -1.561210 0
M  V30 31 H 0.284134 -5.085994 -1.980080 0
M  V30 32 H 1.878645 -7.132508 -1.769183 0
M  V30 33 H 3.205584 0.564648 0.352999 0
M  V30 34 H 3.957288 2.756751 0.483916 0
M  V30 35 H 3.459560 5.162678 0.907448 0
M  V30 36 H 1.179856 5.916897 1.496078 0
M  V30 37 H -0.598985 4.205963 1.660370 0
M  V30 38 H -1.287254 2.049539 1.517201 0
M  V30 END ATOM
M  V30 BEGIN BOND
M  V30 1 1 1 2
M  V30 2 2 2 3
M  V30 3 1 3 4
M  V30 4 2 4 5
M  V30 5 1 5 6
M  V30 6 1 6 7
M  V30 7 1 7 8
M  V30 8 1 8 9
M  V30 9 1 9 10
M  V30 10 2 6 11
M  V30 11 1 11 12
M  V30 12 2 12 13
M  V30 13 1 13 14
M  V30 14 2 14 15
M  V30 15 1 15 16
M  V30 16 2 16 17
M  V30 17 1 17 18
M  V30 18 2 18 19
M  V30 19 1 19 20
M  V30 20 2 20 21
M  V30 21 1 21 22
M  V30 22 1 22 2
M  V30 23 1 22 5
M  V30 24 1 21 12
M  V30 25 1 19 14
M  V30 26 1 1 23
M  V30 27 1 1 24
M  V30 28 1 1 25
M  V30 29 1 3 26
M  V30 30 1 7 27
M  V30 31 1 8 28
M  V30 32 1 8 29
M  V30 33 1 9 30
M  V30 34 1 9 31
M  V30 35 1 10 32
M  V30 36 1 13 33
M  V30 37 1 15 34
M  V30 38 1 16 35
M  V30 39 1 17 36
M  V30 40 1 18 37
M  V30 41 1 20 38
M  V30 END BOND
M  V30 END CTAB
M  END
>  <Dataset>  (863) 
ChEMBL_Kinases

>  <Ligand_Instance>  (863) 
nan

>  <PDB_ID>  (863) 
nan

>  <Standardized_SMILES>  (863) 
Cc1cnc2c(NCCO)nc3cc4ccccc4cc3n12

>  <Name>  (863) 
nan

>  <Pocket>  (863) 
nan

>  <ATP_Site>  (863) 
nan

>  <Peripheral>  (863) 
nan

>  <Num_H_Atoms_ProtBoundConf>  (863) 
nan

>  <Num_Resolved_Atoms>  (863) 
nan

>  <Num_Not_Resolved_Atoms>  (863) 
nan

$$$$
CHEMBL4536573
     RDKit          3D

  0  0  0  0  0  0  0  0  0  0999 V3000
M  V30 BEGIN CTAB
M  V30 COUNTS 49 52 0 0 0
M  V30 BEGIN ATOM
M  V30 1 N -1.267597 -4.336240 -0.223662 0
M  V30 2 C -2.141039 -3.332531 -0.723112 0
M  V30 3 C -1.808920 -2.110945 -1.271318 0
M  V30 4 C -0.434772 -1.647833 -1.425053 0
M  V30 5 O 0.491065 -2.403485 -1.035145 0
M  V30 6 N -0.121765 -0.381926 -1.996280 0
M  V30 7 C 1.181429 0.189005 -2.202783 0
M  V30 8 C 1.811319 0.718344 -0.967595 0
M  V30 9 C 1.614840 2.041425 -0.570342 0
M  V30 10 C 2.185776 2.568169 0.570924 0
M  V30 11 C 2.988623 1.785674 1.376278 0
M  V30 12 C 3.650823 2.224173 2.604892 0
M  V30 13 O 4.351559 1.434734 3.294291 0
M  V30 14 N 3.521841 3.571161 3.063509 0
M  V30 15 C 4.170404 4.002465 4.268255 0
M  V30 16 C 3.660918 5.059950 5.143328 0
M  V30 17 C 4.903384 5.304560 4.291744 0
M  V30 18 C 3.181657 0.469267 0.977391 0
M  V30 19 C 2.613529 -0.061984 -0.162449 0
M  V30 20 C -2.981207 -1.461622 -1.620596 0
M  V30 21 N -3.999915 -2.287310 -1.284045 0
M  V30 22 N -3.498981 -3.404452 -0.748227 0
M  V30 23 C -4.214162 -4.546940 -0.252443 0
M  V30 24 C -4.880277 -4.337018 0.943923 0
M  V30 25 C -5.602228 -5.391564 1.502681 0
M  V30 26 C -5.641411 -6.623973 0.856491 0
M  V30 27 C -4.955484 -6.786129 -0.344411 0
M  V30 28 C -4.250628 -5.761507 -0.892555 0
M  V30 29 H -0.979533 -4.524075 0.761633 0
M  V30 30 H -0.780883 -5.047619 -0.819143 0
M  V30 31 H -0.981484 0.172366 -2.290496 0
M  V30 32 H 1.109663 0.950028 -3.008016 0
M  V30 33 H 1.904307 -0.572423 -2.622301 0
M  V30 34 H 0.989414 2.702628 -1.170294 0
M  V30 35 H 2.033261 3.587678 0.875042 0
M  V30 36 H 2.959960 4.284473 2.548888 0
M  V30 37 H 4.751656 3.183186 4.780455 0
M  V30 38 H 3.867054 5.007515 6.236367 0
M  V30 39 H 2.821102 5.718957 4.906798 0
M  V30 40 H 4.818007 5.997664 3.427074 0
M  V30 41 H 5.885956 5.392045 4.798157 0
M  V30 42 H 3.811993 -0.178419 1.592223 0
M  V30 43 H 2.816334 -1.096389 -0.400835 0
M  V30 44 H -3.065078 -0.488381 -2.071921 0
M  V30 45 H -4.896237 -3.412089 1.501968 0
M  V30 46 H -6.129828 -5.255059 2.433109 0
M  V30 47 H -6.200826 -7.453125 1.283303 0
M  V30 48 H -4.958802 -7.733493 -0.884977 0
M  V30 49 H -3.711916 -5.836388 -1.805126 0
M  V30 END ATOM
M  V30 BEGIN BOND
M  V30 1 1 1 2
M  V30 2 2 2 3
M  V30 3 1 3 4
M  V30 4 2 4 5
M  V30 5 1 4 6
M  V30 6 1 6 7
M  V30 7 1 7 8
M  V30 8 2 8 9
M  V30 9 1 9 10
M  V30 10 2 10 11
M  V30 11 1 11 12
M  V30 12 2 12 13
M  V30 13 1 12 14
M  V30 14 1 14 15
M  V30 15 1 15 16
M  V30 16 1 16 17
M  V30 17 1 11 18
M  V30 18 2 18 19
M  V30 19 1 3 20
M  V30 20 2 20 21
M  V30 21 1 21 22
M  V30 22 1 22 23
M  V30 23 2 23 24
M  V30 24 1 24 25
M  V30 25 2 25 26
M  V30 26 1 26 27
M  V30 27 2 27 28
M  V30 28 1 22 2
M  V30 29 1 28 23
M  V30 30 1 19 8
M  V30 31 1 17 15
M  V30 32 1 1 29
M  V30 33 1 1 30
M  V30 34 1 6 31
M  V30 35 1 7 32
M  V30 36 1 7 33
M  V30 37 1 9 34
M  V30 38 1 10 35
M  V30 39 1 14 36
M  V30 40 1 15 37
M  V30 41 1 16 38
M  V30 42 1 16 39
M  V30 43 1 17 40
M  V30 44 1 17 41
M  V30 45 1 18 42
M  V30 46 1 19 43
M  V30 47 1 20 44
M  V30 48 1 24 45
M  V30 49 1 25 46
M  V30 50 1 26 47
M  V30 51 1 27 48
M  V30 52 1 28 49
M  V30 END BOND
M  V30 END CTAB
M  END
>  <Dataset>  (864) 
ChEMBL_Kinases

>  <Ligand_Instance>  (864) 
nan

>  <PDB_ID>  (864) 
nan

>  <Standardized_SMILES>  (864) 
Nc1c(C(=O)NCc2ccc(C(=O)NC3CC3)cc2)cnn1-c1ccccc1

>  <Name>  (864) 
nan

>  <Pocket>  (864) 
nan

>  <ATP_Site>  (864) 
nan

>  <Peripheral>  (864) 
nan

>  <Num_H_Atoms_ProtBoundConf>  (864) 
nan

>  <Num_Resolved_Atoms>  (864) 
nan

>  <Num_Not_Resolved_Atoms>  (864) 
nan

$$$$
CHEMBL3699757
     RDKit          3D

  0  0  0  0  0  0  0  0  0  0999 V3000
M  V30 BEGIN CTAB
M  V30 COUNTS 50 54 0 0 0
M  V30 BEGIN ATOM
M  V30 1 C 4.529126 -2.244316 6.197349 0
M  V30 2 C 3.620916 -1.719959 5.117622 0
M  V30 3 C 3.399555 -0.347001 5.143106 0
M  V30 4 Cl 4.130325 0.697646 6.351839 0
M  V30 5 C 2.571837 0.224504 4.180798 0
M  V30 6 N 1.994065 -0.569374 3.232571 0
M  V30 7 C 1.159924 -0.274069 2.197747 0
M  V30 8 C 0.683406 1.052807 1.875062 0
M  V30 9 C 1.693168 1.961934 1.552480 0
M  V30 10 C 1.424555 3.271824 1.218600 0
M  V30 11 C 0.112754 3.696788 1.203296 0
M  V30 12 C -0.903921 2.821626 1.517214 0
M  V30 13 C -0.631206 1.495827 1.855084 0
M  V30 14 C 0.846321 -1.447684 1.510910 0
M  V30 15 C -0.025823 -1.524667 0.339524 0
M  V30 16 C -1.200501 -2.247560 0.295436 0
M  V30 17 C -1.998804 -2.296704 -0.829585 0
M  V30 18 C -1.636098 -1.603523 -1.979996 0
M  V30 19 C -2.540637 -1.714122 -3.118780 0
M  V30 20 N -3.087770 -3.044318 -3.293885 0
M  V30 21 C -3.638030 -0.675503 -3.195902 0
M  V30 22 C -3.463265 -0.683456 -4.703825 0
M  V30 23 C -2.043129 -1.202294 -4.439432 0
M  V30 24 C -0.462036 -0.887712 -1.919331 0
M  V30 25 C 0.346337 -0.831416 -0.796292 0
M  V30 26 N 1.511727 -2.417477 2.166196 0
M  V30 27 C 2.204532 -1.904783 3.201384 0
M  V30 28 C 3.031996 -2.499943 4.157871 0
M  V30 29 Br 3.364246 -4.354029 4.167456 0
M  V30 30 H 5.586553 -2.177125 5.942009 0
M  V30 31 H 4.203818 -3.309142 6.353818 0
M  V30 32 H 4.263523 -1.725674 7.145249 0
M  V30 33 H 2.376113 1.300549 4.171354 0
M  V30 34 H 2.737772 1.707168 1.542043 0
M  V30 35 H 2.190117 3.994831 0.964902 0
M  V30 36 H -0.149831 4.716617 0.947413 0
M  V30 37 H -1.959056 3.076796 1.528331 0
M  V30 38 H -1.368547 0.743049 2.114678 0
M  V30 39 H -1.415662 -2.764256 1.239123 0
M  V30 40 H -2.873427 -2.912387 -0.670568 0
M  V30 41 H -2.361403 -3.729090 -3.615520 0
M  V30 42 H -3.661744 -3.361048 -2.497862 0
M  V30 43 H -4.645750 -1.085309 -2.898069 0
M  V30 44 H -3.429796 0.282113 -2.716014 0
M  V30 45 H -3.500668 0.289284 -5.206979 0
M  V30 46 H -4.059256 -1.474734 -5.203891 0
M  V30 47 H -1.373102 -0.339379 -4.446726 0
M  V30 48 H -1.730932 -2.005725 -5.109733 0
M  V30 49 H -0.176929 -0.354646 -2.794384 0
M  V30 50 H 1.256157 -0.246375 -0.824427 0
M  V30 END ATOM
M  V30 BEGIN BOND
M  V30 1 1 1 2
M  V30 2 1 2 3
M  V30 3 1 3 4
M  V30 4 2 3 5
M  V30 5 1 5 6
M  V30 6 1 6 7
M  V30 7 1 7 8
M  V30 8 2 8 9
M  V30 9 1 9 10
M  V30 10 2 10 11
M  V30 11 1 11 12
M  V30 12 2 12 13
M  V30 13 2 7 14
M  V30 14 1 14 15
M  V30 15 2 15 16
M  V30 16 1 16 17
M  V30 17 2 17 18
M  V30 18 1 18 19
M  V30 19 1 19 20
M  V30 20 1 19 21
M  V30 21 1 21 22
M  V30 22 1 22 23
M  V30 23 1 18 24
M  V30 24 2 24 25
M  V30 25 1 14 26
M  V30 26 2 26 27
M  V30 27 1 27 28
M  V30 28 1 28 29
M  V30 29 2 28 2
M  V30 30 1 27 6
M  V30 31 1 13 8
M  V30 32 1 25 15
M  V30 33 1 23 19
M  V30 34 1 1 30
M  V30 35 1 1 31
M  V30 36 1 1 32
M  V30 37 1 5 33
M  V30 38 1 9 34
M  V30 39 1 10 35
M  V30 40 1 11 36
M  V30 41 1 12 37
M  V30 42 1 13 38
M  V30 43 1 16 39
M  V30 44 1 17 40
M  V30 45 1 20 41
M  V30 46 1 20 42
M  V30 47 1 21 43
M  V30 48 1 21 44
M  V30 49 1 22 45
M  V30 50 1 22 46
M  V30 51 1 23 47
M  V30 52 1 23 48
M  V30 53 1 24 49
M  V30 54 1 25 50
M  V30 END BOND
M  V30 END CTAB
M  END
>  <Dataset>  (865) 
ChEMBL_Kinases

>  <Ligand_Instance>  (865) 
nan

>  <PDB_ID>  (865) 
nan

>  <Standardized_SMILES>  (865) 
Cc1c(Cl)cn2c(-c3ccccc3)c(-c3ccc(C4(N)CCC4)cc3)nc2c1Br

>  <Name>  (865) 
nan

>  <Pocket>  (865) 
nan

>  <ATP_Site>  (865) 
nan

>  <Peripheral>  (865) 
nan

>  <Num_H_Atoms_ProtBoundConf>  (865) 
nan

>  <Num_Resolved_Atoms>  (865) 
nan

>  <Num_Not_Resolved_Atoms>  (865) 
nan

$$$$
CHEMBL230232
     RDKit          3D

  0  0  0  0  0  0  0  0  0  0999 V3000
M  V30 BEGIN CTAB
M  V30 COUNTS 41 44 0 0 0
M  V30 BEGIN ATOM
M  V30 1 N 0.936893 -3.844228 4.880040 0
M  V30 2 C 1.446710 -3.255911 4.023790 0
M  V30 3 C 2.089328 -2.546486 2.954195 0
M  V30 4 C 3.436146 -2.724662 2.672270 0
M  V30 5 N 4.000067 -2.031181 1.650187 0
M  V30 6 C 3.293539 -1.174173 0.899400 0
M  V30 7 C 3.879081 -0.476728 -0.135210 0
M  V30 8 Br 5.728467 -0.695083 -0.553600 0
M  V30 9 C 3.178148 0.405092 -0.917011 0
M  V30 10 C 1.820447 0.642296 -0.700351 0
M  V30 11 N 1.064624 1.541292 -1.498106 0
M  V30 12 C -0.326986 1.914781 -1.391028 0
M  V30 13 C -0.648284 2.649979 -0.141565 0
M  V30 14 C -0.531234 4.042897 -0.101342 0
M  V30 15 N -0.865140 4.539349 1.100390 0
M  V30 16 N -1.190830 3.484620 1.819312 0
M  V30 17 N -1.067266 2.393351 1.107310 0
M  V30 18 C 1.276286 -0.076263 0.343583 0
M  V30 19 C 1.952541 -0.969530 1.148051 0
M  V30 20 C 1.352820 -1.658993 2.178464 0
M  V30 21 N -0.028898 -1.429393 2.412576 0
M  V30 22 C -1.066598 -2.185531 1.791615 0
M  V30 23 C -2.420125 -1.938361 2.040295 0
M  V30 24 C -3.384332 -2.719799 1.395611 0
M  V30 25 C -2.927054 -3.702046 0.540204 0
M  V30 26 F -3.912864 -4.441817 -0.068117 0
M  V30 27 C -1.603442 -3.977375 0.268162 0
M  V30 28 Cl -1.129825 -5.248502 -0.835668 0
M  V30 29 C -0.678255 -3.185967 0.922457 0
M  V30 30 H 4.043055 -3.415805 3.264203 0
M  V30 31 H 3.654566 0.951794 -1.734380 0
M  V30 32 H 1.626374 1.994374 -2.282997 0
M  V30 33 H -0.610243 2.538786 -2.249738 0
M  V30 34 H -0.954235 0.976638 -1.450782 0
M  V30 35 H -0.215899 4.714824 -0.900303 0
M  V30 36 H -0.868515 5.536269 1.404659 0
M  V30 37 H 0.235953 0.019172 0.600701 0
M  V30 38 H -0.284086 -0.659597 3.079961 0
M  V30 39 H -2.685306 -1.159694 2.715782 0
M  V30 40 H -4.440243 -2.554571 1.565943 0
M  V30 41 H 0.377448 -3.369868 0.736117 0
M  V30 END ATOM
M  V30 BEGIN BOND
M  V30 1 3 1 2
M  V30 2 1 2 3
M  V30 3 2 3 4
M  V30 4 1 4 5
M  V30 5 2 5 6
M  V30 6 1 6 7
M  V30 7 1 7 8
M  V30 8 2 7 9
M  V30 9 1 9 10
M  V30 10 1 10 11
M  V30 11 1 11 12
M  V30 12 1 12 13
M  V30 13 2 13 14
M  V30 14 1 14 15
M  V30 15 1 15 16
M  V30 16 2 16 17
M  V30 17 2 10 18
M  V30 18 1 18 19
M  V30 19 2 19 20
M  V30 20 1 20 21
M  V30 21 1 21 22
M  V30 22 2 22 23
M  V30 23 1 23 24
M  V30 24 2 24 25
M  V30 25 1 25 26
M  V30 26 1 25 27
M  V30 27 1 27 28
M  V30 28 2 27 29
M  V30 29 1 20 3
M  V30 30 1 29 22
M  V30 31 1 19 6
M  V30 32 1 17 13
M  V30 33 1 4 30
M  V30 34 1 9 31
M  V30 35 1 11 32
M  V30 36 1 12 33
M  V30 37 1 12 34
M  V30 38 1 14 35
M  V30 39 1 15 36
M  V30 40 1 18 37
M  V30 41 1 21 38
M  V30 42 1 23 39
M  V30 43 1 24 40
M  V30 44 1 29 41
M  V30 END BOND
M  V30 END CTAB
M  END
>  <Dataset>  (866) 
ChEMBL_Kinases

>  <Ligand_Instance>  (866) 
nan

>  <PDB_ID>  (866) 
nan

>  <Standardized_SMILES>  (866) 
N#Cc1cnc2c(Br)cc(NCc3c[nH]nn3)cc2c1Nc1ccc(F)c(Cl)c1

>  <Name>  (866) 
nan

>  <Pocket>  (866) 
nan

>  <ATP_Site>  (866) 
nan

>  <Peripheral>  (866) 
nan

>  <Num_H_Atoms_ProtBoundConf>  (866) 
nan

>  <Num_Resolved_Atoms>  (866) 
nan

>  <Num_Not_Resolved_Atoms>  (866) 
nan

$$$$
CHEMBL4537545
     RDKit          3D

  0  0  0  0  0  0  0  0  0  0999 V3000
M  V30 BEGIN CTAB
M  V30 COUNTS 29 31 0 0 0
M  V30 BEGIN ATOM
M  V30 1 N 0.311763 -4.657503 5.364820 0
M  V30 2 C 0.737332 -4.234909 4.226447 0
M  V30 3 N 1.271751 -2.961363 3.890219 0
M  V30 4 C 1.301283 -2.652989 2.521872 0
M  V30 5 O 1.748964 -1.557446 2.066675 0
M  V30 6 C 0.766845 -3.708553 1.636557 0
M  V30 7 C 0.381567 -3.546733 0.379814 0
M  V30 8 C 0.410051 -2.294784 -0.366630 0
M  V30 9 C 0.770923 -2.030722 -1.678202 0
M  V30 10 C 0.599662 -0.660766 -1.846311 0
M  V30 11 C 0.147218 -0.148155 -0.649421 0
M  V30 12 C -0.151385 1.263959 -0.425089 0
M  V30 13 C 0.006964 2.201716 -1.448920 0
M  V30 14 C -0.268849 3.548895 -1.265936 0
M  V30 15 C -0.705420 3.859787 0.001621 0
M  V30 16 C -0.896650 3.024006 1.077456 0
M  V30 17 C -0.601646 1.698027 0.819737 0
M  V30 18 Cl -0.824908 0.577331 2.156653 0
M  V30 19 O 0.070409 -1.168362 0.139970 0
M  V30 20 S 0.777433 -5.169660 2.680336 0
M  V30 21 H 0.296476 -4.113527 6.228470 0
M  V30 22 H 1.605099 -2.337459 4.658791 0
M  V30 23 H 0.018942 -4.420702 -0.122323 0
M  V30 24 H 1.106453 -2.831103 -2.343907 0
M  V30 25 H 0.815313 -0.200772 -2.785474 0
M  V30 26 H 0.357476 1.872074 -2.427550 0
M  V30 27 H -0.150497 4.280936 -2.048197 0
M  V30 28 H -0.932224 4.921418 0.178132 0
M  V30 29 H -1.247448 3.394959 2.029084 0
M  V30 END ATOM
M  V30 BEGIN BOND
M  V30 1 2 1 2 CFG=2
M  V30 2 1 2 3
M  V30 3 1 3 4
M  V30 4 2 4 5
M  V30 5 1 4 6
M  V30 6 2 6 7
M  V30 7 1 7 8
M  V30 8 2 8 9
M  V30 9 1 9 10
M  V30 10 2 10 11
M  V30 11 1 11 12
M  V30 12 2 12 13
M  V30 13 1 13 14
M  V30 14 2 14 15
M  V30 15 1 15 16
M  V30 16 2 16 17
M  V30 17 1 17 18
M  V30 18 1 11 19
M  V30 19 1 6 20
M  V30 20 1 20 2
M  V30 21 1 19 8
M  V30 22 1 17 12
M  V30 23 1 1 21
M  V30 24 1 3 22
M  V30 25 1 7 23
M  V30 26 1 9 24
M  V30 27 1 10 25
M  V30 28 1 13 26
M  V30 29 1 14 27
M  V30 30 1 15 28
M  V30 31 1 16 29
M  V30 END BOND
M  V30 END CTAB
M  END
>  <Dataset>  (867) 
ChEMBL_Kinases

>  <Ligand_Instance>  (867) 
nan

>  <PDB_ID>  (867) 
nan

>  <Standardized_SMILES>  (867) 
N=C1NC(=O)/C(=C\c2ccc(-c3ccccc3Cl)o2)S1

>  <Name>  (867) 
nan

>  <Pocket>  (867) 
nan

>  <ATP_Site>  (867) 
nan

>  <Peripheral>  (867) 
nan

>  <Num_H_Atoms_ProtBoundConf>  (867) 
nan

>  <Num_Resolved_Atoms>  (867) 
nan

>  <Num_Not_Resolved_Atoms>  (867) 
nan

$$$$
CHEMBL230276
     RDKit          3D

  0  0  0  0  0  0  0  0  0  0999 V3000
M  V30 BEGIN CTAB
M  V30 COUNTS 43 45 0 0 0
M  V30 BEGIN ATOM
M  V30 1 N 4.404146 1.137475 3.521823 0
M  V30 2 C 3.485909 0.078893 3.337987 0
M  V30 3 O 3.861480 -0.745982 4.174827 0
M  V30 4 C 2.418213 0.126661 2.349519 0
M  V30 5 C 2.327242 1.267785 1.584879 0
M  V30 6 C 1.296025 1.275481 0.653165 0
M  V30 7 C 1.194413 2.495617 -0.168436 0
M  V30 8 C -0.069733 2.859234 -0.585062 0
M  V30 9 C -0.200942 3.995382 -1.355337 0
M  V30 10 C 0.923074 4.741287 -1.692563 0
M  V30 11 F 0.782920 5.867969 -2.457735 0
M  V30 12 C 2.183924 4.376855 -1.275903 0
M  V30 13 C 2.285688 3.234943 -0.505905 0
M  V30 14 C 0.431366 0.204628 0.516721 0
M  V30 15 C 0.586598 -0.922216 1.330629 0
M  V30 16 C -0.316464 -2.063477 1.200019 0
M  V30 17 C -0.560542 -2.444467 -0.121340 0
M  V30 18 C -1.390901 -3.508161 -0.473563 0
M  V30 19 C -2.001165 -4.217695 0.553448 0
M  V30 20 S -3.059096 -5.570830 0.200619 0
M  V30 21 N -4.682910 -5.009033 0.020928 0
M  V30 22 O -2.965976 -6.612008 1.282402 0
M  V30 23 O -2.660084 -6.167692 -1.114463 0
M  V30 24 C -1.757990 -3.838535 1.857671 0
M  V30 25 C -0.936477 -2.785999 2.210376 0
M  V30 26 C 1.600510 -0.977883 2.275421 0
M  V30 27 N 1.795929 -2.092231 3.117360 0
M  V30 28 H 5.416860 1.351527 3.504190 0
M  V30 29 H 5.399059 1.438748 3.524777 0
M  V30 30 H 3.019575 2.088828 1.716524 0
M  V30 31 H -0.976284 2.319493 -0.353897 0
M  V30 32 H -1.197391 4.302785 -1.697781 0
M  V30 33 H 3.090602 4.921242 -1.509593 0
M  V30 34 H 3.242182 2.905685 -0.154635 0
M  V30 35 H -0.370231 0.258459 -0.235825 0
M  V30 36 H -0.117765 -1.935599 -0.970750 0
M  V30 37 H -1.563884 -3.782756 -1.491585 0
M  V30 38 H -4.926891 -4.785040 -0.960186 0
M  V30 39 H -4.899810 -4.210129 0.644863 0
M  V30 40 H -2.228555 -4.384496 2.669359 0
M  V30 41 H -0.708665 -2.443726 3.191258 0
M  V30 42 H 2.134768 -2.835280 2.447265 0
M  V30 43 H 1.686240 -2.295124 4.127319 0
M  V30 END ATOM
M  V30 BEGIN BOND
M  V30 1 1 1 2
M  V30 2 2 2 3
M  V30 3 1 2 4
M  V30 4 2 4 5
M  V30 5 1 5 6
M  V30 6 1 6 7
M  V30 7 2 7 8
M  V30 8 1 8 9
M  V30 9 2 9 10
M  V30 10 1 10 11
M  V30 11 1 10 12
M  V30 12 2 12 13
M  V30 13 2 6 14
M  V30 14 1 14 15
M  V30 15 1 15 16
M  V30 16 2 16 17
M  V30 17 1 17 18
M  V30 18 2 18 19
M  V30 19 1 19 20
M  V30 20 1 20 21
M  V30 21 2 20 22
M  V30 22 2 20 23
M  V30 23 1 19 24
M  V30 24 2 24 25
M  V30 25 2 15 26
M  V30 26 1 26 27
M  V30 27 1 26 4
M  V30 28 1 13 7
M  V30 29 1 25 16
M  V30 30 1 1 28
M  V30 31 1 1 29
M  V30 32 1 5 30
M  V30 33 1 8 31
M  V30 34 1 9 32
M  V30 35 1 12 33
M  V30 36 1 13 34
M  V30 37 1 14 35
M  V30 38 1 17 36
M  V30 39 1 18 37
M  V30 40 1 21 38
M  V30 41 1 21 39
M  V30 42 1 24 40
M  V30 43 1 25 41
M  V30 44 1 27 42
M  V30 45 1 27 43
M  V30 END BOND
M  V30 END CTAB
M  END
>  <Dataset>  (868) 
ChEMBL_Kinases

>  <Ligand_Instance>  (868) 
nan

>  <PDB_ID>  (868) 
nan

>  <Standardized_SMILES>  (868) 
NC(=O)c1cc(-c2ccc(F)cc2)cc(-c2ccc(S(N)(=O)=O)cc2)c1N

>  <Name>  (868) 
nan

>  <Pocket>  (868) 
nan

>  <ATP_Site>  (868) 
nan

>  <Peripheral>  (868) 
nan

>  <Num_H_Atoms_ProtBoundConf>  (868) 
nan

>  <Num_Resolved_Atoms>  (868) 
nan

>  <Num_Not_Resolved_Atoms>  (868) 
nan

$$$$
CHEMBL453707
     RDKit          3D

  0  0  0  0  0  0  0  0  0  0999 V3000
M  V30 BEGIN CTAB
M  V30 COUNTS 33 35 0 0 0
M  V30 BEGIN ATOM
M  V30 1 C -1.530378 -3.591021 4.078122 0
M  V30 2 S -1.130995 -4.699687 2.761184 0
M  V30 3 O -1.939584 -5.952077 2.832368 0
M  V30 4 O 0.350340 -5.034248 2.856977 0
M  V30 5 N -1.466326 -3.974759 1.219622 0
M  V30 6 C -0.851341 -2.795508 0.714426 0
M  V30 7 C 0.514255 -2.554075 0.786478 0
M  V30 8 C 1.070393 -1.390392 0.280794 0
M  V30 9 C 0.268656 -0.414652 -0.322709 0
M  V30 10 C 1.005197 0.748568 -0.802628 0
M  V30 11 C 2.183176 0.526993 -1.503787 0
M  V30 12 C 2.912551 1.612505 -1.976937 0
M  V30 13 N 2.523836 2.888997 -1.783961 0
M  V30 14 C 1.381023 3.115492 -1.104104 0
M  V30 15 N 0.725727 4.245903 -0.746187 0
M  V30 16 C -0.405754 3.952233 -0.056537 0
M  V30 17 C -0.455385 2.580593 0.017067 0
M  V30 18 C 0.636505 2.062328 -0.622877 0
M  V30 19 C -1.078691 -0.650997 -0.394733 0
M  V30 20 C -1.626367 -1.812060 0.110832 0
M  V30 21 H -0.630901 -3.052940 4.422188 0
M  V30 22 H -2.056256 -4.116881 4.896964 0
M  V30 23 H -2.242932 -2.813408 3.725955 0
M  V30 24 H -2.171557 -4.372503 0.531040 0
M  V30 25 H 1.089897 -3.340530 1.262933 0
M  V30 26 H 2.136989 -1.346025 0.409486 0
M  V30 27 H 2.572349 -0.444892 -1.706759 0
M  V30 28 H 3.847822 1.557565 -2.537472 0
M  V30 29 H 1.012607 5.247729 -0.950634 0
M  V30 30 H -1.119802 4.648598 0.350556 0
M  V30 31 H -1.241265 2.045922 0.506606 0
M  V30 32 H -1.648879 0.116111 -0.860697 0
M  V30 33 H -2.693931 -1.974953 0.041532 0
M  V30 END ATOM
M  V30 BEGIN BOND
M  V30 1 1 1 2
M  V30 2 2 2 3
M  V30 3 2 2 4
M  V30 4 1 2 5
M  V30 5 1 5 6
M  V30 6 2 6 7
M  V30 7 1 7 8
M  V30 8 2 8 9
M  V30 9 1 9 10
M  V30 10 2 10 11
M  V30 11 1 11 12
M  V30 12 2 12 13
M  V30 13 1 13 14
M  V30 14 1 14 15
M  V30 15 1 15 16
M  V30 16 2 16 17
M  V30 17 1 17 18
M  V30 18 1 9 19
M  V30 19 2 19 20
M  V30 20 1 20 6
M  V30 21 1 18 10
M  V30 22 2 18 14
M  V30 23 1 1 21
M  V30 24 1 1 22
M  V30 25 1 1 23
M  V30 26 1 5 24
M  V30 27 1 7 25
M  V30 28 1 8 26
M  V30 29 1 11 27
M  V30 30 1 12 28
M  V30 31 1 15 29
M  V30 32 1 16 30
M  V30 33 1 17 31
M  V30 34 1 19 32
M  V30 35 1 20 33
M  V30 END BOND
M  V30 END CTAB
M  END
>  <Dataset>  (869) 
ChEMBL_Kinases

>  <Ligand_Instance>  (869) 
nan

>  <PDB_ID>  (869) 
nan

>  <Standardized_SMILES>  (869) 
CS(=O)(=O)Nc1ccc(-c2ccnc3[nH]ccc23)cc1

>  <Name>  (869) 
nan

>  <Pocket>  (869) 
nan

>  <ATP_Site>  (869) 
nan

>  <Peripheral>  (869) 
nan

>  <Num_H_Atoms_ProtBoundConf>  (869) 
nan

>  <Num_Resolved_Atoms>  (869) 
nan

>  <Num_Not_Resolved_Atoms>  (869) 
nan

$$$$
CHEMBL3699756
     RDKit          3D

  0  0  0  0  0  0  0  0  0  0999 V3000
M  V30 BEGIN CTAB
M  V30 COUNTS 47 51 0 0 0
M  V30 BEGIN ATOM
M  V30 1 N -2.204281 -4.250764 2.301415 0
M  V30 2 C -1.273864 -4.444731 1.195115 0
M  V30 3 C -0.646584 -3.200282 0.703877 0
M  V30 4 C -0.632584 -2.662605 -0.567501 0
M  V30 5 C 0.022661 -1.472665 -0.814414 0
M  V30 6 C 0.686678 -0.764761 0.167000 0
M  V30 7 C 1.355377 0.487693 -0.177440 0
M  V30 8 N 2.358125 0.749263 -1.033533 0
M  V30 9 C 2.657038 2.061726 -1.029547 0
M  V30 10 C 3.620626 2.767735 -1.756312 0
M  V30 11 C 3.656955 4.135010 -1.501948 0
M  V30 12 Cl 4.882806 5.012334 -2.430821 0
M  V30 13 C 2.825923 4.764896 -0.614757 0
M  V30 14 Cl 2.994131 6.476307 -0.408062 0
M  V30 15 C 1.886801 4.007992 0.079059 0
M  V30 16 N 1.825079 2.664385 -0.147264 0
M  V30 17 C 1.022657 1.714955 0.382450 0
M  V30 18 C -0.015053 1.955576 1.376956 0
M  V30 19 C -1.379114 1.770648 1.294468 0
M  V30 20 C -2.167845 2.074528 2.386959 0
M  V30 21 C -1.616348 2.557992 3.554601 0
M  V30 22 C -0.247437 2.751129 3.658410 0
M  V30 23 C 0.536134 2.439676 2.546480 0
M  V30 24 C 0.685983 -1.287095 1.455187 0
M  V30 25 C 0.027784 -2.478223 1.692653 0
M  V30 26 C -1.979548 -5.208541 0.103470 0
M  V30 27 C -1.545568 -6.475965 0.854389 0
M  V30 28 C -0.364526 -5.637410 1.363358 0
M  V30 29 H -3.074178 -3.852576 1.840204 0
M  V30 30 H -1.843152 -3.652245 3.055121 0
M  V30 31 H -1.169146 -3.262236 -1.288987 0
M  V30 32 H -0.012885 -1.113657 -1.848702 0
M  V30 33 H 4.284420 2.280462 -2.461227 0
M  V30 34 H 1.238483 4.518541 0.775128 0
M  V30 35 H -1.686308 1.388927 0.331411 0
M  V30 36 H -3.230558 1.906269 2.256358 0
M  V30 37 H -2.253280 2.790733 4.401389 0
M  V30 38 H 0.136824 3.132745 4.595391 0
M  V30 39 H 1.595044 2.635197 2.754745 0
M  V30 40 H 1.200877 -0.741679 2.224514 0
M  V30 41 H 0.085083 -2.802924 2.730023 0
M  V30 42 H -1.430673 -5.236508 -0.877612 0
M  V30 43 H -3.057582 -5.039964 0.056042 0
M  V30 44 H -1.283400 -7.308001 0.200126 0
M  V30 45 H -2.254865 -6.678150 1.674844 0
M  V30 46 H 0.477392 -5.571332 0.648067 0
M  V30 47 H -0.104017 -5.846674 2.420513 0
M  V30 END ATOM
M  V30 BEGIN BOND
M  V30 1 1 1 2
M  V30 2 1 2 3
M  V30 3 2 3 4
M  V30 4 1 4 5
M  V30 5 2 5 6
M  V30 6 1 6 7
M  V30 7 1 7 8
M  V30 8 2 8 9
M  V30 9 1 9 10
M  V30 10 2 10 11
M  V30 11 1 11 12
M  V30 12 1 11 13
M  V30 13 1 13 14
M  V30 14 2 13 15
M  V30 15 1 15 16
M  V30 16 1 16 17
M  V30 17 1 17 18
M  V30 18 2 18 19
M  V30 19 1 19 20
M  V30 20 2 20 21
M  V30 21 1 21 22
M  V30 22 2 22 23
M  V30 23 1 6 24
M  V30 24 2 24 25
M  V30 25 1 2 26
M  V30 26 1 26 27
M  V30 27 1 27 28
M  V30 28 1 28 2
M  V30 29 1 25 3
M  V30 30 2 17 7
M  V30 31 1 23 18
M  V30 32 1 16 9
M  V30 33 1 1 29
M  V30 34 1 1 30
M  V30 35 1 4 31
M  V30 36 1 5 32
M  V30 37 1 10 33
M  V30 38 1 15 34
M  V30 39 1 19 35
M  V30 40 1 20 36
M  V30 41 1 21 37
M  V30 42 1 22 38
M  V30 43 1 23 39
M  V30 44 1 24 40
M  V30 45 1 25 41
M  V30 46 1 26 42
M  V30 47 1 26 43
M  V30 48 1 27 44
M  V30 49 1 27 45
M  V30 50 1 28 46
M  V30 51 1 28 47
M  V30 END BOND
M  V30 END CTAB
M  END
>  <Dataset>  (870) 
ChEMBL_Kinases

>  <Ligand_Instance>  (870) 
nan

>  <PDB_ID>  (870) 
nan

>  <Standardized_SMILES>  (870) 
NC1(c2ccc(-c3nc4cc(Cl)c(Cl)cn4c3-c3ccccc3)cc2)CCC1

>  <Name>  (870) 
nan

>  <Pocket>  (870) 
nan

>  <ATP_Site>  (870) 
nan

>  <Peripheral>  (870) 
nan

>  <Num_H_Atoms_ProtBoundConf>  (870) 
nan

>  <Num_Resolved_Atoms>  (870) 
nan

>  <Num_Not_Resolved_Atoms>  (870) 
nan

$$$$
CHEMBL4536833
     RDKit          3D

  0  0  0  0  0  0  0  0  0  0999 V3000
M  V30 BEGIN CTAB
M  V30 COUNTS 39 41 0 0 0
M  V30 BEGIN ATOM
M  V30 1 O -4.160916 -2.137850 1.344770 0
M  V30 2 C -2.983624 -1.668106 1.344870 0
M  V30 3 N -2.239776 -2.792615 0.772479 0
M  V30 4 C -1.492879 -3.923787 0.196916 0
M  V30 5 C -0.139636 -3.452910 -0.288383 0
M  V30 6 C 0.836263 -3.523090 0.700753 0
M  V30 7 C 2.113580 -3.063170 0.478264 0
M  V30 8 C 2.439509 -2.521568 -0.742131 0
M  V30 9 C 1.477085 -2.450453 -1.728637 0
M  V30 10 O 1.684372 -1.924501 -3.014453 0
M  V30 11 C 0.175660 -2.915354 -1.511130 0
M  V30 12 C -2.063531 -0.523894 1.644199 0
M  V30 13 C -1.888963 0.211375 0.488018 0
M  V30 14 C -0.946533 1.222567 0.556900 0
M  V30 15 C -0.292715 1.392207 1.751322 0
M  V30 16 C 0.788022 2.361753 1.907165 0
M  V30 17 C 1.233498 3.155727 2.937943 0
M  V30 18 C 2.340153 3.928153 2.760805 0
M  V30 19 N 3.099673 4.023178 1.638681 0
M  V30 20 C 2.683425 3.244313 0.587061 0
M  V30 21 C 1.571031 2.454546 0.738868 0
M  V30 22 C -0.512546 0.628558 2.880627 0
M  V30 23 C -1.438127 -0.389144 2.859279 0
M  V30 24 H -1.258914 -2.404502 0.872751 0
M  V30 25 H -2.006213 -4.324112 -0.711038 0
M  V30 26 H -1.407372 -4.695327 0.964970 0
M  V30 27 H 0.654964 -3.926272 1.679158 0
M  V30 28 H 2.910703 -3.091325 1.215148 0
M  V30 29 H 3.428598 -2.136574 -0.978641 0
M  V30 30 H 1.654002 -0.895703 -3.061732 0
M  V30 31 H -0.663047 -2.910236 -2.209432 0
M  V30 32 H -2.413337 0.071437 -0.460261 0
M  V30 33 H -0.721914 1.864093 -0.283325 0
M  V30 34 H 0.574927 3.021517 3.791412 0
M  V30 35 H 2.587241 4.517212 3.641200 0
M  V30 36 H 3.299364 3.327971 -0.299896 0
M  V30 37 H 1.396006 1.906700 -0.192904 0
M  V30 38 H 0.006104 0.764885 3.841354 0
M  V30 39 H -1.737170 -1.066503 3.633163 0
M  V30 END ATOM
M  V30 BEGIN BOND
M  V30 1 2 1 2
M  V30 2 1 2 3
M  V30 3 1 3 4
M  V30 4 1 4 5
M  V30 5 2 5 6
M  V30 6 1 6 7
M  V30 7 2 7 8
M  V30 8 1 8 9
M  V30 9 1 9 10
M  V30 10 2 9 11
M  V30 11 1 2 12
M  V30 12 2 12 13
M  V30 13 1 13 14
M  V30 14 2 14 15
M  V30 15 1 15 16
M  V30 16 2 16 17
M  V30 17 1 17 18
M  V30 18 2 18 19
M  V30 19 1 19 20
M  V30 20 2 20 21
M  V30 21 1 15 22
M  V30 22 2 22 23
M  V30 23 1 11 5
M  V30 24 1 23 12
M  V30 25 1 21 16
M  V30 26 1 3 24
M  V30 27 1 4 25
M  V30 28 1 4 26
M  V30 29 1 6 27
M  V30 30 1 7 28
M  V30 31 1 8 29
M  V30 32 1 10 30
M  V30 33 1 11 31
M  V30 34 1 13 32
M  V30 35 1 14 33
M  V30 36 1 17 34
M  V30 37 1 18 35
M  V30 38 1 20 36
M  V30 39 1 21 37
M  V30 40 1 22 38
M  V30 41 1 23 39
M  V30 END BOND
M  V30 END CTAB
M  END
>  <Dataset>  (871) 
ChEMBL_Kinases

>  <Ligand_Instance>  (871) 
nan

>  <PDB_ID>  (871) 
nan

>  <Standardized_SMILES>  (871) 
O=C(NCc1cccc(O)c1)c1ccc(-c2ccncc2)cc1

>  <Name>  (871) 
nan

>  <Pocket>  (871) 
nan

>  <ATP_Site>  (871) 
nan

>  <Peripheral>  (871) 
nan

>  <Num_H_Atoms_ProtBoundConf>  (871) 
nan

>  <Num_Resolved_Atoms>  (871) 
nan

>  <Num_Not_Resolved_Atoms>  (871) 
nan

$$$$
CHEMBL230488
     RDKit          3D

  0  0  0  0  0  0  0  0  0  0999 V3000
M  V30 BEGIN CTAB
M  V30 COUNTS 43 45 0 0 0
M  V30 BEGIN ATOM
M  V30 1 N 4.630112 0.903893 3.431654 0
M  V30 2 C 3.657471 -0.118646 3.252775 0
M  V30 3 O 4.027322 -0.992718 4.061127 0
M  V30 4 C 2.541938 -0.044575 2.316659 0
M  V30 5 C 2.468287 1.117204 1.578557 0
M  V30 6 C 1.419103 1.212178 0.684009 0
M  V30 7 C 1.293728 2.419884 -0.122274 0
M  V30 8 C 0.050279 2.843237 -0.496101 0
M  V30 9 C -0.038370 3.988524 -1.258845 0
M  V30 10 C 1.061089 4.726580 -1.662567 0
M  V30 11 Cl 0.852560 6.172642 -2.633002 0
M  V30 12 C 2.296974 4.253360 -1.256385 0
M  V30 13 C 2.409352 3.111131 -0.493869 0
M  V30 14 C 0.514762 0.174005 0.567744 0
M  V30 15 C 0.646650 -0.980660 1.348229 0
M  V30 16 C -0.332975 -2.062334 1.197011 0
M  V30 17 C -0.604044 -2.337544 -0.147440 0
M  V30 18 C -1.514726 -3.340737 -0.437716 0
M  V30 19 C -2.146179 -4.058440 0.555252 0
M  V30 20 S -3.296001 -5.324785 0.184165 0
M  V30 21 N -4.910959 -4.734445 0.064798 0
M  V30 22 O -3.204748 -6.383035 1.252502 0
M  V30 23 O -2.872889 -5.980265 -1.103758 0
M  V30 24 C -1.860042 -3.766275 1.887411 0
M  V30 25 C -0.945475 -2.759586 2.218617 0
M  V30 26 C 1.688227 -1.113500 2.258812 0
M  V30 27 N 1.852061 -2.265550 3.063247 0
M  V30 28 H 5.084845 0.970904 2.492794 0
M  V30 29 H 4.823774 1.451472 4.322623 0
M  V30 30 H 3.184535 1.920660 1.681679 0
M  V30 31 H -0.835267 2.277989 -0.189957 0
M  V30 32 H -1.014317 4.314965 -1.548509 0
M  V30 33 H 3.135369 4.874024 -1.602384 0
M  V30 34 H 3.382509 2.789740 -0.207767 0
M  V30 35 H -0.287062 0.301331 -0.148078 0
M  V30 36 H -0.166343 -1.837149 -0.986769 0
M  V30 37 H -1.749924 -3.582143 -1.453922 0
M  V30 38 H -5.138631 -4.403680 -0.894411 0
M  V30 39 H -5.082594 -3.918142 0.703526 0
M  V30 40 H -2.312413 -4.282843 2.721375 0
M  V30 41 H -0.671821 -2.474906 3.205619 0
M  V30 42 H 2.357659 -2.941532 2.448940 0
M  V30 43 H 1.581141 -2.499612 4.033421 0
M  V30 END ATOM
M  V30 BEGIN BOND
M  V30 1 1 1 2
M  V30 2 2 2 3
M  V30 3 1 2 4
M  V30 4 2 4 5
M  V30 5 1 5 6
M  V30 6 1 6 7
M  V30 7 2 7 8
M  V30 8 1 8 9
M  V30 9 2 9 10
M  V30 10 1 10 11
M  V30 11 1 10 12
M  V30 12 2 12 13
M  V30 13 2 6 14
M  V30 14 1 14 15
M  V30 15 1 15 16
M  V30 16 2 16 17
M  V30 17 1 17 18
M  V30 18 2 18 19
M  V30 19 1 19 20
M  V30 20 1 20 21
M  V30 21 2 20 22
M  V30 22 2 20 23
M  V30 23 1 19 24
M  V30 24 2 24 25
M  V30 25 2 15 26
M  V30 26 1 26 27
M  V30 27 1 26 4
M  V30 28 1 13 7
M  V30 29 1 25 16
M  V30 30 1 1 28
M  V30 31 1 1 29
M  V30 32 1 5 30
M  V30 33 1 8 31
M  V30 34 1 9 32
M  V30 35 1 12 33
M  V30 36 1 13 34
M  V30 37 1 14 35
M  V30 38 1 17 36
M  V30 39 1 18 37
M  V30 40 1 21 38
M  V30 41 1 21 39
M  V30 42 1 24 40
M  V30 43 1 25 41
M  V30 44 1 27 42
M  V30 45 1 27 43
M  V30 END BOND
M  V30 END CTAB
M  END
>  <Dataset>  (872) 
ChEMBL_Kinases

>  <Ligand_Instance>  (872) 
nan

>  <PDB_ID>  (872) 
nan

>  <Standardized_SMILES>  (872) 
NC(=O)c1cc(-c2ccc(Cl)cc2)cc(-c2ccc(S(N)(=O)=O)cc2)c1N

>  <Name>  (872) 
nan

>  <Pocket>  (872) 
nan

>  <ATP_Site>  (872) 
nan

>  <Peripheral>  (872) 
nan

>  <Num_H_Atoms_ProtBoundConf>  (872) 
nan

>  <Num_Resolved_Atoms>  (872) 
nan

>  <Num_Not_Resolved_Atoms>  (872) 
nan

$$$$
CHEMBL4536763
     RDKit          3D

  0  0  0  0  0  0  0  0  0  0999 V3000
M  V30 BEGIN CTAB
M  V30 COUNTS 59 61 0 0 0
M  V30 BEGIN ATOM
M  V30 1 C 0.139879 -2.678785 4.676381 0
M  V30 2 C 0.499204 -1.355410 4.101092 0
M  V30 3 C 1.258734 -0.423948 4.800663 0
M  V30 4 C 1.592462 0.820705 4.249625 0
M  V30 5 C 1.167691 1.152201 2.982233 0
M  V30 6 C 1.540850 2.457839 2.450897 0
M  V30 7 O 2.246610 3.180640 3.235431 0
M  V30 8 N 1.181684 2.963459 1.156452 0
M  V30 9 C 1.624500 4.278926 0.764659 0 CFG=1
M  V30 10 C 2.642025 4.319776 -0.325305 0
M  V30 11 C 2.257331 3.733184 -1.632663 0
M  V30 12 C 1.903891 2.285746 -1.638856 0
M  V30 13 C 3.444074 3.927001 -2.590360 0
M  V30 14 C 0.483800 5.187072 0.477987 0
M  V30 15 N -0.890421 4.879296 0.556614 0
M  V30 16 O 0.789119 6.376177 0.121567 0
M  V30 17 C 0.421738 0.212028 2.321056 0
M  V30 18 C 0.080404 -1.001608 2.823801 0
M  V30 19 N -0.696053 -1.952950 2.106109 0
M  V30 20 C -2.062662 -2.231286 1.983345 0
M  V30 21 O -2.969082 -1.600071 2.568717 0
M  V30 22 C -2.402427 -3.352249 1.093372 0
M  V30 23 C -3.605619 -3.829930 0.795987 0
M  V30 24 C -3.737330 -4.876818 -0.049195 0
M  V30 25 C -2.596732 -5.393021 -0.558936 0
M  V30 26 C -2.363853 -6.539582 -1.514182 0
M  V30 27 C -3.401147 -7.297107 -2.050778 0
M  V30 28 C -3.033640 -8.311305 -2.909077 0
M  V30 29 C -1.717710 -8.574766 -3.229216 0
M  V30 30 C -0.705771 -7.821248 -2.693802 0
M  V30 31 C -1.047552 -6.799668 -1.831560 0
M  V30 32 Cl 0.288100 -5.864460 -1.173663 0
M  V30 33 S -1.298817 -4.377405 0.170566 0
M  V30 34 H 0.182913 -3.439037 3.841895 0
M  V30 35 H 0.894815 -2.952807 5.440175 0
M  V30 36 H -0.848528 -2.676321 5.152226 0
M  V30 37 H 1.582156 -0.694272 5.783880 0
M  V30 38 H 2.189139 1.456936 4.897495 0
M  V30 39 H 0.606479 2.249659 0.667590 0
M  V30 40 H 2.145761 4.715800 1.672297 0
M  V30 41 H 2.850458 5.415164 -0.518248 0
M  V30 42 H 3.618985 3.940499 0.056135 0
M  V30 43 H 1.410407 4.373917 -2.029326 0
M  V30 44 H 0.796547 2.180473 -1.688514 0
M  V30 45 H 2.311712 1.815232 -2.588361 0
M  V30 46 H 2.347752 1.696177 -0.834823 0
M  V30 47 H 3.205073 3.394046 -3.548085 0
M  V30 48 H 3.547302 4.993237 -2.854483 0
M  V30 49 H 4.352701 3.466442 -2.189302 0
M  V30 50 H -1.752037 4.448843 0.130095 0
M  V30 51 H -1.280051 5.239372 1.475205 0
M  V30 52 H 0.070986 0.419152 1.343134 0
M  V30 53 H 0.076236 -2.485022 1.612136 0
M  V30 54 H -4.513267 -3.376020 1.236697 0
M  V30 55 H -4.652685 -5.365662 -0.378068 0
M  V30 56 H -4.366446 -6.989630 -1.722480 0
M  V30 57 H -3.883398 -8.873422 -3.300821 0
M  V30 58 H -1.575468 -9.409224 -3.922947 0
M  V30 59 H 0.318046 -8.050901 -2.962916 0
M  V30 END ATOM
M  V30 BEGIN BOND
M  V30 1 1 1 2
M  V30 2 2 2 3
M  V30 3 1 3 4
M  V30 4 2 4 5
M  V30 5 1 5 6
M  V30 6 2 6 7
M  V30 7 1 6 8
M  V30 8 1 8 9
M  V30 9 1 9 10
M  V30 10 1 10 11
M  V30 11 1 11 12
M  V30 12 1 11 13
M  V30 13 1 9 14
M  V30 14 1 14 15
M  V30 15 2 14 16
M  V30 16 1 5 17
M  V30 17 2 17 18
M  V30 18 1 18 19
M  V30 19 1 19 20
M  V30 20 2 20 21
M  V30 21 1 20 22
M  V30 22 2 22 23
M  V30 23 1 23 24
M  V30 24 2 24 25
M  V30 25 1 25 26
M  V30 26 2 26 27
M  V30 27 1 27 28
M  V30 28 2 28 29
M  V30 29 1 29 30
M  V30 30 2 30 31
M  V30 31 1 31 32
M  V30 32 1 25 33
M  V30 33 1 18 2
M  V30 34 1 33 22
M  V30 35 1 31 26
M  V30 36 1 1 34
M  V30 37 1 1 35
M  V30 38 1 1 36
M  V30 39 1 3 37
M  V30 40 1 4 38
M  V30 41 1 8 39
M  V30 42 1 9 40 CFG=1
M  V30 43 1 10 41
M  V30 44 1 10 42
M  V30 45 1 11 43
M  V30 46 1 12 44
M  V30 47 1 12 45
M  V30 48 1 12 46
M  V30 49 1 13 47
M  V30 50 1 13 48
M  V30 51 1 13 49
M  V30 52 1 15 50
M  V30 53 1 15 51
M  V30 54 1 17 52
M  V30 55 1 19 53
M  V30 56 1 23 54
M  V30 57 1 24 55
M  V30 58 1 27 56
M  V30 59 1 28 57
M  V30 60 1 29 58
M  V30 61 1 30 59
M  V30 END BOND
M  V30 END CTAB
M  END
>  <Dataset>  (873) 
ChEMBL_Kinases

>  <Ligand_Instance>  (873) 
nan

>  <PDB_ID>  (873) 
nan

>  <Standardized_SMILES>  (873) 
Cc1ccc(C(=O)N[C@@H](CC(C)C)C(N)=O)cc1NC(=O)c1ccc(-c2ccccc2Cl)s1

>  <Name>  (873) 
nan

>  <Pocket>  (873) 
nan

>  <ATP_Site>  (873) 
nan

>  <Peripheral>  (873) 
nan

>  <Num_H_Atoms_ProtBoundConf>  (873) 
nan

>  <Num_Resolved_Atoms>  (873) 
nan

>  <Num_Not_Resolved_Atoms>  (873) 
nan

$$$$
CHEMBL230185
     RDKit          3D

  0  0  0  0  0  0  0  0  0  0999 V3000
M  V30 BEGIN CTAB
M  V30 COUNTS 52 56 0 0 0
M  V30 BEGIN ATOM
M  V30 1 C -0.667253 -4.813762 3.176814 0
M  V30 2 C 0.319061 -4.124373 2.328956 0
M  V30 3 C 1.703313 -4.356143 2.339388 0
M  V30 4 N 2.337782 -3.573306 1.451076 0
M  V30 5 C 1.390833 -2.828250 0.854867 0
M  V30 6 C 1.575973 -1.882641 -0.126793 0
M  V30 7 N 2.875683 -1.580294 -0.683303 0
M  V30 8 C 2.917726 -0.553698 -1.688740 0
M  V30 9 C 3.007328 0.850396 -1.239442 0
M  V30 10 N 2.069323 1.406439 -0.379761 0
M  V30 11 C 2.030042 1.035862 0.982204 0
M  V30 12 C 2.352598 2.294478 1.811720 0
M  V30 13 C 1.191329 3.225999 1.566557 0
M  V30 14 C 0.928962 3.519816 0.129021 0
M  V30 15 C 1.159912 2.384505 -0.817421 0
M  V30 16 N 0.452152 -1.275370 -0.558475 0
M  V30 17 C -0.771141 -1.557371 -0.078266 0
M  V30 18 C -1.835778 -0.856958 -0.606264 0
M  V30 19 C -3.077547 -1.187225 -0.068498 0
M  V30 20 C -4.140023 -0.484132 -0.595958 0
M  V30 21 C -5.434107 -0.726946 -0.133123 0
M  V30 22 C -5.598181 -1.679269 0.851835 0
M  V30 23 C -4.526041 -2.372920 1.368128 0
M  V30 24 C -3.220092 -2.142629 0.916312 0
M  V30 25 C -2.098173 -2.796046 1.387415 0
M  V30 26 C -0.844911 -2.521690 0.904004 0
M  V30 27 N 0.211675 -3.175323 1.392646 0
M  V30 28 H -0.060357 -5.541501 3.807004 0
M  V30 29 H -1.354694 -5.493036 2.631461 0
M  V30 30 H -1.148342 -4.179379 3.947960 0
M  V30 31 H 2.262471 -5.067150 2.963167 0
M  V30 32 H 3.666388 -2.134779 -0.304148 0
M  V30 33 H 1.991766 -0.707850 -2.330957 0
M  V30 34 H 3.742889 -0.758870 -2.441269 0
M  V30 35 H 3.023596 1.477274 -2.184632 0
M  V30 36 H 4.040749 0.979307 -0.805874 0
M  V30 37 H 2.848383 0.340772 1.225137 0
M  V30 38 H 1.035647 0.674431 1.282710 0
M  V30 39 H 2.363185 1.992698 2.862493 0
M  V30 40 H 3.324918 2.685581 1.473774 0
M  V30 41 H 0.323843 2.866801 2.142922 0
M  V30 42 H 1.490911 4.204955 2.051180 0
M  V30 43 H -0.149046 3.813403 0.058417 0
M  V30 44 H 1.473849 4.452571 -0.186566 0
M  V30 45 H 1.523814 2.838232 -1.772142 0
M  V30 46 H 0.174098 1.916718 -1.084040 0
M  V30 47 H -1.656760 -0.119892 -1.377088 0
M  V30 48 H -4.001234 0.260224 -1.367253 0
M  V30 49 H -6.226963 -0.142856 -0.586620 0
M  V30 50 H -6.603446 -1.864683 1.209503 0
M  V30 51 H -4.654168 -3.120512 2.143701 0
M  V30 52 H -2.377603 -3.498149 2.139947 0
M  V30 END ATOM
M  V30 BEGIN BOND
M  V30 1 1 1 2
M  V30 2 2 2 3
M  V30 3 1 3 4
M  V30 4 2 4 5
M  V30 5 1 5 6
M  V30 6 1 6 7
M  V30 7 1 7 8
M  V30 8 1 8 9
M  V30 9 1 9 10
M  V30 10 1 10 11
M  V30 11 1 11 12
M  V30 12 1 12 13
M  V30 13 1 13 14
M  V30 14 1 14 15
M  V30 15 2 6 16
M  V30 16 1 16 17
M  V30 17 2 17 18
M  V30 18 1 18 19
M  V30 19 2 19 20
M  V30 20 1 20 21
M  V30 21 2 21 22
M  V30 22 1 22 23
M  V30 23 2 23 24
M  V30 24 1 24 25
M  V30 25 2 25 26
M  V30 26 1 26 27
M  V30 27 1 27 2
M  V30 28 1 27 5
M  V30 29 1 15 10
M  V30 30 1 26 17
M  V30 31 1 24 19
M  V30 32 1 1 28
M  V30 33 1 1 29
M  V30 34 1 1 30
M  V30 35 1 3 31
M  V30 36 1 7 32
M  V30 37 1 8 33
M  V30 38 1 8 34
M  V30 39 1 9 35
M  V30 40 1 9 36
M  V30 41 1 11 37
M  V30 42 1 11 38
M  V30 43 1 12 39
M  V30 44 1 12 40
M  V30 45 1 13 41
M  V30 46 1 13 42
M  V30 47 1 14 43
M  V30 48 1 14 44
M  V30 49 1 15 45
M  V30 50 1 15 46
M  V30 51 1 18 47
M  V30 52 1 20 48
M  V30 53 1 21 49
M  V30 54 1 22 50
M  V30 55 1 23 51
M  V30 56 1 25 52
M  V30 END BOND
M  V30 END CTAB
M  END
>  <Dataset>  (874) 
ChEMBL_Kinases

>  <Ligand_Instance>  (874) 
nan

>  <PDB_ID>  (874) 
nan

>  <Standardized_SMILES>  (874) 
Cc1cnc2c(NCCN3CCCCC3)nc3cc4ccccc4cc3n12

>  <Name>  (874) 
nan

>  <Pocket>  (874) 
nan

>  <ATP_Site>  (874) 
nan

>  <Peripheral>  (874) 
nan

>  <Num_H_Atoms_ProtBoundConf>  (874) 
nan

>  <Num_Resolved_Atoms>  (874) 
nan

>  <Num_Not_Resolved_Atoms>  (874) 
nan

$$$$
CHEMBL4458667
     RDKit          3D

  0  0  0  0  0  0  0  0  0  0999 V3000
M  V30 BEGIN CTAB
M  V30 COUNTS 55 58 0 0 0
M  V30 BEGIN ATOM
M  V30 1 C 7.453689 -0.847524 5.402827 0
M  V30 2 C 6.216075 -1.673654 5.260705 0
M  V30 3 C 5.171497 -1.055992 4.449943 0
M  V30 4 C 5.120111 -1.268046 3.088338 0
M  V30 5 C 4.153373 -0.707251 2.278844 0
M  V30 6 C 3.184778 0.105220 2.834003 0
M  V30 7 C 2.109242 0.762405 2.114937 0
M  V30 8 O 1.221909 1.507318 2.649531 0
M  V30 9 N 1.923374 0.645534 0.709154 0
M  V30 10 C 0.857130 1.299887 0.014684 0
M  V30 11 C 1.206336 2.574764 -0.422289 0
M  V30 12 C 0.292357 3.369080 -1.122278 0
M  V30 13 C -0.976534 2.862687 -1.376004 0
M  V30 14 C -1.287394 1.589792 -0.925503 0
M  V30 15 N -2.590003 1.075374 -1.189303 0
M  V30 16 C -3.649565 1.282534 -0.263064 0
M  V30 17 O -3.393882 1.942528 0.803848 0
M  V30 18 C -5.054917 0.889596 -0.249661 0
M  V30 19 O -5.510223 0.156069 -1.339456 0
M  V30 20 C -5.089113 -1.067935 -1.778461 0
M  V30 21 C -5.820417 -1.431498 -2.917520 0
M  V30 22 C -5.591348 -2.644905 -3.573600 0
M  V30 23 C -4.628850 -3.503867 -3.095038 0
M  V30 24 C -4.308233 -4.731141 -3.653786 0
M  V30 25 O -4.943667 -5.085889 -4.673049 0
M  V30 26 C -3.314271 -5.505743 -3.073849 0
M  V30 27 C -2.643631 -5.080516 -1.959221 0
M  V30 28 O -2.975096 -3.911158 -1.457380 0
M  V30 29 C -3.905298 -3.155941 -1.977027 0
M  V30 30 C -4.134962 -1.959610 -1.334690 0
M  V30 31 C -0.404888 0.805699 -0.241874 0
M  V30 32 C 3.211886 0.335444 4.197640 0
M  V30 33 C 4.194522 -0.236672 5.008915 0
M  V30 34 H 7.560572 -0.236278 4.477697 0
M  V30 35 H 7.288179 -0.114103 6.219318 0
M  V30 36 H 8.360989 -1.443335 5.608095 0
M  V30 37 H 5.786378 -1.791198 6.298733 0
M  V30 38 H 6.463187 -2.713659 4.942773 0
M  V30 39 H 5.863039 -1.900617 2.612175 0
M  V30 40 H 4.094888 -0.860515 1.209301 0
M  V30 41 H 2.590277 0.054320 0.141171 0
M  V30 42 H 2.152413 3.089325 -0.294225 0
M  V30 43 H 0.493038 4.357547 -1.487341 0
M  V30 44 H -1.729300 3.425191 -1.911782 0
M  V30 45 H -2.902456 0.543547 -2.005704 0
M  V30 46 H -5.673947 1.819358 -0.158548 0
M  V30 47 H -5.284265 0.298329 0.685508 0
M  V30 48 H -6.610186 -0.867681 -3.417581 0
M  V30 49 H -6.114909 -2.977274 -4.444309 0
M  V30 50 H -3.077927 -6.463469 -3.526208 0
M  V30 51 H -1.855022 -5.685048 -1.491494 0
M  V30 52 H -3.637697 -1.560197 -0.444093 0
M  V30 53 H -0.586322 -0.178189 0.128655 0
M  V30 54 H 2.481266 0.965083 4.708716 0
M  V30 55 H 4.188903 -0.038661 6.066074 0
M  V30 END ATOM
M  V30 BEGIN BOND
M  V30 1 1 1 2
M  V30 2 1 2 3
M  V30 3 2 3 4
M  V30 4 1 4 5
M  V30 5 2 5 6
M  V30 6 1 6 7
M  V30 7 2 7 8
M  V30 8 1 7 9
M  V30 9 1 9 10
M  V30 10 2 10 11
M  V30 11 1 11 12
M  V30 12 2 12 13
M  V30 13 1 13 14
M  V30 14 1 14 15
M  V30 15 1 15 16
M  V30 16 2 16 17
M  V30 17 1 16 18
M  V30 18 1 18 19
M  V30 19 1 19 20
M  V30 20 2 20 21
M  V30 21 1 21 22
M  V30 22 2 22 23
M  V30 23 1 23 24
M  V30 24 2 24 25
M  V30 25 1 24 26
M  V30 26 2 26 27
M  V30 27 1 27 28
M  V30 28 1 28 29
M  V30 29 2 29 30
M  V30 30 2 14 31
M  V30 31 1 6 32
M  V30 32 2 32 33
M  V30 33 1 33 3
M  V30 34 1 31 10
M  V30 35 1 30 20
M  V30 36 1 29 23
M  V30 37 1 1 34
M  V30 38 1 1 35
M  V30 39 1 1 36
M  V30 40 1 2 37
M  V30 41 1 2 38
M  V30 42 1 4 39
M  V30 43 1 5 40
M  V30 44 1 9 41
M  V30 45 1 11 42
M  V30 46 1 12 43
M  V30 47 1 13 44
M  V30 48 1 15 45
M  V30 49 1 18 46
M  V30 50 1 18 47
M  V30 51 1 21 48
M  V30 52 1 22 49
M  V30 53 1 26 50
M  V30 54 1 27 51
M  V30 55 1 30 52
M  V30 56 1 31 53
M  V30 57 1 32 54
M  V30 58 1 33 55
M  V30 END BOND
M  V30 END CTAB
M  END
>  <Dataset>  (875) 
ChEMBL_Kinases

>  <Ligand_Instance>  (875) 
nan

>  <PDB_ID>  (875) 
nan

>  <Standardized_SMILES>  (875) 
CCc1ccc(C(=O)Nc2cccc(NC(=O)COc3ccc4c(=O)ccoc4c3)c2)cc1

>  <Name>  (875) 
nan

>  <Pocket>  (875) 
nan

>  <ATP_Site>  (875) 
nan

>  <Peripheral>  (875) 
nan

>  <Num_H_Atoms_ProtBoundConf>  (875) 
nan

>  <Num_Resolved_Atoms>  (875) 
nan

>  <Num_Not_Resolved_Atoms>  (875) 
nan

$$$$
CHEMBL2392825
     RDKit          3D

  0  0  0  0  0  0  0  0  0  0999 V3000
M  V30 BEGIN CTAB
M  V30 COUNTS 71 75 0 0 0
M  V30 BEGIN ATOM
M  V30 1 C 3.502955 -3.889109 0.602608 0
M  V30 2 S 3.764504 -3.718153 -1.144426 0
M  V30 3 O 5.147178 -4.216531 -1.460590 0
M  V30 4 O 2.697545 -4.454545 -1.905963 0
M  V30 5 N 3.619657 -2.037806 -1.551360 0
M  V30 6 C 4.635679 -1.276344 -0.851796 0 CFG=1
M  V30 7 C 5.635219 -0.618708 -1.741290 0
M  V30 8 C 5.180752 0.646770 -2.396082 0
M  V30 9 C 3.871250 1.084091 -1.787262 0 CFG=2
M  V30 10 N 3.541887 2.454557 -2.124622 0
M  V30 11 C 2.352458 3.105813 -1.688954 0
M  V30 12 N 2.105890 4.383115 -2.035050 0
M  V30 13 C 0.995348 5.034966 -1.646831 0
M  V30 14 C 0.053355 4.400345 -0.864335 0
M  V30 15 C 0.287097 3.094318 -0.499969 0
M  V30 16 N -0.496276 2.200541 0.289379 0
M  V30 17 C -0.549713 1.976611 1.617429 0
M  V30 18 C -1.478047 1.000235 1.888376 0
M  V30 19 C -2.017494 0.606149 0.689762 0
M  V30 20 C -2.981103 -0.329952 0.364968 0
M  V30 21 N -3.640995 -1.129580 1.368590 0
M  V30 22 C -4.474089 -0.853277 2.537935 0
M  V30 23 C -5.734032 -1.687294 2.515395 0
M  V30 24 C -5.514791 -3.064018 1.983063 0
M  V30 25 S -6.500005 -4.311109 2.752710 0
M  V30 26 C -6.063320 -4.371495 4.484276 0
M  V30 27 O -7.948834 -3.976141 2.644547 0
M  V30 28 O -6.208382 -5.612562 2.064880 0
M  V30 29 C -4.051351 -3.469178 2.014853 0
M  V30 30 C -3.348919 -2.537799 1.060150 0
M  V30 31 C -3.342924 -0.525836 -0.972834 0
M  V30 32 C -2.732461 0.219766 -1.960061 0
M  V30 33 C -1.772602 1.149686 -1.617972 0
M  V30 34 C -1.392571 1.365174 -0.288223 0
M  V30 35 N 1.435467 2.518288 -0.938773 0
M  V30 36 C 4.087023 1.041844 -0.277973 0
M  V30 37 C 3.972819 -0.389416 0.145190 0
M  V30 38 H 3.001510 -2.987380 0.994052 0
M  V30 39 H 2.794442 -4.733103 0.836740 0
M  V30 40 H 4.432888 -4.110111 1.161817 0
M  V30 41 H 3.669654 -1.896814 -2.588179 0
M  V30 42 H 5.206441 -2.046166 -0.254821 0
M  V30 43 H 5.893912 -1.381515 -2.530828 0
M  V30 44 H 6.593302 -0.488475 -1.160938 0
M  V30 45 H 5.974424 1.427843 -2.209936 0
M  V30 46 H 5.126999 0.527134 -3.491399 0
M  V30 47 H 3.085811 0.385872 -2.129356 0
M  V30 48 H 4.220831 2.978387 -2.717858 0
M  V30 49 H 0.756319 6.054919 -1.898984 0
M  V30 50 H -0.884570 4.776287 -0.469968 0
M  V30 51 H 0.071628 2.517956 2.314350 0
M  V30 52 H -1.733687 0.613903 2.878805 0
M  V30 53 H -3.885886 -0.999862 3.461439 0
M  V30 54 H -4.785384 0.211052 2.519647 0
M  V30 55 H -6.075398 -1.779309 3.560449 0
M  V30 56 H -6.502890 -1.126773 1.944386 0
M  V30 57 H -5.809353 -3.052481 0.904520 0
M  V30 58 H -6.288958 -5.386727 4.886888 0
M  V30 59 H -4.990912 -4.187555 4.536524 0
M  V30 60 H -6.646968 -3.580580 4.984926 0
M  V30 61 H -3.659582 -3.428942 3.032622 0
M  V30 62 H -3.927013 -4.490102 1.603295 0
M  V30 63 H -3.773205 -2.718336 0.047522 0
M  V30 64 H -2.268831 -2.683191 1.020600 0
M  V30 65 H -4.074160 -1.224865 -1.304373 0
M  V30 66 H -2.984705 0.099166 -3.018034 0
M  V30 67 H -1.305437 1.725055 -2.414368 0
M  V30 68 H 3.362927 1.709758 0.187083 0
M  V30 69 H 5.138728 1.413479 -0.105370 0
M  V30 70 H 2.873333 -0.598105 0.248843 0
M  V30 71 H 4.392893 -0.483266 1.169756 0
M  V30 END ATOM
M  V30 BEGIN BOND
M  V30 1 1 1 2
M  V30 2 2 2 3
M  V30 3 2 2 4
M  V30 4 1 2 5
M  V30 5 1 5 6
M  V30 6 1 6 7
M  V30 7 1 7 8
M  V30 8 1 8 9
M  V30 9 1 9 10
M  V30 10 1 10 11
M  V30 11 2 11 12
M  V30 12 1 12 13
M  V30 13 2 13 14
M  V30 14 1 14 15
M  V30 15 1 15 16
M  V30 16 1 16 17
M  V30 17 2 17 18
M  V30 18 1 18 19
M  V30 19 2 19 20
M  V30 20 1 20 21
M  V30 21 1 21 22
M  V30 22 1 22 23
M  V30 23 1 23 24
M  V30 24 1 24 25
M  V30 25 1 25 26
M  V30 26 2 25 27
M  V30 27 2 25 28
M  V30 28 1 24 29
M  V30 29 1 29 30
M  V30 30 1 20 31
M  V30 31 2 31 32
M  V30 32 1 32 33
M  V30 33 2 33 34
M  V30 34 2 15 35
M  V30 35 1 9 36
M  V30 36 1 36 37
M  V30 37 1 37 6
M  V30 38 1 35 11
M  V30 39 1 34 16
M  V30 40 1 34 19
M  V30 41 1 30 21
M  V30 42 1 1 38
M  V30 43 1 1 39
M  V30 44 1 1 40
M  V30 45 1 5 41
M  V30 46 1 6 42 CFG=1
M  V30 47 1 7 43
M  V30 48 1 7 44
M  V30 49 1 8 45
M  V30 50 1 8 46
M  V30 51 1 9 47 CFG=1
M  V30 52 1 10 48
M  V30 53 1 13 49
M  V30 54 1 14 50
M  V30 55 1 17 51
M  V30 56 1 18 52
M  V30 57 1 22 53
M  V30 58 1 22 54
M  V30 59 1 23 55
M  V30 60 1 23 56
M  V30 61 1 24 57
M  V30 62 1 26 58
M  V30 63 1 26 59
M  V30 64 1 26 60
M  V30 65 1 29 61
M  V30 66 1 29 62
M  V30 67 1 30 63
M  V30 68 1 30 64
M  V30 69 1 31 65
M  V30 70 1 32 66
M  V30 71 1 33 67
M  V30 72 1 36 68
M  V30 73 1 36 69
M  V30 74 1 37 70
M  V30 75 1 37 71
M  V30 END BOND
M  V30 END CTAB
M  END
>  <Dataset>  (876) 
ChEMBL_Kinases

>  <Ligand_Instance>  (876) 
nan

>  <PDB_ID>  (876) 
nan

>  <Standardized_SMILES>  (876) 
CS(=O)(=O)N[C@H]1CC[C@H](Nc2nccc(-n3ccc4c(N5CCC(S(C)(=O)=O)CC5)cccc43)n2)CC1

>  <Name>  (876) 
nan

>  <Pocket>  (876) 
nan

>  <ATP_Site>  (876) 
nan

>  <Peripheral>  (876) 
nan

>  <Num_H_Atoms_ProtBoundConf>  (876) 
nan

>  <Num_Resolved_Atoms>  (876) 
nan

>  <Num_Not_Resolved_Atoms>  (876) 
nan

$$$$
CHEMBL2392826
     RDKit          3D

  0  0  0  0  0  0  0  0  0  0999 V3000
M  V30 BEGIN CTAB
M  V30 COUNTS 70 74 0 0 0
M  V30 BEGIN ATOM
M  V30 1 C 3.200476 -4.361911 2.201832 0
M  V30 2 S 4.021989 -4.163938 0.646387 0
M  V30 3 O 3.451002 -5.097747 -0.356660 0
M  V30 4 O 5.470403 -4.554319 0.867680 0
M  V30 5 N 3.934408 -2.516274 0.127806 0
M  V30 6 C 4.633815 -1.731904 1.155945 0 CFG=1
M  V30 7 C 5.885437 -1.101807 0.643707 0
M  V30 8 C 5.651442 0.166573 -0.117415 0
M  V30 9 C 4.184125 0.582765 -0.063597 0 CFG=2
M  V30 10 N 4.032904 1.934040 -0.622846 0
M  V30 11 C 2.777282 2.591276 -0.735914 0
M  V30 12 N 2.687403 3.843963 -1.255106 0
M  V30 13 C 1.500431 4.465897 -1.366110 0
M  V30 14 C 0.319945 3.876403 -0.965266 0
M  V30 15 C 0.432009 2.605152 -0.441451 0
M  V30 16 N -0.762118 1.952867 -0.016365 0
M  V30 17 C -1.106955 1.606521 1.248513 0
M  V30 18 C -2.324296 1.006309 1.172433 0
M  V30 19 C -2.757776 0.967383 -0.122581 0
M  V30 20 C -3.920519 0.447148 -0.655720 0
M  V30 21 N -4.983316 -0.143230 0.049988 0
M  V30 22 C -5.870661 -1.078946 -0.682263 0
M  V30 23 C -6.006461 -2.365818 0.117925 0
M  V30 24 N -5.021088 -2.401222 1.127212 0
M  V30 25 S -4.373915 -3.874848 1.585309 0
M  V30 26 C -3.565062 -4.587609 0.143154 0
M  V30 27 O -5.450595 -4.837201 1.990099 0
M  V30 28 O -3.336917 -3.754794 2.665119 0
M  V30 29 C -5.100615 -1.358879 2.088350 0
M  V30 30 C -5.538253 -0.106438 1.349286 0
M  V30 31 C -4.045055 0.562435 -2.025345 0
M  V30 32 C -3.066082 1.158545 -2.794578 0
M  V30 33 C -1.919270 1.663510 -2.207759 0
M  V30 34 C -1.756087 1.568702 -0.846440 0
M  V30 35 N 1.647260 1.988109 -0.335677 0
M  V30 36 C 3.826357 0.587908 1.408396 0
M  V30 37 C 3.701640 -0.817699 1.881636 0
M  V30 38 H 2.101560 -4.383804 2.054309 0
M  V30 39 H 3.559522 -5.311066 2.678435 0
M  V30 40 H 3.503638 -3.544927 2.885425 0
M  V30 41 H 4.525074 -2.456399 -0.726979 0
M  V30 42 H 4.964327 -2.513416 1.901445 0
M  V30 43 H 6.382235 -1.843269 -0.013687 0
M  V30 44 H 6.577886 -0.935188 1.506922 0
M  V30 45 H 6.018216 0.056935 -1.164383 0
M  V30 46 H 6.238845 0.991507 0.329053 0
M  V30 47 H 3.598858 -0.142184 -0.659021 0
M  V30 48 H 4.890559 2.441545 -0.954584 0
M  V30 49 H 1.424251 5.464505 -1.779523 0
M  V30 50 H -0.634306 4.366942 -1.049061 0
M  V30 51 H -0.475735 1.805923 2.091206 0
M  V30 52 H -2.795634 0.643286 2.045307 0
M  V30 53 H -6.833432 -0.610525 -0.902806 0
M  V30 54 H -5.396590 -1.375166 -1.636776 0
M  V30 55 H -5.900907 -3.243025 -0.551595 0
M  V30 56 H -7.011961 -2.404297 0.537686 0
M  V30 57 H -3.026281 -5.507976 0.377314 0
M  V30 58 H -4.304879 -4.663944 -0.677940 0
M  V30 59 H -2.780629 -3.863422 -0.228487 0
M  V30 60 H -5.838305 -1.616143 2.904026 0
M  V30 61 H -4.144023 -1.227582 2.636232 0
M  V30 62 H -6.653219 -0.054368 1.400667 0
M  V30 63 H -5.100325 0.731686 1.972766 0
M  V30 64 H -4.855889 0.239206 -2.657528 0
M  V30 65 H -3.083883 1.290892 -3.872524 0
M  V30 66 H -1.132467 2.135273 -2.772897 0
M  V30 67 H 2.887526 1.168579 1.520197 0
M  V30 68 H 4.677305 1.084066 1.940809 0
M  V30 69 H 2.663592 -1.166684 1.629942 0
M  V30 70 H 3.783555 -0.912206 2.994868 0
M  V30 END ATOM
M  V30 BEGIN BOND
M  V30 1 1 1 2
M  V30 2 2 2 3
M  V30 3 2 2 4
M  V30 4 1 2 5
M  V30 5 1 5 6
M  V30 6 1 6 7
M  V30 7 1 7 8
M  V30 8 1 8 9
M  V30 9 1 9 10
M  V30 10 1 10 11
M  V30 11 2 11 12
M  V30 12 1 12 13
M  V30 13 2 13 14
M  V30 14 1 14 15
M  V30 15 1 15 16
M  V30 16 1 16 17
M  V30 17 2 17 18
M  V30 18 1 18 19
M  V30 19 2 19 20
M  V30 20 1 20 21
M  V30 21 1 21 22
M  V30 22 1 22 23
M  V30 23 1 23 24
M  V30 24 1 24 25
M  V30 25 1 25 26
M  V30 26 2 25 27
M  V30 27 2 25 28
M  V30 28 1 24 29
M  V30 29 1 29 30
M  V30 30 1 20 31
M  V30 31 2 31 32
M  V30 32 1 32 33
M  V30 33 2 33 34
M  V30 34 2 15 35
M  V30 35 1 9 36
M  V30 36 1 36 37
M  V30 37 1 37 6
M  V30 38 1 35 11
M  V30 39 1 34 16
M  V30 40 1 34 19
M  V30 41 1 30 21
M  V30 42 1 1 38
M  V30 43 1 1 39
M  V30 44 1 1 40
M  V30 45 1 5 41
M  V30 46 1 6 42 CFG=1
M  V30 47 1 7 43
M  V30 48 1 7 44
M  V30 49 1 8 45
M  V30 50 1 8 46
M  V30 51 1 9 47 CFG=3
M  V30 52 1 10 48
M  V30 53 1 13 49
M  V30 54 1 14 50
M  V30 55 1 17 51
M  V30 56 1 18 52
M  V30 57 1 22 53
M  V30 58 1 22 54
M  V30 59 1 23 55
M  V30 60 1 23 56
M  V30 61 1 26 57
M  V30 62 1 26 58
M  V30 63 1 26 59
M  V30 64 1 29 60
M  V30 65 1 29 61
M  V30 66 1 30 62
M  V30 67 1 30 63
M  V30 68 1 31 64
M  V30 69 1 32 65
M  V30 70 1 33 66
M  V30 71 1 36 67
M  V30 72 1 36 68
M  V30 73 1 37 69
M  V30 74 1 37 70
M  V30 END BOND
M  V30 END CTAB
M  END
>  <Dataset>  (877) 
ChEMBL_Kinases

>  <Ligand_Instance>  (877) 
nan

>  <PDB_ID>  (877) 
nan

>  <Standardized_SMILES>  (877) 
CS(=O)(=O)N[C@H]1CC[C@H](Nc2nccc(-n3ccc4c(N5CCN(S(C)(=O)=O)CC5)cccc43)n2)CC1

>  <Name>  (877) 
nan

>  <Pocket>  (877) 
nan

>  <ATP_Site>  (877) 
nan

>  <Peripheral>  (877) 
nan

>  <Num_H_Atoms_ProtBoundConf>  (877) 
nan

>  <Num_Resolved_Atoms>  (877) 
nan

>  <Num_Not_Resolved_Atoms>  (877) 
nan

$$$$
CHEMBL220241
     RDKit          3D

  0  0  0  0  0  0  0  0  0  0999 V3000
M  V30 BEGIN CTAB
M  V30 COUNTS 72 77 0 0 0
M  V30 BEGIN ATOM
M  V30 1 C 0.794301 2.134785 8.475607 0
M  V30 2 C 1.127513 0.840396 7.763235 0
M  V30 3 N 1.213261 1.036855 6.321428 0
M  V30 4 C 2.349360 1.369063 5.664276 0
M  V30 5 C 3.687098 1.596089 6.205941 0
M  V30 6 N 4.143171 1.542305 7.467308 0
M  V30 7 O 5.423944 1.826506 7.442167 0
M  V30 8 N 5.833087 2.063277 6.235471 0
M  V30 9 C 4.760201 1.928112 5.412492 0
M  V30 10 N 4.916133 2.131306 4.026115 0
M  V30 11 N 2.043246 1.461356 4.362961 0
M  V30 12 C 0.721222 1.186873 4.210675 0
M  V30 13 C -0.167116 1.117297 3.147822 0
M  V30 14 N -1.460660 0.803960 3.340754 0
M  V30 15 C -2.010392 0.535001 4.538363 0
M  V30 16 O -3.329973 0.217543 4.711610 0
M  V30 17 C -4.183750 0.154112 3.625966 0
M  V30 18 C -5.447295 0.699699 3.568557 0
M  V30 19 C -6.282808 0.624320 2.473889 0
M  V30 20 C -5.823015 -0.051550 1.337319 0
M  V30 21 C -4.576487 -0.627281 1.302288 0
M  V30 22 N -4.024336 -1.330617 0.200433 0
M  V30 23 C -3.949762 -2.656601 -0.284044 0
M  V30 24 O -4.491162 -3.583709 0.357710 0
M  V30 25 C -3.231216 -2.884260 -1.530944 0
M  V30 26 C -2.719002 -1.869413 -2.302515 0
M  V30 27 C -2.044345 -2.174799 -3.454779 0
M  V30 28 C -1.830682 -3.453984 -3.915891 0
M  V30 29 O -1.207111 -3.985009 -4.994080 0
M  V30 30 C -0.523940 -3.334027 -6.039081 0
M  V30 31 C 0.679701 -2.555819 -5.598181 0
M  V30 32 N 1.319373 -1.916553 -6.727962 0
M  V30 33 C 2.315448 -0.955958 -6.287021 0
M  V30 34 C 3.234420 -0.484695 -7.368607 0
M  V30 35 O 3.787056 -1.548098 -8.087000 0
M  V30 36 C 3.398067 -2.769153 -7.534030 0
M  V30 37 C 1.873685 -2.842417 -7.694628 0
M  V30 38 C -2.361682 -4.477347 -3.114440 0
M  V30 39 C -3.055003 -4.184642 -1.933144 0
M  V30 40 C -3.794602 -0.504055 2.454937 0
M  V30 41 C -1.153485 0.592624 5.642425 0
M  V30 42 C 0.181831 0.916998 5.432650 0
M  V30 43 H 0.263067 2.861889 7.832908 0
M  V30 44 H 0.185992 1.867292 9.374444 0
M  V30 45 H 1.708635 2.661705 8.853120 0
M  V30 46 H 0.415665 0.031317 8.025631 0
M  V30 47 H 2.111446 0.509588 8.135911 0
M  V30 48 H 5.153786 3.009615 3.503773 0
M  V30 49 H 4.872123 1.603889 3.128835 0
M  V30 50 H 0.225169 1.328251 2.143759 0
M  V30 51 H -5.798741 1.225539 4.457439 0
M  V30 52 H -7.268373 1.075387 2.489789 0
M  V30 53 H -6.444021 -0.137124 0.451272 0
M  V30 54 H -3.624553 -0.465488 -0.221436 0
M  V30 55 H -2.831584 -0.833375 -2.031486 0
M  V30 56 H -1.639493 -1.414733 -4.095965 0
M  V30 57 H -1.220857 -2.577065 -6.537679 0
M  V30 58 H -0.278572 -4.067132 -6.831366 0
M  V30 59 H 1.427076 -3.331261 -5.258610 0
M  V30 60 H 0.497563 -1.801974 -4.845380 0
M  V30 61 H 2.842593 -1.328730 -5.400653 0
M  V30 62 H 1.721641 -0.056923 -5.947071 0
M  V30 63 H 2.743511 0.231460 -8.058879 0
M  V30 64 H 4.079875 0.053775 -6.895645 0
M  V30 65 H 3.658250 -2.830939 -6.475138 0
M  V30 66 H 3.918781 -3.565444 -8.092031 0
M  V30 67 H 1.543189 -3.869330 -7.463284 0
M  V30 68 H 1.585314 -2.569020 -8.718220 0
M  V30 69 H -2.297768 -5.560094 -3.307790 0
M  V30 70 H -3.470236 -4.990438 -1.306909 0
M  V30 71 H -2.803138 -0.953087 2.451738 0
M  V30 72 H -1.528365 0.385827 6.653506 0
M  V30 END ATOM
M  V30 BEGIN BOND
M  V30 1 1 1 2
M  V30 2 1 2 3
M  V30 3 1 3 4
M  V30 4 1 4 5
M  V30 5 2 5 6
M  V30 6 1 6 7
M  V30 7 1 7 8
M  V30 8 2 8 9
M  V30 9 1 9 10
M  V30 10 2 4 11
M  V30 11 1 11 12
M  V30 12 2 12 13
M  V30 13 1 13 14
M  V30 14 2 14 15
M  V30 15 1 15 16
M  V30 16 1 16 17
M  V30 17 2 17 18
M  V30 18 1 18 19
M  V30 19 2 19 20
M  V30 20 1 20 21
M  V30 21 1 21 22
M  V30 22 1 22 23
M  V30 23 2 23 24
M  V30 24 1 23 25
M  V30 25 2 25 26
M  V30 26 1 26 27
M  V30 27 2 27 28
M  V30 28 1 28 29
M  V30 29 1 29 30
M  V30 30 1 30 31
M  V30 31 1 31 32
M  V30 32 1 32 33
M  V30 33 1 33 34
M  V30 34 1 34 35
M  V30 35 1 35 36
M  V30 36 1 36 37
M  V30 37 1 28 38
M  V30 38 2 38 39
M  V30 39 2 21 40
M  V30 40 1 15 41
M  V30 41 2 41 42
M  V30 42 1 42 3
M  V30 43 1 9 5
M  V30 44 1 42 12
M  V30 45 1 40 17
M  V30 46 1 39 25
M  V30 47 1 37 32
M  V30 48 1 1 43
M  V30 49 1 1 44
M  V30 50 1 1 45
M  V30 51 1 2 46
M  V30 52 1 2 47
M  V30 53 1 10 48
M  V30 54 1 10 49
M  V30 55 1 13 50
M  V30 56 1 18 51
M  V30 57 1 19 52
M  V30 58 1 20 53
M  V30 59 1 22 54
M  V30 60 1 26 55
M  V30 61 1 27 56
M  V30 62 1 30 57
M  V30 63 1 30 58
M  V30 64 1 31 59
M  V30 65 1 31 60
M  V30 66 1 33 61
M  V30 67 1 33 62
M  V30 68 1 34 63
M  V30 69 1 34 64
M  V30 70 1 36 65
M  V30 71 1 36 66
M  V30 72 1 37 67
M  V30 73 1 37 68
M  V30 74 1 38 69
M  V30 75 1 39 70
M  V30 76 1 40 71
M  V30 77 1 41 72
M  V30 END BOND
M  V30 END CTAB
M  END
>  <Dataset>  (878) 
ChEMBL_Kinases

>  <Ligand_Instance>  (878) 
nan

>  <PDB_ID>  (878) 
nan

>  <Standardized_SMILES>  (878) 
CCn1c(-c2nonc2N)nc2cnc(Oc3cccc(NC(=O)c4ccc(OCCN5CCOCC5)cc4)c3)cc21

>  <Name>  (878) 
GSK-269962A

>  <Pocket>  (878) 
nan

>  <ATP_Site>  (878) 
nan

>  <Peripheral>  (878) 
nan

>  <Num_H_Atoms_ProtBoundConf>  (878) 
nan

>  <Num_Resolved_Atoms>  (878) 
nan

>  <Num_Not_Resolved_Atoms>  (878) 
nan

$$$$
CHEMBL2392827
     RDKit          3D

  0  0  0  0  0  0  0  0  0  0999 V3000
M  V30 BEGIN CTAB
M  V30 COUNTS 70 74 0 0 0
M  V30 BEGIN ATOM
M  V30 1 C 6.452579 -3.789470 1.407958 0
M  V30 2 S 6.601900 -2.252820 0.524617 0
M  V30 3 O 7.995965 -1.740666 0.805447 0
M  V30 4 O 6.469157 -2.429739 -0.939763 0
M  V30 5 N 5.509381 -1.141452 1.203597 0
M  V30 6 C 4.125922 -1.533138 1.109482 0 CFG=1
M  V30 7 C 3.443881 -1.640753 2.429328 0
M  V30 8 C 2.720331 -0.371580 2.829018 0
M  V30 9 C 3.531949 0.860025 2.432468 0 CFG=2
M  V30 10 N 2.903345 2.001393 3.005542 0
M  V30 11 C 1.589480 2.474539 2.790569 0
M  V30 12 N 1.025498 3.579002 3.363462 0
M  V30 13 C -0.237697 3.944625 3.091491 0
M  V30 14 C -1.046290 3.240686 2.225382 0
M  V30 15 C -0.475601 2.127040 1.648572 0
M  V30 16 N -1.289437 1.380697 0.749866 0
M  V30 17 C -1.443862 0.070957 1.068486 0
M  V30 18 C -2.263760 -0.495666 0.086183 0
M  V30 19 C -2.585360 0.509844 -0.813016 0
M  V30 20 C -3.340207 0.623998 -1.983193 0
M  V30 21 N -3.979639 -0.574861 -2.431836 0
M  V30 22 C -3.174374 -1.732480 -2.757223 0
M  V30 23 C -3.724090 -3.024689 -2.244916 0
M  V30 24 N -4.914536 -2.850664 -1.446867 0
M  V30 25 C -5.082348 -3.628199 -0.249190 0
M  V30 26 O -6.015903 -3.664823 0.610608 0
M  V30 27 C -4.040960 -4.605265 0.169149 0
M  V30 28 C -4.535969 -5.209319 1.419120 0
M  V30 29 N -4.925718 -5.699297 2.389302 0
M  V30 30 C -5.946709 -1.913968 -1.818387 0
M  V30 31 C -5.404787 -0.717321 -2.587236 0
M  V30 32 C -3.440103 1.839645 -2.640493 0
M  V30 33 C -2.796971 2.966111 -2.155577 0
M  V30 34 C -2.037777 2.868223 -0.985755 0
M  V30 35 C -1.966849 1.655408 -0.372706 0
M  V30 36 N 0.776471 1.810894 1.952312 0
M  V30 37 C 3.541041 0.896283 0.929550 0
M  V30 38 C 3.422199 -0.449503 0.310266 0
M  V30 39 H 5.656126 -4.423713 0.933014 0
M  V30 40 H 6.168680 -3.609465 2.464989 0
M  V30 41 H 7.399442 -4.357134 1.403168 0
M  V30 42 H 5.696083 -0.151552 0.960712 0
M  V30 43 H 4.053189 -2.513081 0.593828 0
M  V30 44 H 4.054072 -1.984544 3.268930 0
M  V30 45 H 2.632969 -2.421664 2.329993 0
M  V30 46 H 2.475028 -0.374636 3.899923 0
M  V30 47 H 1.765913 -0.312048 2.266894 0
M  V30 48 H 4.567540 0.794013 2.853142 0
M  V30 49 H 3.425059 2.627458 3.692055 0
M  V30 50 H -0.507992 4.848454 3.642174 0
M  V30 51 H -2.027766 3.617030 2.082048 0
M  V30 52 H -1.090492 -0.566807 1.861155 0
M  V30 53 H -2.613754 -1.510900 -0.009807 0
M  V30 54 H -3.093893 -1.802132 -3.879022 0
M  V30 55 H -2.132985 -1.583444 -2.369843 0
M  V30 56 H -3.948074 -3.736789 -3.091761 0
M  V30 57 H -2.956617 -3.569999 -1.643914 0
M  V30 58 H -3.079145 -4.105526 0.391382 0
M  V30 59 H -3.860097 -5.357016 -0.626254 0
M  V30 60 H -6.708732 -2.485956 -2.409838 0
M  V30 61 H -6.458246 -1.592288 -0.883971 0
M  V30 62 H -5.613988 -0.904438 -3.657049 0
M  V30 63 H -5.940035 0.207265 -2.288677 0
M  V30 64 H -4.038226 1.866870 -3.541343 0
M  V30 65 H -2.905577 3.901641 -2.708888 0
M  V30 66 H -1.536776 3.769540 -0.618025 0
M  V30 67 H 4.461385 1.419424 0.577589 0
M  V30 68 H 2.701975 1.528472 0.596258 0
M  V30 69 H 3.915566 -0.446267 -0.705119 0
M  V30 70 H 2.380986 -0.788791 0.109142 0
M  V30 END ATOM
M  V30 BEGIN BOND
M  V30 1 1 1 2
M  V30 2 2 2 3
M  V30 3 2 2 4
M  V30 4 1 2 5
M  V30 5 1 5 6
M  V30 6 1 6 7
M  V30 7 1 7 8
M  V30 8 1 8 9
M  V30 9 1 9 10
M  V30 10 1 10 11
M  V30 11 2 11 12
M  V30 12 1 12 13
M  V30 13 2 13 14
M  V30 14 1 14 15
M  V30 15 1 15 16
M  V30 16 1 16 17
M  V30 17 2 17 18
M  V30 18 1 18 19
M  V30 19 2 19 20
M  V30 20 1 20 21
M  V30 21 1 21 22
M  V30 22 1 22 23
M  V30 23 1 23 24
M  V30 24 1 24 25
M  V30 25 2 25 26
M  V30 26 1 25 27
M  V30 27 1 27 28
M  V30 28 3 28 29
M  V30 29 1 24 30
M  V30 30 1 30 31
M  V30 31 1 20 32
M  V30 32 2 32 33
M  V30 33 1 33 34
M  V30 34 2 34 35
M  V30 35 2 15 36
M  V30 36 1 9 37
M  V30 37 1 37 38
M  V30 38 1 38 6
M  V30 39 1 36 11
M  V30 40 1 35 16
M  V30 41 1 35 19
M  V30 42 1 31 21
M  V30 43 1 1 39
M  V30 44 1 1 40
M  V30 45 1 1 41
M  V30 46 1 5 42
M  V30 47 1 6 43 CFG=3
M  V30 48 1 7 44
M  V30 49 1 7 45
M  V30 50 1 8 46
M  V30 51 1 8 47
M  V30 52 1 9 48 CFG=1
M  V30 53 1 10 49
M  V30 54 1 13 50
M  V30 55 1 14 51
M  V30 56 1 17 52
M  V30 57 1 18 53
M  V30 58 1 22 54
M  V30 59 1 22 55
M  V30 60 1 23 56
M  V30 61 1 23 57
M  V30 62 1 27 58
M  V30 63 1 27 59
M  V30 64 1 30 60
M  V30 65 1 30 61
M  V30 66 1 31 62
M  V30 67 1 31 63
M  V30 68 1 32 64
M  V30 69 1 33 65
M  V30 70 1 34 66
M  V30 71 1 37 67
M  V30 72 1 37 68
M  V30 73 1 38 69
M  V30 74 1 38 70
M  V30 END BOND
M  V30 END CTAB
M  END
>  <Dataset>  (879) 
ChEMBL_Kinases

>  <Ligand_Instance>  (879) 
nan

>  <PDB_ID>  (879) 
nan

>  <Standardized_SMILES>  (879) 
CS(=O)(=O)N[C@H]1CC[C@H](Nc2nccc(-n3ccc4c(N5CCN(C(=O)CC#N)CC5)cccc43)n2)CC1

>  <Name>  (879) 
nan

>  <Pocket>  (879) 
nan

>  <ATP_Site>  (879) 
nan

>  <Peripheral>  (879) 
nan

>  <Num_H_Atoms_ProtBoundConf>  (879) 
nan

>  <Num_Resolved_Atoms>  (879) 
nan

>  <Num_Not_Resolved_Atoms>  (879) 
nan

$$$$
CHEMBL2392828
     RDKit          3D

  0  0  0  0  0  0  0  0  0  0999 V3000
M  V30 BEGIN CTAB
M  V30 COUNTS 70 74 0 0 0
M  V30 BEGIN ATOM
M  V30 1 C 3.325872 -2.838438 5.502752 0
M  V30 2 S 1.924830 -2.381631 4.499631 0
M  V30 3 O 1.350063 -3.625291 3.947052 0
M  V30 4 O 0.937781 -1.795868 5.450992 0
M  V30 5 N 2.512348 -1.279823 3.354959 0
M  V30 6 C 3.526063 -1.790053 2.463451 0 CFG=1
M  V30 7 C 3.058488 -1.853709 1.044568 0
M  V30 8 C 3.523600 -0.728119 0.174933 0
M  V30 9 C 4.111687 0.414710 0.953562 0 CFG=2
M  V30 10 N 4.417322 1.516806 0.100943 0
M  V30 11 C 3.407410 2.195751 -0.632877 0
M  V30 12 N 3.758054 3.220821 -1.424241 0
M  V30 13 C 2.827880 3.886473 -2.127230 0
M  V30 14 C 1.486498 3.571260 -2.085376 0
M  V30 15 C 1.140183 2.514599 -1.267140 0
M  V30 16 N -0.149265 1.962615 -1.019509 0
M  V30 17 C -0.822471 2.046862 0.168044 0
M  V30 18 C -2.002449 1.393561 -0.027179 0
M  V30 19 C -2.090798 0.898954 -1.307299 0
M  V30 20 C -3.097863 0.187579 -1.928337 0
M  V30 21 N -4.300950 -0.231269 -1.336307 0
M  V30 22 C -5.393710 -0.729559 -2.176680 0
M  V30 23 C -5.643332 -2.193918 -1.898490 0
M  V30 24 N -5.456240 -2.430427 -0.460846 0
M  V30 25 C -5.022036 -3.738429 -0.172732 0
M  V30 26 O -4.896674 -4.397906 -1.243384 0
M  V30 27 C -4.669034 -4.574778 0.988207 0
M  V30 28 O -4.827879 -3.824728 2.145927 0
M  V30 29 C -5.765857 -1.241219 0.338221 0
M  V30 30 C -4.616637 -0.259170 0.051815 0
M  V30 31 C -2.803900 -0.121216 -3.241862 0
M  V30 32 C -1.629852 0.239454 -3.873572 0
M  V30 33 C -0.658470 0.950976 -3.199465 0
M  V30 34 C -0.906851 1.278910 -1.895853 0
M  V30 35 N 2.123721 1.882685 -0.583399 0
M  V30 36 C 5.308608 -0.178049 1.630350 0
M  V30 37 C 4.851171 -1.130732 2.682455 0
M  V30 38 H 3.743200 -3.764168 5.109995 0
M  V30 39 H 4.072382 -2.012914 5.554028 0
M  V30 40 H 3.037232 -3.029703 6.555760 0
M  V30 41 H 2.867105 -0.450547 3.876580 0
M  V30 42 H 3.662501 -2.847136 2.786255 0
M  V30 43 H 1.946832 -1.803933 1.058086 0
M  V30 44 H 3.297092 -2.802438 0.517104 0
M  V30 45 H 2.739993 -0.402673 -0.526378 0
M  V30 46 H 4.367394 -1.093233 -0.473523 0
M  V30 47 H 3.431526 0.796411 1.739163 0
M  V30 48 H 5.402906 1.792444 0.045860 0
M  V30 49 H 3.069464 4.731951 -2.787131 0
M  V30 50 H 0.660272 4.017615 -2.589211 0
M  V30 51 H -0.444612 2.539172 1.037189 0
M  V30 52 H -2.712858 1.322555 0.753705 0
M  V30 53 H -6.329268 -0.196170 -1.839148 0
M  V30 54 H -5.292337 -0.531782 -3.233110 0
M  V30 55 H -5.053585 -2.854518 -2.532439 0
M  V30 56 H -6.722708 -2.388121 -2.124141 0
M  V30 57 H -5.304495 -5.491891 1.046967 0
M  V30 58 H -3.611786 -4.963597 0.905369 0
M  V30 59 H -3.944733 -3.602371 2.557796 0
M  V30 60 H -6.736557 -0.808659 0.050862 0
M  V30 61 H -5.727609 -1.554950 1.397281 0
M  V30 62 H -4.985346 0.677430 0.489446 0
M  V30 63 H -3.786271 -0.748689 0.647927 0
M  V30 64 H -3.441775 -0.671686 -3.908732 0
M  V30 65 H -1.379426 0.006197 -4.907763 0
M  V30 66 H 0.261688 1.245228 -3.660313 0
M  V30 67 H 5.951111 0.594335 2.116481 0
M  V30 68 H 5.926301 -0.740282 0.870409 0
M  V30 69 H 5.688662 -1.854128 2.839433 0
M  V30 70 H 4.792165 -0.561755 3.648612 0
M  V30 END ATOM
M  V30 BEGIN BOND
M  V30 1 1 1 2
M  V30 2 2 2 3
M  V30 3 2 2 4
M  V30 4 1 2 5
M  V30 5 1 5 6
M  V30 6 1 6 7
M  V30 7 1 7 8
M  V30 8 1 8 9
M  V30 9 1 9 10
M  V30 10 1 10 11
M  V30 11 2 11 12
M  V30 12 1 12 13
M  V30 13 2 13 14
M  V30 14 1 14 15
M  V30 15 1 15 16
M  V30 16 1 16 17
M  V30 17 2 17 18
M  V30 18 1 18 19
M  V30 19 2 19 20
M  V30 20 1 20 21
M  V30 21 1 21 22
M  V30 22 1 22 23
M  V30 23 1 23 24
M  V30 24 1 24 25
M  V30 25 2 25 26
M  V30 26 1 25 27
M  V30 27 1 27 28
M  V30 28 1 24 29
M  V30 29 1 29 30
M  V30 30 1 20 31
M  V30 31 2 31 32
M  V30 32 1 32 33
M  V30 33 2 33 34
M  V30 34 2 15 35
M  V30 35 1 9 36
M  V30 36 1 36 37
M  V30 37 1 37 6
M  V30 38 1 35 11
M  V30 39 1 34 16
M  V30 40 1 34 19
M  V30 41 1 30 21
M  V30 42 1 1 38
M  V30 43 1 1 39
M  V30 44 1 1 40
M  V30 45 1 5 41
M  V30 46 1 6 42 CFG=1
M  V30 47 1 7 43
M  V30 48 1 7 44
M  V30 49 1 8 45
M  V30 50 1 8 46
M  V30 51 1 9 47 CFG=1
M  V30 52 1 10 48
M  V30 53 1 13 49
M  V30 54 1 14 50
M  V30 55 1 17 51
M  V30 56 1 18 52
M  V30 57 1 22 53
M  V30 58 1 22 54
M  V30 59 1 23 55
M  V30 60 1 23 56
M  V30 61 1 27 57
M  V30 62 1 27 58
M  V30 63 1 28 59
M  V30 64 1 29 60
M  V30 65 1 29 61
M  V30 66 1 30 62
M  V30 67 1 30 63
M  V30 68 1 31 64
M  V30 69 1 32 65
M  V30 70 1 33 66
M  V30 71 1 36 67
M  V30 72 1 36 68
M  V30 73 1 37 69
M  V30 74 1 37 70
M  V30 END BOND
M  V30 END CTAB
M  END
>  <Dataset>  (880) 
ChEMBL_Kinases

>  <Ligand_Instance>  (880) 
nan

>  <PDB_ID>  (880) 
nan

>  <Standardized_SMILES>  (880) 
CS(=O)(=O)N[C@H]1CC[C@H](Nc2nccc(-n3ccc4c(N5CCN(C(=O)CO)CC5)cccc43)n2)CC1

>  <Name>  (880) 
nan

>  <Pocket>  (880) 
nan

>  <ATP_Site>  (880) 
nan

>  <Peripheral>  (880) 
nan

>  <Num_H_Atoms_ProtBoundConf>  (880) 
nan

>  <Num_Resolved_Atoms>  (880) 
nan

>  <Num_Not_Resolved_Atoms>  (880) 
nan

$$$$
CHEMBL2392829
     RDKit          3D

  0  0  0  0  0  0  0  0  0  0999 V3000
M  V30 BEGIN CTAB
M  V30 COUNTS 65 69 0 0 0
M  V30 BEGIN ATOM
M  V30 1 C 2.323457 -2.418529 0.699007 0
M  V30 2 S 3.767832 -1.621737 1.351670 0
M  V30 3 O 4.614049 -1.130370 0.245995 0
M  V30 4 O 4.567860 -2.714752 2.049501 0
M  V30 5 N 3.422883 -0.454085 2.541589 0
M  V30 6 C 2.618677 0.657971 2.122947 0 CFG=1
M  V30 7 C 1.287817 0.716544 2.794854 0
M  V30 8 C 0.980662 1.939399 3.582318 0
M  V30 9 C 1.362961 3.231880 2.950451 0 CFG=2
M  V30 10 N 0.237655 4.068493 2.714806 0
M  V30 11 C -0.930689 3.893181 1.924927 0
M  V30 12 N -2.002478 4.701469 1.710173 0
M  V30 13 C -2.979875 4.268140 0.896564 0
M  V30 14 C -3.001618 3.053322 0.242520 0
M  V30 15 C -1.898758 2.259836 0.483733 0
M  V30 16 N -1.863839 0.989322 -0.165578 0
M  V30 17 C -1.677905 1.005324 -1.504259 0
M  V30 18 C -1.672765 -0.314980 -1.953063 0
M  V30 19 C -1.861061 -1.098182 -0.838280 0
M  V30 20 C -1.952482 -2.474473 -0.608343 0
M  V30 21 N -1.823680 -3.267031 -1.790573 0
M  V30 22 C -0.667745 -3.298720 -2.700319 0
M  V30 23 C -0.044096 -4.677659 -2.680756 0
M  V30 24 C -1.031890 -5.741714 -2.280262 0
M  V30 25 C -2.446506 -5.395204 -2.678409 0
M  V30 26 C -2.959211 -4.118899 -2.103068 0
M  V30 27 C -2.150460 -2.949397 0.672166 0
M  V30 28 C -2.260780 -2.080634 1.739660 0
M  V30 29 C -2.177146 -0.704708 1.566508 0
M  V30 30 C -1.978726 -0.279760 0.267747 0
M  V30 31 N -0.940808 2.726147 1.303012 0
M  V30 32 C 2.262805 3.025870 1.740236 0
M  V30 33 C 3.300783 1.972788 2.166555 0
M  V30 34 H 1.402031 -1.810083 0.803482 0
M  V30 35 H 2.478135 -2.700647 -0.380680 0
M  V30 36 H 2.109326 -3.382007 1.202105 0
M  V30 37 H 3.039462 -0.844667 3.418905 0
M  V30 38 H 2.403010 0.456539 1.028006 0
M  V30 39 H 1.289389 -0.139705 3.540428 0
M  V30 40 H 0.442951 0.451554 2.119012 0
M  V30 41 H -0.143754 1.946506 3.715531 0
M  V30 42 H 1.366092 1.893531 4.631713 0
M  V30 43 H 2.019441 3.790004 3.680479 0
M  V30 44 H 0.135235 5.032733 3.157459 0
M  V30 45 H -3.795333 5.001889 0.795656 0
M  V30 46 H -3.834113 2.817655 -0.379564 0
M  V30 47 H -1.543045 1.791380 -2.234115 0
M  V30 48 H -1.547608 -0.703150 -2.976263 0
M  V30 49 H 0.063000 -2.518337 -2.429079 0
M  V30 50 H -0.998835 -3.104633 -3.741073 0
M  V30 51 H 0.764391 -4.676907 -1.905558 0
M  V30 52 H 0.438195 -4.931678 -3.641771 0
M  V30 53 H -0.972393 -6.014120 -1.206872 0
M  V30 54 H -0.765666 -6.666953 -2.831772 0
M  V30 55 H -3.098842 -6.225995 -2.335747 0
M  V30 56 H -2.552990 -5.336229 -3.775502 0
M  V30 57 H -3.550593 -3.530037 -2.863607 0
M  V30 58 H -3.568342 -4.338310 -1.209416 0
M  V30 59 H -2.210613 -4.032657 0.767330 0
M  V30 60 H -2.418018 -2.486887 2.745986 0
M  V30 61 H -2.260497 -0.005390 2.386018 0
M  V30 62 H 2.804018 3.942058 1.452300 0
M  V30 63 H 1.666761 2.680169 0.875294 0
M  V30 64 H 3.540168 2.225824 3.222326 0
M  V30 65 H 4.193054 2.041895 1.509753 0
M  V30 END ATOM
M  V30 BEGIN BOND
M  V30 1 1 1 2
M  V30 2 2 2 3
M  V30 3 2 2 4
M  V30 4 1 2 5
M  V30 5 1 5 6
M  V30 6 1 6 7
M  V30 7 1 7 8
M  V30 8 1 8 9
M  V30 9 1 9 10
M  V30 10 1 10 11
M  V30 11 2 11 12
M  V30 12 1 12 13
M  V30 13 2 13 14
M  V30 14 1 14 15
M  V30 15 1 15 16
M  V30 16 1 16 17
M  V30 17 2 17 18
M  V30 18 1 18 19
M  V30 19 2 19 20
M  V30 20 1 20 21
M  V30 21 1 21 22
M  V30 22 1 22 23
M  V30 23 1 23 24
M  V30 24 1 24 25
M  V30 25 1 25 26
M  V30 26 1 20 27
M  V30 27 2 27 28
M  V30 28 1 28 29
M  V30 29 2 29 30
M  V30 30 2 15 31
M  V30 31 1 9 32
M  V30 32 1 32 33
M  V30 33 1 33 6
M  V30 34 1 31 11
M  V30 35 1 30 16
M  V30 36 1 30 19
M  V30 37 1 26 21
M  V30 38 1 1 34
M  V30 39 1 1 35
M  V30 40 1 1 36
M  V30 41 1 5 37
M  V30 42 1 6 38 CFG=3
M  V30 43 1 7 39
M  V30 44 1 7 40
M  V30 45 1 8 41
M  V30 46 1 8 42
M  V30 47 1 9 43 CFG=1
M  V30 48 1 10 44
M  V30 49 1 13 45
M  V30 50 1 14 46
M  V30 51 1 17 47
M  V30 52 1 18 48
M  V30 53 1 22 49
M  V30 54 1 22 50
M  V30 55 1 23 51
M  V30 56 1 23 52
M  V30 57 1 24 53
M  V30 58 1 24 54
M  V30 59 1 25 55
M  V30 60 1 25 56
M  V30 61 1 26 57
M  V30 62 1 26 58
M  V30 63 1 27 59
M  V30 64 1 28 60
M  V30 65 1 29 61
M  V30 66 1 32 62
M  V30 67 1 32 63
M  V30 68 1 33 64
M  V30 69 1 33 65
M  V30 END BOND
M  V30 END CTAB
M  END
>  <Dataset>  (881) 
ChEMBL_Kinases

>  <Ligand_Instance>  (881) 
nan

>  <PDB_ID>  (881) 
nan

>  <Standardized_SMILES>  (881) 
CS(=O)(=O)N[C@H]1CC[C@H](Nc2nccc(-n3ccc4c(N5CCCCC5)cccc43)n2)CC1

>  <Name>  (881) 
nan

>  <Pocket>  (881) 
nan

>  <ATP_Site>  (881) 
nan

>  <Peripheral>  (881) 
nan

>  <Num_H_Atoms_ProtBoundConf>  (881) 
nan

>  <Num_Resolved_Atoms>  (881) 
nan

>  <Num_Not_Resolved_Atoms>  (881) 
nan

$$$$
CHEMBL2392830
     RDKit          3D

  0  0  0  0  0  0  0  0  0  0999 V3000
M  V30 BEGIN CTAB
M  V30 COUNTS 68 72 0 0 0
M  V30 BEGIN ATOM
M  V30 1 C 2.515251 -1.255407 6.325930 0
M  V30 2 S 3.850416 -0.577615 5.362334 0
M  V30 3 O 4.524175 -1.590119 4.505197 0
M  V30 4 O 4.830466 -0.008253 6.335494 0
M  V30 5 N 3.161087 0.674520 4.371329 0
M  V30 6 C 2.165301 0.137507 3.477398 0 CFG=1
M  V30 7 C 0.826041 0.793000 3.734142 0
M  V30 8 C 0.567966 1.888212 2.739906 0
M  V30 9 C 1.818181 2.702622 2.495635 0 CFG=2
M  V30 10 N 1.557433 3.869659 1.711688 0
M  V30 11 C 0.988126 3.851473 0.417186 0
M  V30 12 N 0.777242 5.014118 -0.269776 0
M  V30 13 C 0.233726 5.014509 -1.499617 0
M  V30 14 C -0.138436 3.845816 -2.130691 0
M  V30 15 C 0.071904 2.667297 -1.442012 0
M  V30 16 N -0.259908 1.376685 -1.957577 0
M  V30 17 C 0.183287 0.659912 -3.014646 0
M  V30 18 C -0.476771 -0.549495 -3.069757 0
M  V30 19 C -1.343546 -0.538600 -1.997607 0
M  V30 20 C -2.231326 -1.520600 -1.609453 0
M  V30 21 N -2.447062 -2.774909 -2.244857 0
M  V30 22 C -2.897302 -3.050236 -3.591558 0
M  V30 23 C -2.906554 -4.563481 -3.622605 0
M  V30 24 C -2.091867 -5.051632 -2.456650 0
M  V30 25 S -2.823033 -6.584488 -1.916358 0
M  V30 26 C -2.027590 -7.236778 -0.476444 0
M  V30 27 O -2.582814 -7.572762 -3.039077 0
M  V30 28 O -4.292946 -6.430790 -1.769594 0
M  V30 29 C -2.180111 -3.967109 -1.433746 0
M  V30 30 C -3.011328 -1.272982 -0.473252 0
M  V30 31 C -2.909721 -0.097013 0.243824 0
M  V30 32 C -2.012600 0.832600 -0.193541 0
M  V30 33 C -1.213864 0.647907 -1.307766 0
M  V30 34 N 0.619819 2.740938 -0.215525 0
M  V30 35 C 2.807420 1.832333 1.757096 0
M  V30 36 C 2.612908 0.359507 2.051366 0
M  V30 37 H 2.734821 -2.257966 6.716154 0
M  V30 38 H 1.567167 -1.339949 5.733452 0
M  V30 39 H 2.293428 -0.516519 7.125166 0
M  V30 40 H 3.932639 1.073830 3.799138 0
M  V30 41 H 2.078723 -0.952225 3.637426 0
M  V30 42 H 0.687741 1.120530 4.784965 0
M  V30 43 H 0.041072 0.002449 3.548567 0
M  V30 44 H 0.332006 1.397034 1.776132 0
M  V30 45 H -0.273759 2.486322 3.138819 0
M  V30 46 H 2.203282 2.970881 3.509345 0
M  V30 47 H 1.805632 4.806592 2.125167 0
M  V30 48 H 0.060553 5.940878 -2.058460 0
M  V30 49 H -0.579778 3.767401 -3.115438 0
M  V30 50 H 0.944919 1.063460 -3.660526 0
M  V30 51 H -0.333560 -1.312950 -3.791019 0
M  V30 52 H -2.252042 -2.625108 -4.369486 0
M  V30 53 H -3.950336 -2.660052 -3.711910 0
M  V30 54 H -2.405914 -4.865379 -4.574916 0
M  V30 55 H -3.952949 -4.940535 -3.578269 0
M  V30 56 H -1.017708 -5.215395 -2.703750 0
M  V30 57 H -0.988428 -6.899808 -0.419320 0
M  V30 58 H -1.999239 -8.343687 -0.499248 0
M  V30 59 H -2.629941 -6.966851 0.436771 0
M  V30 60 H -1.279838 -3.865993 -0.811943 0
M  V30 61 H -3.023961 -4.140388 -0.722684 0
M  V30 62 H -3.741999 -1.989784 -0.088225 0
M  V30 63 H -3.510930 0.101131 1.125134 0
M  V30 64 H -1.921015 1.758575 0.357033 0
M  V30 65 H 2.687406 2.020305 0.674002 0
M  V30 66 H 3.831234 2.166199 2.035824 0
M  V30 67 H 1.937988 -0.134135 1.324394 0
M  V30 68 H 3.641593 -0.096075 1.996059 0
M  V30 END ATOM
M  V30 BEGIN BOND
M  V30 1 1 1 2
M  V30 2 2 2 3
M  V30 3 2 2 4
M  V30 4 1 2 5
M  V30 5 1 5 6
M  V30 6 1 6 7
M  V30 7 1 7 8
M  V30 8 1 8 9
M  V30 9 1 9 10
M  V30 10 1 10 11
M  V30 11 2 11 12
M  V30 12 1 12 13
M  V30 13 2 13 14
M  V30 14 1 14 15
M  V30 15 1 15 16
M  V30 16 1 16 17
M  V30 17 2 17 18
M  V30 18 1 18 19
M  V30 19 2 19 20
M  V30 20 1 20 21
M  V30 21 1 21 22
M  V30 22 1 22 23
M  V30 23 1 23 24
M  V30 24 1 24 25
M  V30 25 1 25 26
M  V30 26 2 25 27
M  V30 27 2 25 28
M  V30 28 1 24 29
M  V30 29 1 20 30
M  V30 30 2 30 31
M  V30 31 1 31 32
M  V30 32 2 32 33
M  V30 33 2 15 34
M  V30 34 1 9 35
M  V30 35 1 35 36
M  V30 36 1 36 6
M  V30 37 1 34 11
M  V30 38 1 33 16
M  V30 39 1 33 19
M  V30 40 1 29 21
M  V30 41 1 1 37
M  V30 42 1 1 38
M  V30 43 1 1 39
M  V30 44 1 5 40
M  V30 45 1 6 41 CFG=1
M  V30 46 1 7 42
M  V30 47 1 7 43
M  V30 48 1 8 44
M  V30 49 1 8 45
M  V30 50 1 9 46 CFG=1
M  V30 51 1 10 47
M  V30 52 1 13 48
M  V30 53 1 14 49
M  V30 54 1 17 50
M  V30 55 1 18 51
M  V30 56 1 22 52
M  V30 57 1 22 53
M  V30 58 1 23 54
M  V30 59 1 23 55
M  V30 60 1 24 56
M  V30 61 1 26 57
M  V30 62 1 26 58
M  V30 63 1 26 59
M  V30 64 1 29 60
M  V30 65 1 29 61
M  V30 66 1 30 62
M  V30 67 1 31 63
M  V30 68 1 32 64
M  V30 69 1 35 65
M  V30 70 1 35 66
M  V30 71 1 36 67
M  V30 72 1 36 68
M  V30 END BOND
M  V30 END CTAB
M  END
>  <Dataset>  (882) 
ChEMBL_Kinases

>  <Ligand_Instance>  (882) 
nan

>  <PDB_ID>  (882) 
nan

>  <Standardized_SMILES>  (882) 
CS(=O)(=O)N[C@H]1CC[C@H](Nc2nccc(-n3ccc4c(N5CCC(S(C)(=O)=O)C5)cccc43)n2)CC1

>  <Name>  (882) 
nan

>  <Pocket>  (882) 
nan

>  <ATP_Site>  (882) 
nan

>  <Peripheral>  (882) 
nan

>  <Num_H_Atoms_ProtBoundConf>  (882) 
nan

>  <Num_Resolved_Atoms>  (882) 
nan

>  <Num_Not_Resolved_Atoms>  (882) 
nan

$$$$
CHEMBL4471765
     RDKit          3D

  0  0  0  0  0  0  0  0  0  0999 V3000
M  V30 BEGIN CTAB
M  V30 COUNTS 38 40 0 0 0
M  V30 BEGIN ATOM
M  V30 1 C -0.021067 -2.366403 1.276763 0
M  V30 2 N -0.032086 -1.246769 0.389599 0
M  V30 3 N 1.284805 -1.070682 -0.137313 0
M  V30 4 C 2.103336 -2.018630 -0.379001 0
M  V30 5 C 3.447309 -1.797238 -0.919087 0
M  V30 6 C 4.268532 -2.884886 -1.145924 0
M  V30 7 C 5.548229 -2.652639 -1.662402 0
M  V30 8 C 5.989194 -1.356206 -1.943029 0
M  V30 9 C 5.116992 -0.292537 -1.693728 0
M  V30 10 C 3.830418 -0.502344 -1.176850 0
M  V30 11 S -1.170140 -0.083022 -0.218732 0
M  V30 12 O -2.236338 -0.798674 -1.038507 0
M  V30 13 O -0.455155 0.789566 -1.203985 0
M  V30 14 C -1.882355 0.908063 1.003653 0
M  V30 15 C -1.515613 2.259030 1.087160 0
M  V30 16 C -2.002200 3.109491 2.065005 0
M  V30 17 C -2.902881 2.650329 3.036817 0
M  V30 18 C -3.273686 1.327000 2.967874 0
M  V30 19 C -4.178202 0.830502 3.896555 0
M  V30 20 N -4.556270 -0.452524 3.819760 0
M  V30 21 C -4.090759 -1.297391 2.865581 0
M  V30 22 C -3.197532 -0.760748 1.969185 0
M  V30 23 C -2.759087 0.540415 1.979573 0
M  V30 24 H -0.810996 -2.286440 2.020032 0
M  V30 25 H -0.089344 -3.286948 0.652964 0
M  V30 26 H 0.956311 -2.361632 1.845913 0
M  V30 27 H 1.760189 -3.023027 -0.164232 0
M  V30 28 H 3.985554 -3.903171 -0.949750 0
M  V30 29 H 6.212869 -3.504682 -1.849677 0
M  V30 30 H 6.969655 -1.231726 -2.335662 0
M  V30 31 H 5.564646 0.681029 -1.949992 0
M  V30 32 H 3.247689 0.384423 -1.025249 0
M  V30 33 H -0.823609 2.748745 0.397613 0
M  V30 34 H -1.717563 4.152313 2.127670 0
M  V30 35 H -3.269677 3.310738 3.783327 0
M  V30 36 H -4.582820 1.451321 4.677746 0
M  V30 37 H -4.400604 -2.344794 2.805276 0
M  V30 38 H -2.843023 -1.440987 1.207234 0
M  V30 END ATOM
M  V30 BEGIN BOND
M  V30 1 1 1 2
M  V30 2 1 2 3
M  V30 3 2 3 4
M  V30 4 1 4 5
M  V30 5 2 5 6
M  V30 6 1 6 7
M  V30 7 2 7 8
M  V30 8 1 8 9
M  V30 9 2 9 10
M  V30 10 1 2 11
M  V30 11 2 11 12
M  V30 12 2 11 13
M  V30 13 1 11 14
M  V30 14 2 14 15
M  V30 15 1 15 16
M  V30 16 2 16 17
M  V30 17 1 17 18
M  V30 18 2 18 19
M  V30 19 1 19 20
M  V30 20 2 20 21
M  V30 21 1 21 22
M  V30 22 2 22 23
M  V30 23 1 10 5
M  V30 24 1 23 14
M  V30 25 1 23 18
M  V30 26 1 1 24
M  V30 27 1 1 25
M  V30 28 1 1 26
M  V30 29 1 4 27
M  V30 30 1 6 28
M  V30 31 1 7 29
M  V30 32 1 8 30
M  V30 33 1 9 31
M  V30 34 1 10 32
M  V30 35 1 15 33
M  V30 36 1 16 34
M  V30 37 1 17 35
M  V30 38 1 19 36
M  V30 39 1 21 37
M  V30 40 1 22 38
M  V30 END BOND
M  V30 END CTAB
M  END
>  <Dataset>  (883) 
ChEMBL_Kinases

>  <Ligand_Instance>  (883) 
nan

>  <PDB_ID>  (883) 
nan

>  <Standardized_SMILES>  (883) 
CN(/N=C/c1ccccc1)S(=O)(=O)c1cccc2cnccc12

>  <Name>  (883) 
nan

>  <Pocket>  (883) 
nan

>  <ATP_Site>  (883) 
nan

>  <Peripheral>  (883) 
nan

>  <Num_H_Atoms_ProtBoundConf>  (883) 
nan

>  <Num_Resolved_Atoms>  (883) 
nan

>  <Num_Not_Resolved_Atoms>  (883) 
nan

$$$$
CHEMBL2392832
     RDKit          3D

  0  0  0  0  0  0  0  0  0  0999 V3000
M  V30 BEGIN CTAB
M  V30 COUNTS 63 67 0 0 0
M  V30 BEGIN ATOM
M  V30 1 C 6.287065 1.927136 4.992363 0
M  V30 2 S 4.735755 1.178418 5.300123 0
M  V30 3 O 4.811089 0.548207 6.682482 0
M  V30 4 O 4.467012 0.045878 4.342437 0
M  V30 5 C 3.401617 2.335158 5.335022 0
M  V30 6 C 3.179545 3.047241 4.058103 0
M  V30 7 C 1.780923 2.951601 3.522117 0
M  V30 8 N 1.337621 1.580081 3.359853 0
M  V30 9 C 0.797783 0.774256 2.315074 0
M  V30 10 C 1.534453 -0.340882 1.965218 0
M  V30 11 C 1.066771 -1.161603 0.962018 0
M  V30 12 C -0.124820 -0.815041 0.359883 0
M  V30 13 C -0.875673 0.293968 0.694294 0
M  V30 14 C -0.393570 1.108655 1.703332 0
M  V30 15 C -1.295759 2.137768 1.861921 0
M  V30 16 N -2.277052 1.916102 0.959565 0
M  V30 17 N -2.038537 0.818439 0.255920 0
M  V30 18 C -2.840919 0.255696 -0.787629 0
M  V30 19 C -3.776735 1.001887 -1.474050 0
M  V30 20 C -4.488706 0.347907 -2.458546 0
M  V30 21 N -4.272333 -0.952486 -2.726613 0
M  V30 22 C -3.361526 -1.684107 -2.060560 0
M  V30 23 N -3.127144 -3.057271 -2.337456 0
M  V30 24 C -3.815460 -3.810975 -3.338026 0 CFG=1
M  V30 25 C -3.612851 -3.266411 -4.709875 0
M  V30 26 C -2.298626 -3.678831 -5.328536 0
M  V30 27 C -1.522974 -4.657669 -4.496641 0 CFG=2
M  V30 28 O -0.556636 -5.235453 -5.340082 0
M  V30 29 C -2.437579 -5.772227 -4.084013 0
M  V30 30 C -3.562273 -5.285495 -3.230734 0
M  V30 31 N -2.689992 -1.040417 -1.121820 0
M  V30 32 C 1.494573 0.852249 4.605460 0
M  V30 33 C 2.125711 1.628365 5.703620 0
M  V30 34 H 6.318912 3.016863 5.122709 0
M  V30 35 H 7.109327 1.500622 5.631303 0
M  V30 36 H 6.614157 1.707146 3.945260 0
M  V30 37 H 3.605609 3.065214 6.142474 0
M  V30 38 H 3.441068 4.116102 4.174847 0
M  V30 39 H 3.844509 2.649101 3.272251 0
M  V30 40 H 1.709583 3.462441 2.561418 0
M  V30 41 H 1.117905 3.382293 4.322169 0
M  V30 42 H 2.471246 -0.606367 2.444296 0
M  V30 43 H 1.645816 -2.030077 0.693431 0
M  V30 44 H -0.454751 -1.486000 -0.421447 0
M  V30 45 H -1.208120 2.940507 2.569942 0
M  V30 46 H -3.893988 2.041199 -1.202186 0
M  V30 47 H -5.239392 0.925125 -3.017179 0
M  V30 48 H -2.405376 -3.564181 -1.779721 0
M  V30 49 H -4.915766 -3.679673 -3.111845 0
M  V30 50 H -4.479835 -3.547192 -5.335028 0
M  V30 51 H -3.594948 -2.159398 -4.654181 0
M  V30 52 H -1.633765 -2.824942 -5.544853 0
M  V30 53 H -2.527706 -4.159444 -6.309710 0
M  V30 54 H -1.007385 -4.190339 -3.649741 0
M  V30 55 H 0.346594 -4.914547 -5.106023 0
M  V30 56 H -2.824396 -6.240997 -5.026533 0
M  V30 57 H -1.808351 -6.544669 -3.559808 0
M  V30 58 H -4.461623 -5.905633 -3.471175 0
M  V30 59 H -3.300015 -5.562947 -2.169194 0
M  V30 60 H 0.478946 0.563893 4.954618 0
M  V30 61 H 1.999310 -0.141081 4.425433 0
M  V30 62 H 1.373475 2.341106 6.123696 0
M  V30 63 H 2.372739 0.923160 6.510849 0
M  V30 END ATOM
M  V30 BEGIN BOND
M  V30 1 1 1 2
M  V30 2 2 2 3
M  V30 3 2 2 4
M  V30 4 1 2 5
M  V30 5 1 5 6
M  V30 6 1 6 7
M  V30 7 1 7 8
M  V30 8 1 8 9
M  V30 9 2 9 10
M  V30 10 1 10 11
M  V30 11 2 11 12
M  V30 12 1 12 13
M  V30 13 2 13 14
M  V30 14 1 14 15
M  V30 15 2 15 16
M  V30 16 1 16 17
M  V30 17 1 17 18
M  V30 18 2 18 19
M  V30 19 1 19 20
M  V30 20 2 20 21
M  V30 21 1 21 22
M  V30 22 1 22 23
M  V30 23 1 23 24
M  V30 24 1 24 25
M  V30 25 1 25 26
M  V30 26 1 26 27
M  V30 27 1 27 28
M  V30 28 1 27 29
M  V30 29 1 29 30
M  V30 30 2 22 31
M  V30 31 1 8 32
M  V30 32 1 32 33
M  V30 33 1 33 5
M  V30 34 1 14 9
M  V30 35 1 31 18
M  V30 36 1 17 13
M  V30 37 1 30 24
M  V30 38 1 1 34
M  V30 39 1 1 35
M  V30 40 1 1 36
M  V30 41 1 5 37
M  V30 42 1 6 38
M  V30 43 1 6 39
M  V30 44 1 7 40
M  V30 45 1 7 41
M  V30 46 1 10 42
M  V30 47 1 11 43
M  V30 48 1 12 44
M  V30 49 1 15 45
M  V30 50 1 19 46
M  V30 51 1 20 47
M  V30 52 1 23 48
M  V30 53 1 24 49 CFG=1
M  V30 54 1 25 50
M  V30 55 1 25 51
M  V30 56 1 26 52
M  V30 57 1 26 53
M  V30 58 1 27 54 CFG=1
M  V30 59 1 28 55
M  V30 60 1 29 56
M  V30 61 1 29 57
M  V30 62 1 30 58
M  V30 63 1 30 59
M  V30 64 1 32 60
M  V30 65 1 32 61
M  V30 66 1 33 62
M  V30 67 1 33 63
M  V30 END BOND
M  V30 END CTAB
M  END
>  <Dataset>  (884) 
ChEMBL_Kinases

>  <Ligand_Instance>  (884) 
nan

>  <PDB_ID>  (884) 
nan

>  <Standardized_SMILES>  (884) 
CS(=O)(=O)C1CCN(c2cccc3c2cnn3-c2ccnc(N[C@H]3CC[C@H](O)CC3)n2)CC1

>  <Name>  (884) 
nan

>  <Pocket>  (884) 
nan

>  <ATP_Site>  (884) 
nan

>  <Peripheral>  (884) 
nan

>  <Num_H_Atoms_ProtBoundConf>  (884) 
nan

>  <Num_Resolved_Atoms>  (884) 
nan

>  <Num_Not_Resolved_Atoms>  (884) 
nan

$$$$
CHEMBL2392833
     RDKit          3D

  0  0  0  0  0  0  0  0  0  0999 V3000
M  V30 BEGIN CTAB
M  V30 COUNTS 64 68 0 0 0
M  V30 BEGIN ATOM
M  V30 1 C 6.447188 0.663842 3.671130 0
M  V30 2 S 5.267727 0.847109 4.999808 0
M  V30 3 O 5.651381 2.058865 5.781711 0
M  V30 4 O 5.389895 -0.367460 5.874765 0
M  V30 5 C 3.616578 0.945435 4.386210 0
M  V30 6 C 3.413747 2.146924 3.487909 0
M  V30 7 C 3.011623 1.695131 2.083494 0
M  V30 8 N 1.810459 0.847858 2.120118 0
M  V30 9 C 0.834255 1.004049 1.090340 0
M  V30 10 C 1.186365 1.659497 -0.070546 0
M  V30 11 C 0.336860 1.837685 -1.127111 0
M  V30 12 C -0.966485 1.344706 -1.068450 0
M  V30 13 C -1.346609 0.688661 0.072471 0
M  V30 14 C -0.458222 0.531152 1.114619 0
M  V30 15 C -1.140030 -0.144400 2.084987 0
M  V30 16 C -2.417704 -0.399927 1.655068 0
M  V30 17 N -2.518666 0.121408 0.417264 0
M  V30 18 C -3.676372 0.096201 -0.429568 0
M  V30 19 C -4.737418 0.976709 -0.393423 0
M  V30 20 C -5.757224 0.775981 -1.299891 0
M  V30 21 N -5.723107 -0.235783 -2.184987 0
M  V30 22 C -4.690285 -1.093078 -2.220411 0
M  V30 23 N -4.584593 -2.191436 -3.131930 0
M  V30 24 C -3.442300 -3.084708 -3.124415 0 CFG=1
M  V30 25 C -2.142169 -2.395947 -3.390167 0
M  V30 26 C -1.077055 -3.481363 -3.454954 0
M  V30 27 C -0.875225 -4.133300 -2.103672 0 CFG=2
M  V30 28 O -0.555305 -5.480368 -2.203404 0
M  V30 29 C -2.046098 -3.877851 -1.178738 0
M  V30 30 C -3.363731 -3.939882 -1.902611 0
M  V30 31 N -3.717184 -0.882159 -1.338116 0
M  V30 32 C 1.757667 -0.098883 3.216587 0
M  V30 33 C 3.212745 -0.323822 3.665544 0
M  V30 34 H 6.684725 1.635025 3.220839 0
M  V30 35 H 7.381652 0.273739 4.119468 0
M  V30 36 H 6.074398 -0.091329 2.943314 0
M  V30 37 H 2.926429 1.059499 5.246224 0
M  V30 38 H 2.620531 2.829628 3.846152 0
M  V30 39 H 4.386339 2.656794 3.376782 0
M  V30 40 H 3.872252 1.169519 1.661153 0
M  V30 41 H 2.709571 2.621382 1.549773 0
M  V30 42 H 2.148927 2.097735 -0.288923 0
M  V30 43 H 0.559914 2.343114 -2.059385 0
M  V30 44 H -1.667633 1.464973 -1.882403 0
M  V30 45 H -0.792779 -0.444139 3.037057 0
M  V30 46 H -3.197164 -0.920980 2.204874 0
M  V30 47 H -4.673035 1.762232 0.358682 0
M  V30 48 H -6.572346 1.479205 -1.248332 0
M  V30 49 H -5.401524 -2.288765 -3.798512 0
M  V30 50 H -3.605575 -3.790218 -3.990100 0
M  V30 51 H -1.843354 -1.738758 -2.529888 0
M  V30 52 H -2.109533 -1.891657 -4.366733 0
M  V30 53 H -1.462716 -4.290316 -4.141156 0
M  V30 54 H -0.155832 -3.104596 -3.907899 0
M  V30 55 H 0.013333 -3.638433 -1.632256 0
M  V30 56 H -1.351675 -6.062645 -2.363193 0
M  V30 57 H -2.035870 -4.737683 -0.453696 0
M  V30 58 H -1.921812 -2.922832 -0.654624 0
M  V30 59 H -3.650737 -5.011737 -2.094961 0
M  V30 60 H -4.143383 -3.586765 -1.177580 0
M  V30 61 H 1.223650 0.251823 4.100738 0
M  V30 62 H 1.436922 -1.094010 2.828696 0
M  V30 63 H 3.263958 -1.187566 4.365643 0
M  V30 64 H 3.792122 -0.538466 2.764331 0
M  V30 END ATOM
M  V30 BEGIN BOND
M  V30 1 1 1 2
M  V30 2 2 2 3
M  V30 3 2 2 4
M  V30 4 1 2 5
M  V30 5 1 5 6
M  V30 6 1 6 7
M  V30 7 1 7 8
M  V30 8 1 8 9
M  V30 9 2 9 10
M  V30 10 1 10 11
M  V30 11 2 11 12
M  V30 12 1 12 13
M  V30 13 2 13 14
M  V30 14 1 14 15
M  V30 15 2 15 16
M  V30 16 1 16 17
M  V30 17 1 17 18
M  V30 18 2 18 19
M  V30 19 1 19 20
M  V30 20 2 20 21
M  V30 21 1 21 22
M  V30 22 1 22 23
M  V30 23 1 23 24
M  V30 24 1 24 25
M  V30 25 1 25 26
M  V30 26 1 26 27
M  V30 27 1 27 28
M  V30 28 1 27 29
M  V30 29 1 29 30
M  V30 30 2 22 31
M  V30 31 1 8 32
M  V30 32 1 32 33
M  V30 33 1 33 5
M  V30 34 1 14 9
M  V30 35 1 31 18
M  V30 36 1 17 13
M  V30 37 1 30 24
M  V30 38 1 1 34
M  V30 39 1 1 35
M  V30 40 1 1 36
M  V30 41 1 5 37
M  V30 42 1 6 38
M  V30 43 1 6 39
M  V30 44 1 7 40
M  V30 45 1 7 41
M  V30 46 1 10 42
M  V30 47 1 11 43
M  V30 48 1 12 44
M  V30 49 1 15 45
M  V30 50 1 16 46
M  V30 51 1 19 47
M  V30 52 1 20 48
M  V30 53 1 23 49
M  V30 54 1 24 50 CFG=3
M  V30 55 1 25 51
M  V30 56 1 25 52
M  V30 57 1 26 53
M  V30 58 1 26 54
M  V30 59 1 27 55 CFG=1
M  V30 60 1 28 56
M  V30 61 1 29 57
M  V30 62 1 29 58
M  V30 63 1 30 59
M  V30 64 1 30 60
M  V30 65 1 32 61
M  V30 66 1 32 62
M  V30 67 1 33 63
M  V30 68 1 33 64
M  V30 END BOND
M  V30 END CTAB
M  END
>  <Dataset>  (885) 
ChEMBL_Kinases

>  <Ligand_Instance>  (885) 
nan

>  <PDB_ID>  (885) 
nan

>  <Standardized_SMILES>  (885) 
CS(=O)(=O)C1CCN(c2cccc3c2ccn3-c2ccnc(N[C@H]3CC[C@H](O)CC3)n2)CC1

>  <Name>  (885) 
nan

>  <Pocket>  (885) 
nan

>  <ATP_Site>  (885) 
nan

>  <Peripheral>  (885) 
nan

>  <Num_H_Atoms_ProtBoundConf>  (885) 
nan

>  <Num_Resolved_Atoms>  (885) 
nan

>  <Num_Not_Resolved_Atoms>  (885) 
nan

$$$$
CHEMBL2392834
     RDKit          3D

  0  0  0  0  0  0  0  0  0  0999 V3000
M  V30 BEGIN CTAB
M  V30 COUNTS 70 74 0 0 0
M  V30 BEGIN ATOM
M  V30 1 C 2.303496 -2.541062 3.503632 0
M  V30 2 C 3.429315 -1.944486 2.761888 0
M  V30 3 O 4.386902 -2.766024 2.686258 0
M  V30 4 N 3.465401 -0.642977 2.202302 0
M  V30 5 C 4.612872 -0.119414 1.481604 0 CFG=1
M  V30 6 C 4.269269 0.089329 0.021849 0
M  V30 7 C 3.401791 1.300426 -0.214233 0
M  V30 8 C 3.635042 2.376045 0.812679 0 CFG=2
M  V30 9 N 3.324948 3.694561 0.310698 0
M  V30 10 C 1.989673 3.975121 -0.138715 0
M  V30 11 N 1.645252 5.197667 -0.619461 0
M  V30 12 C 0.388604 5.427031 -1.031410 0
M  V30 13 C -0.578956 4.462310 -0.986577 0
M  V30 14 C -0.237571 3.216542 -0.499290 0
M  V30 15 N -1.045421 2.050880 -0.347629 0
M  V30 16 C -1.703140 1.755787 0.793821 0
M  V30 17 C -2.407390 0.559753 0.646020 0
M  V30 18 C -2.121391 0.176974 -0.645960 0
M  V30 19 C -2.569285 -0.947954 -1.306722 0
M  V30 20 N -3.425589 -1.962254 -0.802683 0
M  V30 21 C -4.772648 -1.829697 -0.314733 0
M  V30 22 C -5.362682 -3.222262 -0.187096 0
M  V30 23 C -4.564976 -4.078936 0.773129 0
M  V30 24 S -4.805274 -5.788946 0.341118 0
M  V30 25 C -3.852370 -6.819525 1.451223 0
M  V30 26 O -6.242849 -6.176373 0.388141 0
M  V30 27 O -4.279549 -6.087551 -1.035511 0
M  V30 28 C -3.077399 -3.805417 0.639370 0
M  V30 29 C -2.872934 -3.304464 -0.775888 0
M  V30 30 C -2.154371 -1.146698 -2.625609 0
M  V30 31 C -1.319644 -0.224413 -3.221513 0
M  V30 32 C -0.862949 0.912660 -2.563310 0
M  V30 33 C -1.286232 1.083481 -1.267479 0
M  V30 34 N 1.044545 3.029803 -0.093985 0
M  V30 35 C 5.075083 2.317214 1.242952 0
M  V30 36 C 5.228762 1.082602 2.124807 0
M  V30 37 H 1.417527 -1.874318 3.421596 0
M  V30 38 H 2.067497 -3.571379 3.129377 0
M  V30 39 H 2.561729 -2.614526 4.570826 0
M  V30 40 H 2.569618 -0.137182 2.382814 0
M  V30 41 H 5.366593 -0.941339 1.495280 0
M  V30 42 H 5.217734 0.120812 -0.558097 0
M  V30 43 H 3.678861 -0.810602 -0.277864 0
M  V30 44 H 3.693342 1.728267 -1.217098 0
M  V30 45 H 2.321453 1.016109 -0.309127 0
M  V30 46 H 3.026078 2.124846 1.710455 0
M  V30 47 H 4.036543 4.459398 0.260124 0
M  V30 48 H 0.065675 6.386789 -1.423027 0
M  V30 49 H -1.616882 4.525212 -1.286691 0
M  V30 50 H -1.697519 2.349756 1.704809 0
M  V30 51 H -3.016583 0.067800 1.363188 0
M  V30 52 H -5.342297 -1.335590 -1.144000 0
M  V30 53 H -4.865593 -1.261268 0.609277 0
M  V30 54 H -5.514290 -3.674667 -1.171699 0
M  V30 55 H -6.368513 -3.091359 0.276503 0
M  V30 56 H -4.912672 -3.962204 1.814966 0
M  V30 57 H -2.771739 -6.735722 1.235186 0
M  V30 58 H -4.042445 -6.588762 2.504327 0
M  V30 59 H -4.115824 -7.881638 1.265559 0
M  V30 60 H -2.468226 -4.702228 0.858740 0
M  V30 61 H -2.786462 -3.011062 1.368674 0
M  V30 62 H -1.819112 -3.363425 -1.094580 0
M  V30 63 H -3.445115 -3.949870 -1.478086 0
M  V30 64 H -2.465298 -2.008642 -3.210352 0
M  V30 65 H -1.009607 -0.396233 -4.243273 0
M  V30 66 H -0.206008 1.633982 -3.039445 0
M  V30 67 H 5.405093 3.213052 1.781177 0
M  V30 68 H 5.690367 2.085808 0.331556 0
M  V30 69 H 6.291874 0.941675 2.406866 0
M  V30 70 H 4.677636 1.324454 3.076859 0
M  V30 END ATOM
M  V30 BEGIN BOND
M  V30 1 1 1 2
M  V30 2 2 2 3
M  V30 3 1 2 4
M  V30 4 1 4 5
M  V30 5 1 5 6
M  V30 6 1 6 7
M  V30 7 1 7 8
M  V30 8 1 8 9
M  V30 9 1 9 10
M  V30 10 2 10 11
M  V30 11 1 11 12
M  V30 12 2 12 13
M  V30 13 1 13 14
M  V30 14 1 14 15
M  V30 15 1 15 16
M  V30 16 2 16 17
M  V30 17 1 17 18
M  V30 18 2 18 19
M  V30 19 1 19 20
M  V30 20 1 20 21
M  V30 21 1 21 22
M  V30 22 1 22 23
M  V30 23 1 23 24
M  V30 24 1 24 25
M  V30 25 2 24 26
M  V30 26 2 24 27
M  V30 27 1 23 28
M  V30 28 1 28 29
M  V30 29 1 19 30
M  V30 30 2 30 31
M  V30 31 1 31 32
M  V30 32 2 32 33
M  V30 33 2 14 34
M  V30 34 1 8 35
M  V30 35 1 35 36
M  V30 36 1 36 5
M  V30 37 1 34 10
M  V30 38 1 33 15
M  V30 39 1 33 18
M  V30 40 1 29 20
M  V30 41 1 1 37
M  V30 42 1 1 38
M  V30 43 1 1 39
M  V30 44 1 4 40
M  V30 45 1 5 41 CFG=3
M  V30 46 1 6 42
M  V30 47 1 6 43
M  V30 48 1 7 44
M  V30 49 1 7 45
M  V30 50 1 8 46 CFG=1
M  V30 51 1 9 47
M  V30 52 1 12 48
M  V30 53 1 13 49
M  V30 54 1 16 50
M  V30 55 1 17 51
M  V30 56 1 21 52
M  V30 57 1 21 53
M  V30 58 1 22 54
M  V30 59 1 22 55
M  V30 60 1 23 56
M  V30 61 1 25 57
M  V30 62 1 25 58
M  V30 63 1 25 59
M  V30 64 1 28 60
M  V30 65 1 28 61
M  V30 66 1 29 62
M  V30 67 1 29 63
M  V30 68 1 30 64
M  V30 69 1 31 65
M  V30 70 1 32 66
M  V30 71 1 35 67
M  V30 72 1 35 68
M  V30 73 1 36 69
M  V30 74 1 36 70
M  V30 END BOND
M  V30 END CTAB
M  END
>  <Dataset>  (886) 
ChEMBL_Kinases

>  <Ligand_Instance>  (886) 
nan

>  <PDB_ID>  (886) 
nan

>  <Standardized_SMILES>  (886) 
CC(=O)N[C@H]1CC[C@H](Nc2nccc(-n3ccc4c(N5CCC(S(C)(=O)=O)CC5)cccc43)n2)CC1

>  <Name>  (886) 
nan

>  <Pocket>  (886) 
nan

>  <ATP_Site>  (886) 
nan

>  <Peripheral>  (886) 
nan

>  <Num_H_Atoms_ProtBoundConf>  (886) 
nan

>  <Num_Resolved_Atoms>  (886) 
nan

>  <Num_Not_Resolved_Atoms>  (886) 
nan

$$$$
CHEMBL3702132
     RDKit          3D

  0  0  0  0  0  0  0  0  0  0999 V3000
M  V30 BEGIN CTAB
M  V30 COUNTS 68 73 0 0 0
M  V30 BEGIN ATOM
M  V30 1 C 2.968252 -1.964901 3.964952 0
M  V30 2 N 4.227012 -1.825398 3.218104 0
M  V30 3 C 4.393460 -2.997848 2.344640 0
M  V30 4 C 4.055781 -0.677297 2.354491 0
M  V30 5 C 3.738273 0.555835 3.175210 0
M  V30 6 C 3.314008 1.647605 2.210881 0
M  V30 7 N 4.091061 1.491363 0.971189 0
M  V30 8 C 3.796471 1.647853 -0.427085 0
M  V30 9 O 4.652513 1.464391 -1.346553 0
M  V30 10 C 2.393803 2.042416 -0.679315 0
M  V30 11 C 1.524227 0.957443 -0.497087 0
M  V30 12 C 0.178937 1.270889 -0.725301 0
M  V30 13 C -0.308618 2.503855 -1.094652 0
M  V30 14 N -1.648453 2.809911 -1.339648 0
M  V30 15 C -2.825119 2.024168 -1.347188 0
M  V30 16 N -4.087539 2.450048 -1.506659 0
M  V30 17 C -5.091492 1.567536 -1.509545 0
M  V30 18 C -4.854885 0.218763 -1.351251 0
M  V30 19 C -5.699261 -0.867142 -1.318985 0
M  V30 20 C -7.060889 -1.012562 -1.427157 0
M  V30 21 C -7.566016 -2.296295 -1.342941 0
M  V30 22 N -6.720832 -3.320475 -1.162698 0
M  V30 23 C -5.410144 -3.184994 -1.057522 0
M  V30 24 C -4.849533 -1.931479 -1.134398 0
M  V30 25 N -3.551459 -1.612981 -1.048891 0
M  V30 26 C -2.296085 -2.238971 -0.882575 0
M  V30 27 C -2.136639 -3.669792 -1.183880 0
M  V30 28 C -2.184919 -4.450712 0.088167 0
M  V30 29 C -2.536933 -3.442585 1.130163 0
M  V30 30 C -1.920271 -2.169480 0.598969 0
M  V30 31 C -3.576377 -0.248332 -1.187152 0
M  V30 32 N -2.665502 0.727107 -1.201883 0
M  V30 33 N 0.604665 3.472741 -1.241224 0
M  V30 34 C 1.910497 3.272434 -1.046576 0
M  V30 35 C 5.450079 1.069352 1.287387 0
M  V30 36 C 5.342115 -0.433217 1.557842 0
M  V30 37 H 2.782070 -3.034302 4.230907 0
M  V30 38 H 2.103939 -1.565846 3.416043 0
M  V30 39 H 3.106551 -1.401424 4.913454 0
M  V30 40 H 3.832455 -2.830442 1.388294 0
M  V30 41 H 5.439455 -3.140837 2.070928 0
M  V30 42 H 3.973833 -3.862858 2.930793 0
M  V30 43 H 3.210572 -0.873750 1.693124 0
M  V30 44 H 2.875254 0.324058 3.822955 0
M  V30 45 H 4.584460 0.927496 3.752943 0
M  V30 46 H 2.246160 1.560522 1.952253 0
M  V30 47 H 3.519095 2.628151 2.643478 0
M  V30 48 H 1.820810 -0.037907 -0.208586 0
M  V30 49 H -0.493156 0.441493 -0.582760 0
M  V30 50 H -1.905669 3.808314 -1.572840 0
M  V30 51 H -6.118198 1.877607 -1.637677 0
M  V30 52 H -7.659387 -0.109703 -1.574118 0
M  V30 53 H -8.654974 -2.403792 -1.432743 0
M  V30 54 H -4.805857 -4.057984 -0.907626 0
M  V30 55 H -1.474048 -1.616618 -1.401294 0
M  V30 56 H -2.763710 -4.133390 -1.932327 0
M  V30 57 H -1.045621 -3.787511 -1.538679 0
M  V30 58 H -1.243479 -5.007864 0.320240 0
M  V30 59 H -2.988489 -5.244107 0.094694 0
M  V30 60 H -3.637821 -3.348200 1.189879 0
M  V30 61 H -2.134905 -3.713185 2.130887 0
M  V30 62 H -0.816504 -2.228672 0.726369 0
M  V30 63 H -2.368320 -1.328962 1.120823 0
M  V30 64 H 2.659732 4.022614 -1.154524 0
M  V30 65 H 5.848772 1.592915 2.168465 0
M  V30 66 H 6.140288 1.202297 0.434680 0
M  V30 67 H 6.230354 -0.781048 2.082386 0
M  V30 68 H 5.268931 -0.907175 0.552516 0
M  V30 END ATOM
M  V30 BEGIN BOND
M  V30 1 1 1 2
M  V30 2 1 2 3
M  V30 3 1 2 4
M  V30 4 1 4 5
M  V30 5 1 5 6
M  V30 6 1 6 7
M  V30 7 1 7 8
M  V30 8 2 8 9
M  V30 9 1 8 10
M  V30 10 2 10 11
M  V30 11 1 11 12
M  V30 12 2 12 13
M  V30 13 1 13 14
M  V30 14 1 14 15
M  V30 15 2 15 16
M  V30 16 1 16 17
M  V30 17 2 17 18
M  V30 18 1 18 19
M  V30 19 2 19 20
M  V30 20 1 20 21
M  V30 21 2 21 22
M  V30 22 1 22 23
M  V30 23 2 23 24
M  V30 24 1 24 25
M  V30 25 1 25 26
M  V30 26 1 26 27
M  V30 27 1 27 28
M  V30 28 1 28 29
M  V30 29 1 29 30
M  V30 30 1 25 31
M  V30 31 2 31 32
M  V30 32 1 13 33
M  V30 33 2 33 34
M  V30 34 1 7 35
M  V30 35 1 35 36
M  V30 36 1 36 4
M  V30 37 1 34 10
M  V30 38 1 32 15
M  V30 39 1 31 18
M  V30 40 1 24 19
M  V30 41 1 30 26
M  V30 42 1 1 37
M  V30 43 1 1 38
M  V30 44 1 1 39
M  V30 45 1 3 40
M  V30 46 1 3 41
M  V30 47 1 3 42
M  V30 48 1 4 43
M  V30 49 1 5 44
M  V30 50 1 5 45
M  V30 51 1 6 46
M  V30 52 1 6 47
M  V30 53 1 11 48
M  V30 54 1 12 49
M  V30 55 1 14 50
M  V30 56 1 17 51
M  V30 57 1 20 52
M  V30 58 1 21 53
M  V30 59 1 23 54
M  V30 60 1 26 55
M  V30 61 1 27 56
M  V30 62 1 27 57
M  V30 63 1 28 58
M  V30 64 1 28 59
M  V30 65 1 29 60
M  V30 66 1 29 61
M  V30 67 1 30 62
M  V30 68 1 30 63
M  V30 69 1 34 64
M  V30 70 1 35 65
M  V30 71 1 35 66
M  V30 72 1 36 67
M  V30 73 1 36 68
M  V30 END BOND
M  V30 END CTAB
M  END
>  <Dataset>  (887) 
ChEMBL_Kinases

>  <Ligand_Instance>  (887) 
nan

>  <PDB_ID>  (887) 
nan

>  <Standardized_SMILES>  (887) 
CN(C)C1CCN(C(=O)c2ccc(Nc3ncc4c5ccncc5n(C5CCCC5)c4n3)nc2)CC1

>  <Name>  (887) 
nan

>  <Pocket>  (887) 
nan

>  <ATP_Site>  (887) 
nan

>  <Peripheral>  (887) 
nan

>  <Num_H_Atoms_ProtBoundConf>  (887) 
nan

>  <Num_Resolved_Atoms>  (887) 
nan

>  <Num_Not_Resolved_Atoms>  (887) 
nan

$$$$
CHEMBL2392835
     RDKit          3D

  0  0  0  0  0  0  0  0  0  0999 V3000
M  V30 BEGIN CTAB
M  V30 COUNTS 67 71 0 0 0
M  V30 BEGIN ATOM
M  V30 1 C 7.113649 0.191088 2.499622 0
M  V30 2 S 6.930671 1.187456 3.957496 0
M  V30 3 O 7.140776 0.259900 5.146368 0
M  V30 4 O 7.979106 2.266350 3.981032 0
M  V30 5 C 5.314495 1.855926 4.119668 0
M  V30 6 C 4.949649 2.774300 2.972961 0
M  V30 7 C 3.522645 3.204273 3.024833 0
M  V30 8 N 2.587970 2.072557 3.127699 0
M  V30 9 C 1.657608 1.896225 2.070252 0
M  V30 10 C 2.074695 2.322003 0.808393 0
M  V30 11 C 1.270744 2.151146 -0.285052 0
M  V30 12 C 0.032209 1.556738 -0.171978 0
M  V30 13 C -0.422285 1.121906 1.049537 0
M  V30 14 C 0.413256 1.310641 2.126105 0
M  V30 15 C -0.239788 0.823026 3.207010 0
M  V30 16 C -1.466799 0.333449 2.816258 0
M  V30 17 N -1.549128 0.530996 1.487833 0
M  V30 18 C -2.635058 0.187413 0.633489 0
M  V30 19 C -3.938512 0.670138 0.757742 0
M  V30 20 C -4.869362 0.230189 -0.161518 0
M  V30 21 N -4.524802 -0.631089 -1.136816 0
M  V30 22 C -3.251965 -1.089605 -1.241609 0
M  V30 23 N -2.913555 -2.000544 -2.283234 0
M  V30 24 C -3.903297 -2.436426 -3.220347 0 CFG=1
M  V30 25 C -3.279108 -3.400255 -4.222503 0
M  V30 26 C -2.699500 -4.603378 -3.483385 0
M  V30 27 C -3.708132 -5.173332 -2.529067 0 CFG=1
M  V30 28 C -3.804729 -6.680680 -2.717791 0
M  V30 29 O -3.237231 -4.928322 -1.238488 0
M  V30 30 C -5.086729 -4.584146 -2.741844 0
M  V30 31 C -5.048011 -3.085938 -2.493828 0
M  V30 32 N -2.327456 -0.673486 -0.355384 0
M  V30 33 C 2.928565 1.388647 4.356989 0
M  V30 34 C 4.320359 0.742951 4.210688 0
M  V30 35 H 6.127364 0.022452 1.988014 0
M  V30 36 H 7.487120 -0.842281 2.734806 0
M  V30 37 H 7.810633 0.712943 1.815311 0
M  V30 38 H 5.198332 2.486948 5.043188 0
M  V30 39 H 5.120155 2.249917 2.030083 0
M  V30 40 H 5.563658 3.696830 2.978735 0
M  V30 41 H 3.394953 3.817809 3.951737 0
M  V30 42 H 3.260465 3.872068 2.186382 0
M  V30 43 H 3.001410 2.797546 0.526769 0
M  V30 44 H 1.505717 2.447747 -1.305175 0
M  V30 45 H -0.630837 1.404052 -1.013698 0
M  V30 46 H 0.033290 0.773947 4.243730 0
M  V30 47 H -2.244252 -0.125797 3.411146 0
M  V30 48 H -4.111498 1.360305 1.578474 0
M  V30 49 H -5.873239 0.616427 -0.047148 0
M  V30 50 H -1.941374 -2.341441 -2.351001 0
M  V30 51 H -4.220186 -1.550015 -3.805574 0
M  V30 52 H -4.037820 -3.772014 -4.917826 0
M  V30 53 H -2.419539 -2.905644 -4.697173 0
M  V30 54 H -2.394232 -5.325793 -4.267626 0
M  V30 55 H -1.742122 -4.327666 -2.971570 0
M  V30 56 H -2.771602 -7.127049 -2.755532 0
M  V30 57 H -4.364058 -7.172773 -1.920484 0
M  V30 58 H -4.236706 -6.835899 -3.720474 0
M  V30 59 H -2.648944 -5.624951 -0.886234 0
M  V30 60 H -5.404383 -4.805911 -3.761251 0
M  V30 61 H -5.783187 -5.012920 -2.016900 0
M  V30 62 H -6.014336 -2.658375 -2.830042 0
M  V30 63 H -4.989389 -2.953514 -1.396287 0
M  V30 64 H 2.942004 2.074127 5.229465 0
M  V30 65 H 2.278532 0.518832 4.582096 0
M  V30 66 H 4.307369 0.122577 3.290147 0
M  V30 67 H 4.476516 0.117181 5.107556 0
M  V30 END ATOM
M  V30 BEGIN BOND
M  V30 1 1 1 2
M  V30 2 2 2 3
M  V30 3 2 2 4
M  V30 4 1 2 5
M  V30 5 1 5 6
M  V30 6 1 6 7
M  V30 7 1 7 8
M  V30 8 1 8 9
M  V30 9 2 9 10
M  V30 10 1 10 11
M  V30 11 2 11 12
M  V30 12 1 12 13
M  V30 13 2 13 14
M  V30 14 1 14 15
M  V30 15 2 15 16
M  V30 16 1 16 17
M  V30 17 1 17 18
M  V30 18 2 18 19
M  V30 19 1 19 20
M  V30 20 2 20 21
M  V30 21 1 21 22
M  V30 22 1 22 23
M  V30 23 1 23 24
M  V30 24 1 24 25
M  V30 25 1 25 26
M  V30 26 1 26 27
M  V30 27 1 27 28
M  V30 28 1 27 29 CFG=1
M  V30 29 1 27 30
M  V30 30 1 30 31
M  V30 31 2 22 32
M  V30 32 1 8 33
M  V30 33 1 33 34
M  V30 34 1 34 5
M  V30 35 1 14 9
M  V30 36 1 32 18
M  V30 37 1 17 13
M  V30 38 1 31 24
M  V30 39 1 1 35
M  V30 40 1 1 36
M  V30 41 1 1 37
M  V30 42 1 5 38
M  V30 43 1 6 39
M  V30 44 1 6 40
M  V30 45 1 7 41
M  V30 46 1 7 42
M  V30 47 1 10 43
M  V30 48 1 11 44
M  V30 49 1 12 45
M  V30 50 1 15 46
M  V30 51 1 16 47
M  V30 52 1 19 48
M  V30 53 1 20 49
M  V30 54 1 23 50
M  V30 55 1 24 51 CFG=3
M  V30 56 1 25 52
M  V30 57 1 25 53
M  V30 58 1 26 54
M  V30 59 1 26 55
M  V30 60 1 28 56
M  V30 61 1 28 57
M  V30 62 1 28 58
M  V30 63 1 29 59
M  V30 64 1 30 60
M  V30 65 1 30 61
M  V30 66 1 31 62
M  V30 67 1 31 63
M  V30 68 1 33 64
M  V30 69 1 33 65
M  V30 70 1 34 66
M  V30 71 1 34 67
M  V30 END BOND
M  V30 END CTAB
M  END
>  <Dataset>  (888) 
ChEMBL_Kinases

>  <Ligand_Instance>  (888) 
nan

>  <PDB_ID>  (888) 
nan

>  <Standardized_SMILES>  (888) 
CS(=O)(=O)C1CCN(c2cccc3c2ccn3-c2ccnc(N[C@H]3CC[C@@](C)(O)CC3)n2)CC1

>  <Name>  (888) 
nan

>  <Pocket>  (888) 
nan

>  <ATP_Site>  (888) 
nan

>  <Peripheral>  (888) 
nan

>  <Num_H_Atoms_ProtBoundConf>  (888) 
nan

>  <Num_Resolved_Atoms>  (888) 
nan

>  <Num_Not_Resolved_Atoms>  (888) 
nan

$$$$
CHEMBL2392836
     RDKit          3D

  0  0  0  0  0  0  0  0  0  0999 V3000
M  V30 BEGIN CTAB
M  V30 COUNTS 71 75 0 0 0
M  V30 BEGIN ATOM
M  V30 1 C 3.184957 6.470688 4.048488 0
M  V30 2 C 4.199050 5.729477 3.199629 0
M  V30 3 O 3.768675 4.363669 3.157468 0
M  V30 4 C 4.499186 3.421938 2.448067 0
M  V30 5 O 5.349067 4.293603 2.093704 0
M  V30 6 C 4.181223 1.977119 2.312883 0 CFG=1
M  V30 7 C 2.826965 1.864615 1.665536 0
M  V30 8 C 2.694111 0.621438 0.814053 0
M  V30 9 C 3.589721 -0.500017 1.261526 0 CFG=2
M  V30 10 N 3.237809 -0.980287 2.592725 0
M  V30 11 C 1.963302 -1.527945 2.902130 0
M  V30 12 N 1.697915 -1.955879 4.166127 0
M  V30 13 C 0.489175 -2.472882 4.447257 0
M  V30 14 C -0.525010 -2.602708 3.520853 0
M  V30 15 C -0.237114 -2.163340 2.244849 0
M  V30 16 N -1.240220 -2.267327 1.235298 0
M  V30 17 N -1.687788 -3.461548 0.822923 0
M  V30 18 C -2.630891 -3.286980 -0.134944 0
M  V30 19 C -2.734984 -1.928037 -0.285043 0
M  V30 20 C -3.529624 -1.130034 -1.113560 0
M  V30 21 N -4.449253 -1.729093 -2.022289 0
M  V30 22 C -5.550066 -2.586347 -1.741599 0
M  V30 23 C -5.616023 -3.840797 -2.525298 0
M  V30 24 C -4.937254 -3.864078 -3.832308 0
M  V30 25 S -4.142470 -5.423671 -4.184036 0
M  V30 26 C -2.853677 -5.811995 -3.064725 0
M  V30 27 O -5.144855 -6.568338 -4.111638 0
M  V30 28 O -3.602764 -5.442468 -5.586424 0
M  V30 29 C -3.933633 -2.788165 -4.071175 0
M  V30 30 C -4.298139 -1.469790 -3.439773 0
M  V30 31 C -3.390105 0.254992 -1.018401 0
M  V30 32 C -2.507600 0.870461 -0.147849 0
M  V30 33 C -1.721248 0.084618 0.671905 0
M  V30 34 C -1.866020 -1.265445 0.570321 0
M  V30 35 N 0.986106 -1.654067 2.013528 0
M  V30 36 C 5.025862 -0.090428 1.179784 0
M  V30 37 C 5.228528 1.389436 1.405939 0
M  V30 38 H 3.585329 7.477918 4.290440 0
M  V30 39 H 3.029566 5.922215 4.988453 0
M  V30 40 H 2.250284 6.521625 3.465078 0
M  V30 41 H 5.203463 5.855178 3.612376 0
M  V30 42 H 4.228349 6.136129 2.164518 0
M  V30 43 H 4.215161 1.471101 3.313637 0
M  V30 44 H 2.031963 1.869328 2.442602 0
M  V30 45 H 2.662253 2.768217 1.045233 0
M  V30 46 H 2.962294 0.878310 -0.230085 0
M  V30 47 H 1.649323 0.254973 0.767933 0
M  V30 48 H 3.429245 -1.339335 0.551846 0
M  V30 49 H 3.961891 -0.913448 3.341178 0
M  V30 50 H 0.394714 -2.777357 5.479598 0
M  V30 51 H -1.467767 -3.025590 3.815135 0
M  V30 52 H -3.174566 -4.056230 -0.658495 0
M  V30 53 H -5.546892 -2.768318 -0.633775 0
M  V30 54 H -6.485396 -1.988272 -1.917517 0
M  V30 55 H -6.698229 -4.152610 -2.609895 0
M  V30 56 H -5.181778 -4.661835 -1.881080 0
M  V30 57 H -5.720340 -3.760293 -4.617012 0
M  V30 58 H -3.204148 -6.257794 -2.113441 0
M  V30 59 H -2.086207 -6.453434 -3.547462 0
M  V30 60 H -2.294970 -4.880279 -2.766805 0
M  V30 61 H -2.934002 -3.080184 -3.688898 0
M  V30 62 H -3.787231 -2.588264 -5.155476 0
M  V30 63 H -3.448105 -0.785458 -3.647754 0
M  V30 64 H -5.189980 -1.007706 -3.907004 0
M  V30 65 H -4.040290 0.829782 -1.693800 0
M  V30 66 H -2.440572 1.948899 -0.115840 0
M  V30 67 H -1.023544 0.490969 1.362915 0
M  V30 68 H 5.409144 -0.348117 0.175609 0
M  V30 69 H 5.614471 -0.689969 1.914110 0
M  V30 70 H 6.245798 1.542308 1.806235 0
M  V30 71 H 5.165128 1.907727 0.421111 0
M  V30 END ATOM
M  V30 BEGIN BOND
M  V30 1 1 1 2
M  V30 2 1 2 3
M  V30 3 1 3 4
M  V30 4 2 4 5
M  V30 5 1 4 6
M  V30 6 1 6 7
M  V30 7 1 7 8
M  V30 8 1 8 9
M  V30 9 1 9 10
M  V30 10 1 10 11
M  V30 11 2 11 12
M  V30 12 1 12 13
M  V30 13 2 13 14
M  V30 14 1 14 15
M  V30 15 1 15 16
M  V30 16 1 16 17
M  V30 17 2 17 18
M  V30 18 1 18 19
M  V30 19 2 19 20
M  V30 20 1 20 21
M  V30 21 1 21 22
M  V30 22 1 22 23
M  V30 23 1 23 24
M  V30 24 1 24 25
M  V30 25 1 25 26
M  V30 26 2 25 27
M  V30 27 2 25 28
M  V30 28 1 24 29
M  V30 29 1 29 30
M  V30 30 1 20 31
M  V30 31 2 31 32
M  V30 32 1 32 33
M  V30 33 2 33 34
M  V30 34 2 15 35
M  V30 35 1 9 36
M  V30 36 1 36 37
M  V30 37 1 37 6
M  V30 38 1 35 11
M  V30 39 1 34 16
M  V30 40 1 34 19
M  V30 41 1 30 21
M  V30 42 1 1 38
M  V30 43 1 1 39
M  V30 44 1 1 40
M  V30 45 1 2 41
M  V30 46 1 2 42
M  V30 47 1 6 43 CFG=1
M  V30 48 1 7 44
M  V30 49 1 7 45
M  V30 50 1 8 46
M  V30 51 1 8 47
M  V30 52 1 9 48 CFG=3
M  V30 53 1 10 49
M  V30 54 1 13 50
M  V30 55 1 14 51
M  V30 56 1 18 52
M  V30 57 1 22 53
M  V30 58 1 22 54
M  V30 59 1 23 55
M  V30 60 1 23 56
M  V30 61 1 24 57
M  V30 62 1 26 58
M  V30 63 1 26 59
M  V30 64 1 26 60
M  V30 65 1 29 61
M  V30 66 1 29 62
M  V30 67 1 30 63
M  V30 68 1 30 64
M  V30 69 1 31 65
M  V30 70 1 32 66
M  V30 71 1 33 67
M  V30 72 1 36 68
M  V30 73 1 36 69
M  V30 74 1 37 70
M  V30 75 1 37 71
M  V30 END BOND
M  V30 END CTAB
M  END
>  <Dataset>  (889) 
ChEMBL_Kinases

>  <Ligand_Instance>  (889) 
nan

>  <PDB_ID>  (889) 
nan

>  <Standardized_SMILES>  (889) 
CCOC(=O)[C@H]1CC[C@H](Nc2nccc(-n3ncc4c(N5CCC(S(C)(=O)=O)CC5)cccc43)n2)CC1

>  <Name>  (889) 
nan

>  <Pocket>  (889) 
nan

>  <ATP_Site>  (889) 
nan

>  <Peripheral>  (889) 
nan

>  <Num_H_Atoms_ProtBoundConf>  (889) 
nan

>  <Num_Resolved_Atoms>  (889) 
nan

>  <Num_Not_Resolved_Atoms>  (889) 
nan

$$$$
CHEMBL2392837
     RDKit          3D

  0  0  0  0  0  0  0  0  0  0999 V3000
M  V30 BEGIN CTAB
M  V30 COUNTS 72 76 0 0 0
M  V30 BEGIN ATOM
M  V30 1 C 1.726822 -2.698699 2.677038 0
M  V30 2 C 2.824945 -3.076677 1.691449 0
M  V30 3 O 2.907744 -1.977198 0.785937 0
M  V30 4 C 3.806639 -1.929950 -0.276949 0
M  V30 5 O 4.175013 -3.054845 0.131784 0
M  V30 6 C 3.594636 -0.624982 -0.997100 0 CFG=1
M  V30 7 C 3.812700 0.546082 -0.104151 0
M  V30 8 C 4.578486 1.683731 -0.670742 0
M  V30 9 C 4.445146 1.938945 -2.127713 0 CFG=2
M  V30 10 N 3.739039 3.160655 -2.465938 0
M  V30 11 C 2.404884 3.527306 -2.166972 0
M  V30 12 N 1.726362 4.673255 -2.472957 0
M  V30 13 C 0.447038 4.803526 -2.084332 0
M  V30 14 C -0.259199 3.849562 -1.381900 0
M  V30 15 C 0.441726 2.712624 -1.087924 0
M  V30 16 N -0.240564 1.685606 -0.361853 0
M  V30 17 C 0.023280 1.230347 0.898764 0
M  V30 18 C -0.891840 0.217298 1.204331 0
M  V30 19 C -1.663903 0.123942 0.087838 0
M  V30 20 C -2.722511 -0.743511 -0.102421 0
M  V30 21 N -3.253313 -1.733706 0.771646 0
M  V30 22 C -2.444541 -2.870420 1.168593 0
M  V30 23 C -3.253172 -3.900419 1.920683 0
M  V30 24 C -4.202163 -3.076250 2.802963 0
M  V30 25 S -4.848853 -4.153820 4.033928 0
M  V30 26 C -5.796146 -5.427325 3.246851 0
M  V30 27 O -3.677907 -4.823632 4.700298 0
M  V30 28 O -5.606119 -3.439676 5.092707 0
M  V30 29 C -5.240497 -2.545892 1.837380 0
M  V30 30 C -4.594086 -1.379225 1.114578 0
M  V30 31 C -3.374430 -0.653220 -1.341619 0
M  V30 32 C -3.001320 0.243974 -2.338539 0
M  V30 33 C -1.937392 1.096430 -2.114109 0
M  V30 34 C -1.297999 1.009899 -0.901621 0
M  V30 35 N 1.719594 2.619023 -1.493538 0
M  V30 36 C 3.933178 0.763588 -2.934503 0
M  V30 37 C 4.448905 -0.494019 -2.219955 0
M  V30 38 H 0.749372 -2.971051 2.245100 0
M  V30 39 H 1.855473 -3.184804 3.661967 0
M  V30 40 H 1.811123 -1.596198 2.886216 0
M  V30 41 H 2.456108 -3.973215 1.135869 0
M  V30 42 H 3.771412 -3.259818 2.232435 0
M  V30 43 H 2.530451 -0.664148 -1.370873 0
M  V30 44 H 4.387564 0.150263 0.788294 0
M  V30 45 H 2.832091 0.832624 0.331073 0
M  V30 46 H 4.277504 2.605849 -0.123328 0
M  V30 47 H 5.667032 1.538729 -0.390598 0
M  V30 48 H 5.489133 2.110413 -2.535178 0
M  V30 49 H 4.176232 3.964668 -3.009993 0
M  V30 50 H 0.049646 5.779484 -2.408167 0
M  V30 51 H -1.283400 4.069972 -1.126227 0
M  V30 52 H 0.812583 1.605371 1.535446 0
M  V30 53 H -0.940407 -0.330446 2.116062 0
M  V30 54 H -2.004551 -3.372189 0.273204 0
M  V30 55 H -1.596375 -2.592602 1.821155 0
M  V30 56 H -3.888504 -4.452772 1.216409 0
M  V30 57 H -2.559874 -4.513359 2.503338 0
M  V30 58 H -3.596359 -2.248224 3.217214 0
M  V30 59 H -5.252862 -5.724085 2.316635 0
M  V30 60 H -6.756447 -4.968116 2.950263 0
M  V30 61 H -5.902216 -6.314079 3.879014 0
M  V30 62 H -6.159394 -2.229831 2.375233 0
M  V30 63 H -5.464941 -3.362724 1.100026 0
M  V30 64 H -4.524471 -0.579161 1.897826 0
M  V30 65 H -5.207981 -1.041089 0.253048 0
M  V30 66 H -4.225207 -1.297370 -1.589929 0
M  V30 67 H -3.541633 0.268688 -3.275664 0
M  V30 68 H -1.614106 1.804515 -2.854484 0
M  V30 69 H 2.842956 0.692002 -2.990623 0
M  V30 70 H 4.352497 0.770945 -3.968519 0
M  V30 71 H 4.396675 -1.388703 -2.846186 0
M  V30 72 H 5.492963 -0.330000 -1.897354 0
M  V30 END ATOM
M  V30 BEGIN BOND
M  V30 1 1 1 2
M  V30 2 1 2 3
M  V30 3 1 3 4
M  V30 4 2 4 5
M  V30 5 1 4 6
M  V30 6 1 6 7
M  V30 7 1 7 8
M  V30 8 1 8 9
M  V30 9 1 9 10
M  V30 10 1 10 11
M  V30 11 2 11 12
M  V30 12 1 12 13
M  V30 13 2 13 14
M  V30 14 1 14 15
M  V30 15 1 15 16
M  V30 16 1 16 17
M  V30 17 2 17 18
M  V30 18 1 18 19
M  V30 19 2 19 20
M  V30 20 1 20 21
M  V30 21 1 21 22
M  V30 22 1 22 23
M  V30 23 1 23 24
M  V30 24 1 24 25
M  V30 25 1 25 26
M  V30 26 2 25 27
M  V30 27 2 25 28
M  V30 28 1 24 29
M  V30 29 1 29 30
M  V30 30 1 20 31
M  V30 31 2 31 32
M  V30 32 1 32 33
M  V30 33 2 33 34
M  V30 34 2 15 35
M  V30 35 1 9 36
M  V30 36 1 36 37
M  V30 37 1 37 6
M  V30 38 1 35 11
M  V30 39 1 34 16
M  V30 40 1 34 19
M  V30 41 1 30 21
M  V30 42 1 1 38
M  V30 43 1 1 39
M  V30 44 1 1 40
M  V30 45 1 2 41
M  V30 46 1 2 42
M  V30 47 1 6 43 CFG=3
M  V30 48 1 7 44
M  V30 49 1 7 45
M  V30 50 1 8 46
M  V30 51 1 8 47
M  V30 52 1 9 48 CFG=3
M  V30 53 1 10 49
M  V30 54 1 13 50
M  V30 55 1 14 51
M  V30 56 1 17 52
M  V30 57 1 18 53
M  V30 58 1 22 54
M  V30 59 1 22 55
M  V30 60 1 23 56
M  V30 61 1 23 57
M  V30 62 1 24 58
M  V30 63 1 26 59
M  V30 64 1 26 60
M  V30 65 1 26 61
M  V30 66 1 29 62
M  V30 67 1 29 63
M  V30 68 1 30 64
M  V30 69 1 30 65
M  V30 70 1 31 66
M  V30 71 1 32 67
M  V30 72 1 33 68
M  V30 73 1 36 69
M  V30 74 1 36 70
M  V30 75 1 37 71
M  V30 76 1 37 72
M  V30 END BOND
M  V30 END CTAB
M  END
>  <Dataset>  (890) 
ChEMBL_Kinases

>  <Ligand_Instance>  (890) 
nan

>  <PDB_ID>  (890) 
nan

>  <Standardized_SMILES>  (890) 
CCOC(=O)[C@H]1CC[C@H](Nc2nccc(-n3ccc4c(N5CCC(S(C)(=O)=O)CC5)cccc43)n2)CC1

>  <Name>  (890) 
nan

>  <Pocket>  (890) 
nan

>  <ATP_Site>  (890) 
nan

>  <Peripheral>  (890) 
nan

>  <Num_H_Atoms_ProtBoundConf>  (890) 
nan

>  <Num_Resolved_Atoms>  (890) 
nan

>  <Num_Not_Resolved_Atoms>  (890) 
nan

$$$$
CHEMBL2392838
     RDKit          3D

  0  0  0  0  0  0  0  0  0  0999 V3000
M  V30 BEGIN CTAB
M  V30 COUNTS 81 86 0 0 0
M  V30 BEGIN ATOM
M  V30 1 C 5.762942 6.240285 7.155210 0
M  V30 2 S 4.906971 4.693379 7.278856 0
M  V30 3 O 4.647817 4.412172 8.729830 0
M  V30 4 O 5.713812 3.538092 6.757660 0
M  V30 5 C 3.359196 4.842230 6.424673 0
M  V30 6 C 2.659556 3.530626 6.498316 0
M  V30 7 C 1.326837 3.611088 5.781278 0
M  V30 8 N 1.527049 4.026570 4.381700 0
M  V30 9 C 1.126735 3.214057 3.280975 0
M  V30 10 C 2.188511 2.896912 2.455338 0
M  V30 11 C 1.998019 2.115539 1.332970 0
M  V30 12 C 0.717059 1.650540 1.044166 0
M  V30 13 C -0.337123 1.963481 1.861785 0
M  V30 14 C -0.134695 2.744212 2.979513 0
M  V30 15 C -1.292658 2.963575 3.689899 0
M  V30 16 C -2.253416 2.271807 2.954479 0
M  V30 17 N -1.674594 1.685944 1.876776 0
M  V30 18 C -2.237990 0.889253 0.842749 0
M  V30 19 C -2.943580 1.577638 -0.135495 0
M  V30 20 C -3.484687 0.804854 -1.137718 0
M  V30 21 N -3.342501 -0.529426 -1.172691 0
M  V30 22 C -2.662452 -1.193094 -0.228954 0
M  V30 23 N -2.471528 -2.598212 -0.208546 0
M  V30 24 C -2.981036 -3.487768 -1.242909 0 CFG=1
M  V30 25 C -2.251970 -3.130756 -2.520053 0
M  V30 26 C -0.854482 -3.708525 -2.587224 0
M  V30 27 C -0.841487 -5.196014 -2.480458 0 CFG=2
M  V30 28 C -0.269611 -5.908814 -3.624052 0
M  V30 29 O 0.711093 -6.694263 -3.363212 0
M  V30 30 N -0.645576 -5.861689 -5.026148 0
M  V30 31 C -1.674831 -5.124617 -5.735051 0
M  V30 32 C -2.146317 -6.007614 -6.892192 0
M  V30 33 C -1.055456 -5.873787 -7.957632 0
M  V30 34 O -1.191784 -4.656571 -8.598231 0
M  V30 35 C 0.301246 -5.933872 -7.254028 0
M  V30 36 C 0.138686 -6.694567 -5.946611 0
M  V30 37 C -2.193549 -5.707859 -2.061403 0
M  V30 38 C -2.762609 -4.918877 -0.911113 0
M  V30 39 N -2.145788 -0.445593 0.730281 0
M  V30 40 C 2.177547 5.337928 4.353893 0
M  V30 41 C 3.559546 5.199766 4.967111 0
M  V30 42 H 5.291078 6.867386 6.371972 0
M  V30 43 H 5.731705 6.741661 8.138495 0
M  V30 44 H 6.821913 6.007408 6.882712 0
M  V30 45 H 2.734273 5.629146 6.865925 0
M  V30 46 H 3.288467 2.703314 6.078064 0
M  V30 47 H 2.409491 3.278789 7.553128 0
M  V30 48 H 0.716814 4.376423 6.260601 0
M  V30 49 H 0.905547 2.599181 5.841764 0
M  V30 50 H 3.230044 3.194850 2.567242 0
M  V30 51 H 2.786939 1.821949 0.632353 0
M  V30 52 H 0.557644 1.038416 0.169492 0
M  V30 53 H -1.417369 3.528961 4.586357 0
M  V30 54 H -3.310417 2.196482 3.185160 0
M  V30 55 H -3.116007 2.633906 -0.202266 0
M  V30 56 H -4.072424 1.144025 -1.995427 0
M  V30 57 H -1.949501 -3.041838 0.560757 0
M  V30 58 H -4.066568 -3.223552 -1.328041 0
M  V30 59 H -2.912968 -3.433567 -3.331936 0
M  V30 60 H -2.216996 -2.008393 -2.578791 0
M  V30 61 H -0.345313 -3.359393 -3.500314 0
M  V30 62 H -0.288307 -3.270871 -1.741888 0
M  V30 63 H -0.174366 -5.434461 -1.588312 0
M  V30 64 H -1.277088 -4.160649 -6.117638 0
M  V30 65 H -2.577700 -4.937526 -5.125171 0
M  V30 66 H -2.229002 -7.045183 -6.514866 0
M  V30 67 H -3.115419 -5.604733 -7.234152 0
M  V30 68 H -1.109604 -6.671112 -8.722738 0
M  V30 69 H -1.978457 -4.140690 -8.260153 0
M  V30 70 H 0.654110 -4.924557 -7.007386 0
M  V30 71 H 1.015901 -6.434001 -7.924243 0
M  V30 72 H 1.168134 -6.841069 -5.559501 0
M  V30 73 H -0.336498 -7.658983 -6.140743 0
M  V30 74 H -2.878394 -5.684602 -2.917278 0
M  V30 75 H -2.048375 -6.777996 -1.801237 0
M  V30 76 H -2.004696 -4.974985 -0.088603 0
M  V30 77 H -3.736012 -5.335140 -0.577079 0
M  V30 78 H 1.600278 6.013318 5.015691 0
M  V30 79 H 2.206880 5.755092 3.334872 0
M  V30 80 H 4.119281 4.337234 4.505619 0
M  V30 81 H 4.110563 6.130796 4.844997 0
M  V30 END ATOM
M  V30 BEGIN BOND
M  V30 1 1 1 2
M  V30 2 2 2 3
M  V30 3 2 2 4
M  V30 4 1 2 5
M  V30 5 1 5 6
M  V30 6 1 6 7
M  V30 7 1 7 8
M  V30 8 1 8 9
M  V30 9 2 9 10
M  V30 10 1 10 11
M  V30 11 2 11 12
M  V30 12 1 12 13
M  V30 13 2 13 14
M  V30 14 1 14 15
M  V30 15 2 15 16
M  V30 16 1 16 17
M  V30 17 1 17 18
M  V30 18 2 18 19
M  V30 19 1 19 20
M  V30 20 2 20 21
M  V30 21 1 21 22
M  V30 22 1 22 23
M  V30 23 1 23 24
M  V30 24 1 24 25
M  V30 25 1 25 26
M  V30 26 1 26 27
M  V30 27 1 27 28
M  V30 28 2 28 29
M  V30 29 1 28 30
M  V30 30 1 30 31
M  V30 31 1 31 32
M  V30 32 1 32 33
M  V30 33 1 33 34
M  V30 34 1 33 35
M  V30 35 1 35 36
M  V30 36 1 27 37
M  V30 37 1 37 38
M  V30 38 2 22 39
M  V30 39 1 8 40
M  V30 40 1 40 41
M  V30 41 1 41 5
M  V30 42 1 14 9
M  V30 43 1 39 18
M  V30 44 1 17 13
M  V30 45 1 38 24
M  V30 46 1 36 30
M  V30 47 1 1 42
M  V30 48 1 1 43
M  V30 49 1 1 44
M  V30 50 1 5 45
M  V30 51 1 6 46
M  V30 52 1 6 47
M  V30 53 1 7 48
M  V30 54 1 7 49
M  V30 55 1 10 50
M  V30 56 1 11 51
M  V30 57 1 12 52
M  V30 58 1 15 53
M  V30 59 1 16 54
M  V30 60 1 19 55
M  V30 61 1 20 56
M  V30 62 1 23 57
M  V30 63 1 24 58 CFG=3
M  V30 64 1 25 59
M  V30 65 1 25 60
M  V30 66 1 26 61
M  V30 67 1 26 62
M  V30 68 1 27 63 CFG=1
M  V30 69 1 31 64
M  V30 70 1 31 65
M  V30 71 1 32 66
M  V30 72 1 32 67
M  V30 73 1 33 68
M  V30 74 1 34 69
M  V30 75 1 35 70
M  V30 76 1 35 71
M  V30 77 1 36 72
M  V30 78 1 36 73
M  V30 79 1 37 74
M  V30 80 1 37 75
M  V30 81 1 38 76
M  V30 82 1 38 77
M  V30 83 1 40 78
M  V30 84 1 40 79
M  V30 85 1 41 80
M  V30 86 1 41 81
M  V30 END BOND
M  V30 END CTAB
M  END
>  <Dataset>  (891) 
ChEMBL_Kinases

>  <Ligand_Instance>  (891) 
nan

>  <PDB_ID>  (891) 
nan

>  <Standardized_SMILES>  (891) 
CS(=O)(=O)C1CCN(c2cccc3c2ccn3-c2ccnc(N[C@H]3CC[C@H](C(=O)N4CCC(O)CC4)CC3)n2)CC1

>  <Name>  (891) 
nan

>  <Pocket>  (891) 
nan

>  <ATP_Site>  (891) 
nan

>  <Peripheral>  (891) 
nan

>  <Num_H_Atoms_ProtBoundConf>  (891) 
nan

>  <Num_Resolved_Atoms>  (891) 
nan

>  <Num_Not_Resolved_Atoms>  (891) 
nan

$$$$
CHEMBL2392839
     RDKit          3D

  0  0  0  0  0  0  0  0  0  0999 V3000
M  V30 BEGIN CTAB
M  V30 COUNTS 84 89 0 0 0
M  V30 BEGIN ATOM
M  V30 1 C 1.701330 -4.827203 3.084647 0
M  V30 2 C 2.312138 -4.824720 1.683067 0
M  V30 3 O 2.704705 -3.570852 1.288171 0
M  V30 4 C 3.269271 -3.524719 0.016067 0
M  V30 5 C 4.679400 -3.056015 0.136630 0
M  V30 6 C 4.793990 -1.752349 -0.580665 0
M  V30 7 N 3.479677 -1.466006 -1.132753 0
M  V30 8 C 2.943890 -0.361185 -1.831268 0
M  V30 9 O 1.778492 -0.171415 -2.290211 0
M  V30 10 C 3.611420 0.886829 -2.218960 0 CFG=1
M  V30 11 C 2.687860 1.827202 -2.958167 0
M  V30 12 C 1.790055 2.621231 -2.027786 0
M  V30 13 C 2.584434 3.298939 -0.935777 0 CFG=2
M  V30 14 N 2.200586 4.684849 -0.764612 0
M  V30 15 C 0.825807 4.923424 -0.398957 0
M  V30 16 N 0.336862 6.164060 -0.213231 0
M  V30 17 C -0.938253 6.364851 0.130398 0
M  V30 18 C -1.819513 5.322021 0.313150 0
M  V30 19 C -1.332677 4.045926 0.126889 0
M  V30 20 N -2.029671 2.786162 0.256918 0
M  V30 21 C -3.239057 2.397658 -0.235198 0
M  V30 22 C -3.500181 1.100078 0.144409 0
M  V30 23 C -2.418371 0.711549 0.879720 0
M  V30 24 C -2.058594 -0.448728 1.537209 0
M  V30 25 N -2.902101 -1.604335 1.547965 0
M  V30 26 C -4.240469 -1.730775 2.063801 0
M  V30 27 C -4.529489 -3.211347 2.223231 0
M  V30 28 C -4.473759 -3.903740 0.892578 0
M  V30 29 S -5.957834 -3.735499 -0.063755 0
M  V30 30 C -5.733775 -4.704807 -1.559943 0
M  V30 31 O -7.103828 -4.281135 0.697457 0
M  V30 32 O -6.149024 -2.310989 -0.478819 0
M  V30 33 C -3.318782 -3.481803 0.048321 0
M  V30 34 C -2.322715 -2.800105 0.963725 0
M  V30 35 C -0.871588 -0.583374 2.225451 0
M  V30 36 C 0.034778 0.455557 2.294483 0
M  V30 37 C -0.305413 1.624788 1.644602 0
M  V30 38 C -1.507103 1.735127 0.957670 0
M  V30 39 N -0.041529 3.913071 -0.218132 0
M  V30 40 C 4.038713 3.106879 -1.204070 0
M  V30 41 C 4.301602 1.599238 -1.087799 0
M  V30 42 C 2.568730 -2.572644 -0.888040 0
M  V30 43 H 2.511799 -5.056498 3.812277 0
M  V30 44 H 1.304127 -3.826984 3.368352 0
M  V30 45 H 0.927296 -5.606630 3.106876 0
M  V30 46 H 3.199387 -5.498197 1.688411 0
M  V30 47 H 1.576264 -5.210764 0.935716 0
M  V30 48 H 3.268029 -4.574543 -0.401045 0
M  V30 49 H 5.408545 -3.780529 -0.302504 0
M  V30 50 H 4.993480 -2.968038 1.214930 0
M  V30 51 H 5.120818 -0.994908 0.142304 0
M  V30 52 H 5.566714 -1.794947 -1.375469 0
M  V30 53 H 4.410523 0.620568 -2.968959 0
M  V30 54 H 2.000283 1.236535 -3.608446 0
M  V30 55 H 3.211124 2.550110 -3.611646 0
M  V30 56 H 1.007982 1.942744 -1.667560 0
M  V30 57 H 1.318209 3.396673 -2.663804 0
M  V30 58 H 2.363345 2.749147 0.023254 0
M  V30 59 H 2.807261 5.516275 -0.877810 0
M  V30 60 H -1.364715 7.347410 0.289118 0
M  V30 61 H -2.867073 5.344818 0.587961 0
M  V30 62 H -3.860622 3.047393 -0.827696 0
M  V30 63 H -4.343813 0.490544 -0.064827 0
M  V30 64 H -4.382143 -1.185618 3.021351 0
M  V30 65 H -4.938046 -1.381686 1.275108 0
M  V30 66 H -3.768015 -3.676432 2.896324 0
M  V30 67 H -5.561786 -3.375770 2.636682 0
M  V30 68 H -4.380044 -5.018679 1.076371 0
M  V30 69 H -5.398745 -4.057670 -2.393295 0
M  V30 70 H -4.958212 -5.490463 -1.428986 0
M  V30 71 H -6.671300 -5.241900 -1.798073 0
M  V30 72 H -3.581411 -2.874179 -0.845126 0
M  V30 73 H -2.785367 -4.366355 -0.358149 0
M  V30 74 H -1.447071 -2.565786 0.326858 0
M  V30 75 H -2.033615 -3.541844 1.721540 0
M  V30 76 H -0.564310 -1.491403 2.751308 0
M  V30 77 H 0.975574 0.389344 2.823891 0
M  V30 78 H 0.405008 2.444504 1.696383 0
M  V30 79 H 4.666540 3.543127 -0.374329 0
M  V30 80 H 4.391256 3.412347 -2.192362 0
M  V30 81 H 5.402365 1.509487 -1.167936 0
M  V30 82 H 3.908366 1.211030 -0.126868 0
M  V30 83 H 2.389698 -3.104531 -1.865856 0
M  V30 84 H 1.588551 -2.226556 -0.492353 0
M  V30 END ATOM
M  V30 BEGIN BOND
M  V30 1 1 1 2
M  V30 2 1 2 3
M  V30 3 1 3 4
M  V30 4 1 4 5
M  V30 5 1 5 6
M  V30 6 1 6 7
M  V30 7 1 7 8
M  V30 8 2 8 9
M  V30 9 1 8 10
M  V30 10 1 10 11
M  V30 11 1 11 12
M  V30 12 1 12 13
M  V30 13 1 13 14
M  V30 14 1 14 15
M  V30 15 2 15 16
M  V30 16 1 16 17
M  V30 17 2 17 18
M  V30 18 1 18 19
M  V30 19 1 19 20
M  V30 20 1 20 21
M  V30 21 2 21 22
M  V30 22 1 22 23
M  V30 23 2 23 24
M  V30 24 1 24 25
M  V30 25 1 25 26
M  V30 26 1 26 27
M  V30 27 1 27 28
M  V30 28 1 28 29
M  V30 29 1 29 30
M  V30 30 2 29 31
M  V30 31 2 29 32
M  V30 32 1 28 33
M  V30 33 1 33 34
M  V30 34 1 24 35
M  V30 35 2 35 36
M  V30 36 1 36 37
M  V30 37 2 37 38
M  V30 38 2 19 39
M  V30 39 1 13 40
M  V30 40 1 40 41
M  V30 41 1 7 42
M  V30 42 1 42 4
M  V30 43 1 41 10
M  V30 44 1 39 15
M  V30 45 1 38 20
M  V30 46 1 38 23
M  V30 47 1 34 25
M  V30 48 1 1 43
M  V30 49 1 1 44
M  V30 50 1 1 45
M  V30 51 1 2 46
M  V30 52 1 2 47
M  V30 53 1 4 48
M  V30 54 1 5 49
M  V30 55 1 5 50
M  V30 56 1 6 51
M  V30 57 1 6 52
M  V30 58 1 10 53 CFG=3
M  V30 59 1 11 54
M  V30 60 1 11 55
M  V30 61 1 12 56
M  V30 62 1 12 57
M  V30 63 1 13 58 CFG=1
M  V30 64 1 14 59
M  V30 65 1 17 60
M  V30 66 1 18 61
M  V30 67 1 21 62
M  V30 68 1 22 63
M  V30 69 1 26 64
M  V30 70 1 26 65
M  V30 71 1 27 66
M  V30 72 1 27 67
M  V30 73 1 28 68
M  V30 74 1 30 69
M  V30 75 1 30 70
M  V30 76 1 30 71
M  V30 77 1 33 72
M  V30 78 1 33 73
M  V30 79 1 34 74
M  V30 80 1 34 75
M  V30 81 1 35 76
M  V30 82 1 36 77
M  V30 83 1 37 78
M  V30 84 1 40 79
M  V30 85 1 40 80
M  V30 86 1 41 81
M  V30 87 1 41 82
M  V30 88 1 42 83
M  V30 89 1 42 84
M  V30 END BOND
M  V30 END CTAB
M  END
>  <Dataset>  (892) 
ChEMBL_Kinases

>  <Ligand_Instance>  (892) 
nan

>  <PDB_ID>  (892) 
nan

>  <Standardized_SMILES>  (892) 
CCOC1CCN(C(=O)[C@H]2CC[C@H](Nc3nccc(-n4ccc5c(N6CCC(S(C)(=O)=O)CC6)cccc54)n3)CC2)C1

>  <Name>  (892) 
nan

>  <Pocket>  (892) 
nan

>  <ATP_Site>  (892) 
nan

>  <Peripheral>  (892) 
nan

>  <Num_H_Atoms_ProtBoundConf>  (892) 
nan

>  <Num_Resolved_Atoms>  (892) 
nan

>  <Num_Not_Resolved_Atoms>  (892) 
nan

$$$$
CHEMBL2392831
     RDKit          3D

  0  0  0  0  0  0  0  0  0  0999 V3000
M  V30 BEGIN CTAB
M  V30 COUNTS 67 71 0 0 0
M  V30 BEGIN ATOM
M  V30 1 C 3.225873 -2.593280 4.276802 0
M  V30 2 S 3.397427 -0.970984 4.969536 0
M  V30 3 O 2.365780 -0.809238 6.047443 0
M  V30 4 O 4.755569 -0.834475 5.601739 0
M  V30 5 N 3.194162 0.236931 3.741070 0
M  V30 6 C 4.181142 0.131653 2.714857 0 CFG=1
M  V30 7 C 3.616390 -0.118863 1.336394 0
M  V30 8 C 3.397844 1.160067 0.555952 0
M  V30 9 C 3.075144 2.320349 1.440238 0 CFG=2
M  V30 10 N 2.762138 3.481445 0.662920 0
M  V30 11 C 1.701979 3.596759 -0.276741 0
M  V30 12 N 1.470463 4.745373 -0.975242 0
M  V30 13 C 0.460435 4.820992 -1.857168 0
M  V30 14 C -0.387467 3.762200 -2.105172 0
M  V30 15 C -0.154853 2.599618 -1.399646 0
M  V30 16 N -0.876607 1.373042 -1.472425 0
M  V30 17 C -0.517029 0.522901 -2.481049 0
M  V30 18 C -1.318551 -0.621325 -2.404204 0
M  V30 19 C -2.173294 -0.429484 -1.313480 0
M  V30 20 C -3.175151 -1.174792 -0.727860 0
M  V30 21 O -3.415562 -2.405907 -1.338963 0
M  V30 22 C -4.404609 -3.306185 -0.878133 0
M  V30 23 C -4.422375 -4.546646 -1.744772 0
M  V30 24 C -3.123662 -5.285340 -1.750484 0
M  V30 25 C -3.023008 -6.019964 -0.421926 0
M  V30 26 S -4.676287 -6.676723 -0.328658 0
M  V30 27 O -4.727150 -8.040904 -0.951847 0
M  V30 28 O -5.190701 -6.662541 1.080789 0
M  V30 29 C -5.524787 -5.490326 -1.364203 0
M  V30 30 C -3.848996 -0.679892 0.377790 0
M  V30 31 C -3.514002 0.558686 0.888875 0
M  V30 32 C -2.503120 1.343687 0.321499 0
M  V30 33 C -1.871112 0.799855 -0.772567 0
M  V30 34 N 0.873709 2.597980 -0.534519 0
M  V30 35 C 4.190529 2.616749 2.419999 0
M  V30 36 C 5.020514 1.377094 2.674941 0
M  V30 37 H 3.914142 -3.279901 4.791172 0
M  V30 38 H 3.452916 -2.626741 3.193915 0
M  V30 39 H 2.176983 -2.948983 4.467247 0
M  V30 40 H 3.313773 1.147279 4.231222 0
M  V30 41 H 4.854837 -0.717891 2.961556 0
M  V30 42 H 4.351292 -0.719847 0.770966 0
M  V30 43 H 2.694560 -0.729673 1.425043 0
M  V30 44 H 4.319872 1.437178 -0.008382 0
M  V30 45 H 2.522391 0.958344 -0.093807 0
M  V30 46 H 2.156870 2.073376 2.037184 0
M  V30 47 H 3.365216 4.346760 0.784853 0
M  V30 48 H 0.263977 5.722510 -2.417427 0
M  V30 49 H -1.221259 3.719692 -2.786986 0
M  V30 50 H 0.231482 0.576379 -3.278393 0
M  V30 51 H -1.308499 -1.497446 -3.041723 0
M  V30 52 H -5.396230 -2.833548 -0.935261 0
M  V30 53 H -4.145473 -3.539840 0.171674 0
M  V30 54 H -4.600362 -4.211679 -2.793967 0
M  V30 55 H -2.323059 -4.552245 -1.891696 0
M  V30 56 H -3.154879 -6.042079 -2.542880 0
M  V30 57 H -2.247626 -6.799005 -0.500759 0
M  V30 58 H -2.839101 -5.326203 0.429350 0
M  V30 59 H -6.307475 -5.000575 -0.740433 0
M  V30 60 H -5.959193 -5.971455 -2.248474 0
M  V30 61 H -4.616343 -1.314540 0.781429 0
M  V30 62 H -4.051613 0.926509 1.751796 0
M  V30 63 H -2.242533 2.320949 0.728210 0
M  V30 64 H 4.842520 3.384120 1.977203 0
M  V30 65 H 3.759584 2.946523 3.384872 0
M  V30 66 H 5.592338 1.450974 3.619041 0
M  V30 67 H 5.770877 1.222330 1.866448 0
M  V30 END ATOM
M  V30 BEGIN BOND
M  V30 1 1 1 2
M  V30 2 2 2 3
M  V30 3 2 2 4
M  V30 4 1 2 5
M  V30 5 1 5 6
M  V30 6 1 6 7
M  V30 7 1 7 8
M  V30 8 1 8 9
M  V30 9 1 9 10
M  V30 10 1 10 11
M  V30 11 2 11 12
M  V30 12 1 12 13
M  V30 13 2 13 14
M  V30 14 1 14 15
M  V30 15 1 15 16
M  V30 16 1 16 17
M  V30 17 2 17 18
M  V30 18 1 18 19
M  V30 19 2 19 20
M  V30 20 1 20 21
M  V30 21 1 21 22
M  V30 22 1 22 23
M  V30 23 1 23 24
M  V30 24 1 24 25
M  V30 25 1 25 26
M  V30 26 2 26 27
M  V30 27 2 26 28
M  V30 28 1 26 29
M  V30 29 1 20 30
M  V30 30 2 30 31
M  V30 31 1 31 32
M  V30 32 2 32 33
M  V30 33 2 15 34
M  V30 34 1 9 35
M  V30 35 1 35 36
M  V30 36 1 36 6
M  V30 37 1 34 11
M  V30 38 1 33 16
M  V30 39 1 33 19
M  V30 40 1 29 23
M  V30 41 1 1 37
M  V30 42 1 1 38
M  V30 43 1 1 39
M  V30 44 1 5 40
M  V30 45 1 6 41 CFG=1
M  V30 46 1 7 42
M  V30 47 1 7 43
M  V30 48 1 8 44
M  V30 49 1 8 45
M  V30 50 1 9 46 CFG=1
M  V30 51 1 10 47
M  V30 52 1 13 48
M  V30 53 1 14 49
M  V30 54 1 17 50
M  V30 55 1 18 51
M  V30 56 1 22 52
M  V30 57 1 22 53
M  V30 58 1 23 54
M  V30 59 1 24 55
M  V30 60 1 24 56
M  V30 61 1 25 57
M  V30 62 1 25 58
M  V30 63 1 29 59
M  V30 64 1 29 60
M  V30 65 1 30 61
M  V30 66 1 31 62
M  V30 67 1 32 63
M  V30 68 1 35 64
M  V30 69 1 35 65
M  V30 70 1 36 66
M  V30 71 1 36 67
M  V30 END BOND
M  V30 END CTAB
M  END
>  <Dataset>  (893) 
ChEMBL_Kinases

>  <Ligand_Instance>  (893) 
nan

>  <PDB_ID>  (893) 
nan

>  <Standardized_SMILES>  (893) 
CS(=O)(=O)N[C@H]1CC[C@H](Nc2nccc(-n3ccc4c(OCC5CCS(=O)(=O)C5)cccc43)n2)CC1

>  <Name>  (893) 
nan

>  <Pocket>  (893) 
nan

>  <ATP_Site>  (893) 
nan

>  <Peripheral>  (893) 
nan

>  <Num_H_Atoms_ProtBoundConf>  (893) 
nan

>  <Num_Resolved_Atoms>  (893) 
nan

>  <Num_Not_Resolved_Atoms>  (893) 
nan

$$$$
CHEMBL3695571
     RDKit          3D

  0  0  0  0  0  0  0  0  0  0999 V3000
M  V30 BEGIN CTAB
M  V30 COUNTS 70 75 0 0 0
M  V30 BEGIN ATOM
M  V30 1 C -0.104556 2.216847 6.214023 0
M  V30 2 O 1.129306 2.363052 5.565889 0
M  V30 3 C 1.313270 2.387474 4.199296 0
M  V30 4 C 2.584473 2.537828 3.668888 0
M  V30 5 C 2.718056 2.556353 2.290479 0
M  V30 6 C 1.603544 2.427181 1.470760 0
M  V30 7 N 1.964094 2.472343 0.075544 0
M  V30 8 N 1.977436 3.610258 -0.634281 0
M  V30 9 C 2.345601 3.363096 -1.889132 0
M  V30 10 C 2.500775 4.308495 -3.026096 0
M  V30 11 C 2.935392 3.658334 -4.299474 0
M  V30 12 C 1.117999 4.907170 -3.283565 0
M  V30 13 C 3.414733 5.455652 -2.654593 0
M  V30 14 C 2.570908 2.002981 -1.956808 0
M  V30 15 C 2.333866 1.428290 -0.723796 0
M  V30 16 N 2.393970 0.111821 -0.189487 0
M  V30 17 C 1.291244 -0.781290 -0.196315 0
M  V30 18 O 0.267517 -0.282373 -0.722141 0
M  V30 19 N 1.267084 -2.101811 0.312434 0
M  V30 20 C 0.187573 -3.007210 0.317957 0
M  V30 21 C -1.069219 -2.773879 -0.179140 0
M  V30 22 C -2.126411 -3.656710 -0.175232 0
M  V30 23 C -1.939228 -4.906510 0.374273 0
M  V30 24 O -2.913445 -5.863502 0.435068 0
M  V30 25 C -4.202967 -5.690277 -0.025875 0
M  V30 26 C -4.518278 -6.582948 -1.037949 0
M  V30 27 C -5.790922 -6.540359 -1.615387 0
M  V30 28 N -6.709685 -5.630054 -1.185905 0
M  V30 29 C -6.406940 -4.763880 -0.205136 0
M  V30 30 N -7.037405 -3.774163 0.445772 0
M  V30 31 C -6.234063 -3.221489 1.371150 0
M  V30 32 O -6.531819 -2.265190 2.151661 0
M  V30 33 N -5.040724 -3.859713 1.333884 0
M  V30 34 C -5.157100 -4.789342 0.377657 0
M  V30 35 C -0.669684 -5.186242 0.893509 0
M  V30 36 N -0.506212 -6.406065 1.423392 0
M  V30 37 C 0.663062 -6.798109 1.954193 0
M  V30 38 C 1.744815 -5.942451 1.968728 0
M  V30 39 C 1.549036 -4.704412 1.421290 0
M  V30 40 C 0.372721 -4.251637 0.864459 0
M  V30 41 C 0.338780 2.277578 2.004142 0
M  V30 42 C 0.203208 2.258830 3.377343 0
M  V30 43 H -0.813907 3.048190 6.047476 0
M  V30 44 H 0.110009 2.182739 7.314808 0
M  V30 45 H -0.588446 1.246351 5.972076 0
M  V30 46 H 3.410346 2.633368 4.360761 0
M  V30 47 H 3.738810 2.676908 1.953956 0
M  V30 48 H 3.480723 2.718140 -4.193804 0
M  V30 49 H 3.608529 4.353732 -4.863980 0
M  V30 50 H 2.091043 3.455144 -5.016122 0
M  V30 51 H 0.375560 4.084751 -3.383750 0
M  V30 52 H 0.794300 5.560039 -2.454995 0
M  V30 53 H 1.106861 5.420818 -4.274551 0
M  V30 54 H 3.622802 6.002368 -3.596890 0
M  V30 55 H 2.919323 6.184408 -1.975751 0
M  V30 56 H 4.392367 5.120034 -2.263470 0
M  V30 57 H 2.882210 1.378081 -2.776909 0
M  V30 58 H 3.269401 -0.240508 0.231087 0
M  V30 59 H 2.198561 -2.309697 0.694606 0
M  V30 60 H -1.320260 -1.829880 -0.629407 0
M  V30 61 H -3.084472 -3.426043 -0.579622 0
M  V30 62 H -3.864815 -7.343124 -1.451785 0
M  V30 63 H -6.173838 -7.165916 -2.403392 0
M  V30 64 H -8.026045 -3.473009 0.256320 0
M  V30 65 H -4.191515 -3.661203 1.938989 0
M  V30 66 H 0.689194 -7.800885 2.354846 0
M  V30 67 H 2.681957 -6.264287 2.397132 0
M  V30 68 H 2.402498 -4.074513 1.450419 0
M  V30 69 H -0.438920 2.187801 1.258697 0
M  V30 70 H -0.820312 2.137901 3.740282 0
M  V30 END ATOM
M  V30 BEGIN BOND
M  V30 1 1 1 2
M  V30 2 1 2 3
M  V30 3 2 3 4
M  V30 4 1 4 5
M  V30 5 2 5 6
M  V30 6 1 6 7
M  V30 7 1 7 8
M  V30 8 2 8 9
M  V30 9 1 9 10
M  V30 10 1 10 11
M  V30 11 1 10 12
M  V30 12 1 10 13
M  V30 13 1 9 14
M  V30 14 2 14 15
M  V30 15 1 15 16
M  V30 16 1 16 17
M  V30 17 2 17 18
M  V30 18 1 17 19
M  V30 19 1 19 20
M  V30 20 2 20 21
M  V30 21 1 21 22
M  V30 22 2 22 23
M  V30 23 1 23 24
M  V30 24 1 24 25
M  V30 25 2 25 26
M  V30 26 1 26 27
M  V30 27 2 27 28
M  V30 28 1 28 29
M  V30 29 1 29 30
M  V30 30 1 30 31
M  V30 31 2 31 32
M  V30 32 1 31 33
M  V30 33 1 33 34
M  V30 34 1 23 35
M  V30 35 2 35 36
M  V30 36 1 36 37
M  V30 37 2 37 38
M  V30 38 1 38 39
M  V30 39 2 39 40
M  V30 40 1 6 41
M  V30 41 2 41 42
M  V30 42 1 42 3
M  V30 43 1 15 7
M  V30 44 1 40 20
M  V30 45 1 34 25
M  V30 46 1 40 35
M  V30 47 2 34 29
M  V30 48 1 1 43
M  V30 49 1 1 44
M  V30 50 1 1 45
M  V30 51 1 4 46
M  V30 52 1 5 47
M  V30 53 1 11 48
M  V30 54 1 11 49
M  V30 55 1 11 50
M  V30 56 1 12 51
M  V30 57 1 12 52
M  V30 58 1 12 53
M  V30 59 1 13 54
M  V30 60 1 13 55
M  V30 61 1 13 56
M  V30 62 1 14 57
M  V30 63 1 16 58
M  V30 64 1 19 59
M  V30 65 1 21 60
M  V30 66 1 22 61
M  V30 67 1 26 62
M  V30 68 1 27 63
M  V30 69 1 30 64
M  V30 70 1 33 65
M  V30 71 1 37 66
M  V30 72 1 38 67
M  V30 73 1 39 68
M  V30 74 1 41 69
M  V30 75 1 42 70
M  V30 END BOND
M  V30 END CTAB
M  END
>  <Dataset>  (894) 
ChEMBL_Kinases

>  <Ligand_Instance>  (894) 
nan

>  <PDB_ID>  (894) 
nan

>  <Standardized_SMILES>  (894) 
COc1ccc(-n2nc(C(C)(C)C)cc2NC(=O)Nc2ccc(Oc3ccnc4[nH]c(=O)[nH]c34)c3ncccc23)cc1

>  <Name>  (894) 
nan

>  <Pocket>  (894) 
nan

>  <ATP_Site>  (894) 
nan

>  <Peripheral>  (894) 
nan

>  <Num_H_Atoms_ProtBoundConf>  (894) 
nan

>  <Num_Resolved_Atoms>  (894) 
nan

>  <Num_Not_Resolved_Atoms>  (894) 
nan

$$$$
CHEMBL4570088
     RDKit          3D

  0  0  0  0  0  0  0  0  0  0999 V3000
M  V30 BEGIN CTAB
M  V30 COUNTS 22 23 0 0 0
M  V30 BEGIN ATOM
M  V30 1 N -1.007836 -2.229793 2.572091 0
M  V30 2 C 0.406761 -2.476465 2.580075 0
M  V30 3 S 1.452016 -3.654311 3.184853 0
M  V30 4 N 3.038647 -2.917737 2.584310 0
M  V30 5 N 2.570299 -1.860482 1.994830 0
M  V30 6 C 1.296920 -1.636302 1.986363 0
M  V30 7 C 0.977501 -0.381350 1.263776 0
M  V30 8 C -0.079316 -0.442959 0.377435 0
M  V30 9 C -0.512345 0.617139 -0.372164 0
M  V30 10 C 0.134567 1.826859 -0.246878 0
M  V30 11 C -0.261184 3.039365 -1.018693 0
M  V30 12 F -1.262131 3.655590 -0.257157 0
M  V30 13 F 0.823526 3.885610 -1.137803 0
M  V30 14 F -0.731065 2.638749 -2.246764 0
M  V30 15 C 1.185192 1.902094 0.629283 0
M  V30 16 C 1.618693 0.845900 1.377889 0
M  V30 17 H -1.229256 -1.527418 3.321116 0
M  V30 18 H -1.718049 -2.676998 1.922609 0
M  V30 19 H -0.644695 -1.359836 0.217964 0
M  V30 20 H -1.340569 0.575854 -1.069271 0
M  V30 21 H 1.725742 2.829612 0.763626 0
M  V30 22 H 2.443105 0.839297 2.088769 0
M  V30 END ATOM
M  V30 BEGIN BOND
M  V30 1 1 1 2
M  V30 2 1 2 3
M  V30 3 1 3 4
M  V30 4 2 4 5
M  V30 5 1 5 6
M  V30 6 1 6 7
M  V30 7 2 7 8
M  V30 8 1 8 9
M  V30 9 2 9 10
M  V30 10 1 10 11
M  V30 11 1 11 12
M  V30 12 1 11 13
M  V30 13 1 11 14
M  V30 14 1 10 15
M  V30 15 2 15 16
M  V30 16 2 6 2
M  V30 17 1 16 7
M  V30 18 1 1 17
M  V30 19 1 1 18
M  V30 20 1 8 19
M  V30 21 1 9 20
M  V30 22 1 15 21
M  V30 23 1 16 22
M  V30 END BOND
M  V30 END CTAB
M  END
>  <Dataset>  (895) 
ChEMBL_Kinases

>  <Ligand_Instance>  (895) 
nan

>  <PDB_ID>  (895) 
nan

>  <Standardized_SMILES>  (895) 
Nc1snnc1-c1ccc(C(F)(F)F)cc1

>  <Name>  (895) 
nan

>  <Pocket>  (895) 
nan

>  <ATP_Site>  (895) 
nan

>  <Peripheral>  (895) 
nan

>  <Num_H_Atoms_ProtBoundConf>  (895) 
nan

>  <Num_Resolved_Atoms>  (895) 
nan

>  <Num_Not_Resolved_Atoms>  (895) 
nan

$$$$
CHEMBL3695570
     RDKit          3D

  0  0  0  0  0  0  0  0  0  0999 V3000
M  V30 BEGIN CTAB
M  V30 COUNTS 66 71 0 0 0
M  V30 BEGIN ATOM
M  V30 1 C 5.929133 -3.528648 1.279815 0
M  V30 2 C 4.893423 -3.480909 0.193331 0
M  V30 3 C 3.764405 -4.434562 0.605095 0
M  V30 4 C 5.369762 -3.942961 -1.143922 0
M  V30 5 C 4.363964 -2.071143 0.134758 0
M  V30 6 C 3.383531 -1.614521 -0.749198 0
M  V30 7 C 3.215572 -0.267654 -0.443759 0
M  V30 8 N 2.232345 0.414330 -1.249787 0
M  V30 9 C 0.881252 0.454291 -0.827427 0
M  V30 10 O 0.598793 -0.103397 0.226639 0
M  V30 11 N -0.169759 1.095890 -1.540559 0
M  V30 12 C -1.438525 1.003095 -0.921805 0
M  V30 13 C -2.001421 1.871703 -0.008620 0
M  V30 14 C -3.264153 1.609221 0.487398 0
M  V30 15 C -4.028474 0.507529 0.125680 0
M  V30 16 O -5.268266 0.414761 0.727957 0
M  V30 17 C -5.712895 -0.599054 1.537595 0
M  V30 18 C -5.093802 -1.749845 1.976414 0
M  V30 19 C -5.728449 -2.652090 2.798055 0
M  V30 20 N -7.009242 -2.429088 3.208206 0
M  V30 21 C -7.648545 -1.310871 2.798096 0
M  V30 22 N -8.901644 -0.930032 3.099960 0
M  V30 23 C -9.092053 0.241052 2.465940 0
M  V30 24 O -10.150263 0.913775 2.506432 0
M  V30 25 N -7.976228 0.568139 1.790263 0
M  V30 26 C -7.022167 -0.378956 1.961764 0
M  V30 27 C -3.452264 -0.351727 -0.788330 0
M  V30 28 N -4.203385 -1.413327 -1.132862 0
M  V30 29 C -3.688895 -2.280984 -2.022971 0
M  V30 30 C -2.427883 -2.143216 -2.605733 0
M  V30 31 C -1.726651 -1.043412 -2.207473 0
M  V30 32 C -2.191324 -0.112656 -1.299800 0
M  V30 33 N 4.039822 0.042072 0.549277 0
M  V30 34 C 4.055371 1.361370 1.041186 0
M  V30 35 C 5.041597 2.168727 0.455998 0
M  V30 36 C 5.146126 3.484060 0.865640 0
M  V30 37 C 4.339667 4.038872 1.810124 0
M  V30 38 C 3.369103 3.242981 2.385485 0
M  V30 39 C 3.230002 1.917569 2.003355 0
M  V30 40 N 4.727281 -1.025425 0.899929 0
M  V30 41 H 5.513059 -2.951171 2.142441 0
M  V30 42 H 6.847528 -3.023839 0.961399 0
M  V30 43 H 6.059047 -4.573173 1.622354 0
M  V30 44 H 2.949921 -3.811950 1.034239 0
M  V30 45 H 4.083686 -5.125605 1.412509 0
M  V30 46 H 3.353506 -4.966215 -0.273375 0
M  V30 47 H 4.533316 -4.435544 -1.698221 0
M  V30 48 H 5.794485 -3.148611 -1.786589 0
M  V30 49 H 6.112424 -4.763763 -0.969641 0
M  V30 50 H 2.924544 -2.293258 -1.484486 0
M  V30 51 H 2.455669 0.904787 -2.167680 0
M  V30 52 H 0.092187 1.570796 -2.446431 0
M  V30 53 H -1.400904 2.706910 0.254399 0
M  V30 54 H -3.620888 2.338365 1.191490 0
M  V30 55 H -4.082283 -1.848830 1.609375 0
M  V30 56 H -5.169131 -3.536607 3.099497 0
M  V30 57 H -9.602321 -1.418763 3.697249 0
M  V30 58 H -7.836064 1.419050 1.210817 0
M  V30 59 H -4.311673 -3.146666 -2.298284 0
M  V30 60 H -2.038773 -2.853935 -3.317269 0
M  V30 61 H -0.738054 -0.895134 -2.635927 0
M  V30 62 H 5.731706 1.801061 -0.311198 0
M  V30 63 H 5.914196 4.109002 0.408534 0
M  V30 64 H 4.428474 5.077931 2.127986 0
M  V30 65 H 2.674937 3.591955 3.149211 0
M  V30 66 H 2.503325 1.213951 2.392693 0
M  V30 END ATOM
M  V30 BEGIN BOND
M  V30 1 1 1 2
M  V30 2 1 2 3
M  V30 3 1 2 4
M  V30 4 1 2 5
M  V30 5 1 5 6
M  V30 6 2 6 7
M  V30 7 1 7 8
M  V30 8 1 8 9
M  V30 9 2 9 10
M  V30 10 1 9 11
M  V30 11 1 11 12
M  V30 12 2 12 13
M  V30 13 1 13 14
M  V30 14 2 14 15
M  V30 15 1 15 16
M  V30 16 1 16 17
M  V30 17 2 17 18
M  V30 18 1 18 19
M  V30 19 2 19 20
M  V30 20 1 20 21
M  V30 21 1 21 22
M  V30 22 1 22 23
M  V30 23 2 23 24
M  V30 24 1 23 25
M  V30 25 1 25 26
M  V30 26 1 15 27
M  V30 27 2 27 28
M  V30 28 1 28 29
M  V30 29 2 29 30
M  V30 30 1 30 31
M  V30 31 2 31 32
M  V30 32 1 7 33
M  V30 33 1 33 34
M  V30 34 2 34 35
M  V30 35 1 35 36
M  V30 36 2 36 37
M  V30 37 1 37 38
M  V30 38 2 38 39
M  V30 39 1 33 40
M  V30 40 2 40 5
M  V30 41 1 32 12
M  V30 42 1 39 34
M  V30 43 1 26 17
M  V30 44 1 32 27
M  V30 45 2 26 21
M  V30 46 1 1 41
M  V30 47 1 1 42
M  V30 48 1 1 43
M  V30 49 1 3 44
M  V30 50 1 3 45
M  V30 51 1 3 46
M  V30 52 1 4 47
M  V30 53 1 4 48
M  V30 54 1 4 49
M  V30 55 1 6 50
M  V30 56 1 8 51
M  V30 57 1 11 52
M  V30 58 1 13 53
M  V30 59 1 14 54
M  V30 60 1 18 55
M  V30 61 1 19 56
M  V30 62 1 22 57
M  V30 63 1 25 58
M  V30 64 1 29 59
M  V30 65 1 30 60
M  V30 66 1 31 61
M  V30 67 1 35 62
M  V30 68 1 36 63
M  V30 69 1 37 64
M  V30 70 1 38 65
M  V30 71 1 39 66
M  V30 END BOND
M  V30 END CTAB
M  END
>  <Dataset>  (896) 
ChEMBL_Kinases

>  <Ligand_Instance>  (896) 
nan

>  <PDB_ID>  (896) 
nan

>  <Standardized_SMILES>  (896) 
CC(C)(C)c1cc(NC(=O)Nc2ccc(Oc3ccnc4[nH]c(=O)[nH]c34)c3ncccc23)n(-c2ccccc2)n1

>  <Name>  (896) 
nan

>  <Pocket>  (896) 
nan

>  <ATP_Site>  (896) 
nan

>  <Peripheral>  (896) 
nan

>  <Num_H_Atoms_ProtBoundConf>  (896) 
nan

>  <Num_Resolved_Atoms>  (896) 
nan

>  <Num_Not_Resolved_Atoms>  (896) 
nan

$$$$
CHEMBL4570150
     RDKit          3D

  0  0  0  0  0  0  0  0  0  0999 V3000
M  V30 BEGIN CTAB
M  V30 COUNTS 58 61 0 0 0
M  V30 BEGIN ATOM
M  V30 1 O 2.798349 -3.899688 1.000269 0
M  V30 2 C 1.922513 -3.373064 0.254371 0
M  V30 3 N 2.218810 -2.164867 -0.424308 0
M  V30 4 C 3.433070 -1.411630 -0.386837 0
M  V30 5 C 3.621973 -0.622908 0.855724 0
M  V30 6 C 4.270243 -1.009108 2.007754 0
M  V30 7 C 4.340942 -0.129023 3.079080 0
M  V30 8 C 3.752310 1.136423 2.972423 0
M  V30 9 C 3.089297 1.537462 1.801597 0
M  V30 10 O 2.632612 2.807651 2.015684 0
M  V30 11 C 1.908333 3.646630 1.185539 0
M  V30 12 C 0.540584 3.144674 0.784059 0
M  V30 13 N -0.072301 4.124210 -0.073417 0
M  V30 14 C -0.438040 5.349616 0.530162 0
M  V30 15 C -1.926390 5.588358 0.663470 0
M  V30 16 O -2.495313 5.389797 -0.592728 0
M  V30 17 C -2.413157 4.009410 -0.813326 0
M  V30 18 C -1.002073 3.553838 -1.008564 0
M  V30 19 C 3.052810 0.625382 0.777330 0
M  V30 20 C 0.643202 -4.066742 0.147317 0
M  V30 21 C 0.464483 -5.226466 0.866995 0
M  V30 22 C -0.740181 -5.901921 0.782173 0
M  V30 23 C -1.779795 -5.444707 -0.010465 0
M  V30 24 C -3.078125 -6.106951 -0.149054 0
M  V30 25 C -4.208386 -5.332388 -0.386223 0
M  V30 26 C -5.484996 -5.887553 -0.532065 0
M  V30 27 N -5.585555 -7.226244 -0.432871 0
M  V30 28 C -4.495943 -7.973226 -0.204321 0
M  V30 29 C -3.216922 -7.479704 -0.052783 0
M  V30 30 C -1.608652 -4.266626 -0.746452 0
M  V30 31 C -0.389931 -3.608466 -0.643145 0
M  V30 32 H 1.480615 -1.739544 -1.039036 0
M  V30 33 H 4.267385 -2.154356 -0.419291 0
M  V30 34 H 3.590467 -0.775894 -1.278946 0
M  V30 35 H 4.688016 -2.008904 1.979348 0
M  V30 36 H 4.866299 -0.527524 3.920885 0
M  V30 37 H 3.919677 1.672886 3.919543 0
M  V30 38 H 2.437095 3.870699 0.223709 0
M  V30 39 H 1.814140 4.643363 1.685485 0
M  V30 40 H -0.085519 3.156242 1.732354 0
M  V30 41 H 0.522661 2.136331 0.376146 0
M  V30 42 H -0.002039 6.265944 0.082109 0
M  V30 43 H -0.059559 5.348501 1.593021 0
M  V30 44 H -2.045112 6.628231 1.025577 0
M  V30 45 H -2.380480 4.871242 1.370944 0
M  V30 46 H -3.019385 3.762193 -1.701996 0
M  V30 47 H -2.880887 3.532275 0.092895 0
M  V30 48 H -0.703487 3.663273 -2.071277 0
M  V30 49 H -1.011388 2.441932 -0.815157 0
M  V30 50 H 2.532012 1.035204 -0.071639 0
M  V30 51 H 1.238388 -5.652643 1.516243 0
M  V30 52 H -0.937136 -6.807213 1.317011 0
M  V30 53 H -4.163363 -4.251950 -0.470801 0
M  V30 54 H -6.345877 -5.228684 -0.719177 0
M  V30 55 H -4.684431 -9.042617 -0.141890 0
M  V30 56 H -2.370459 -8.106167 0.128810 0
M  V30 57 H -2.387456 -3.850628 -1.391812 0
M  V30 58 H -0.289342 -2.702210 -1.223179 0
M  V30 END ATOM
M  V30 BEGIN BOND
M  V30 1 2 1 2
M  V30 2 1 2 3
M  V30 3 1 3 4
M  V30 4 1 4 5
M  V30 5 2 5 6
M  V30 6 1 6 7
M  V30 7 2 7 8
M  V30 8 1 8 9
M  V30 9 1 9 10
M  V30 10 1 10 11
M  V30 11 1 11 12
M  V30 12 1 12 13
M  V30 13 1 13 14
M  V30 14 1 14 15
M  V30 15 1 15 16
M  V30 16 1 16 17
M  V30 17 1 17 18
M  V30 18 2 9 19
M  V30 19 1 2 20
M  V30 20 2 20 21
M  V30 21 1 21 22
M  V30 22 2 22 23
M  V30 23 1 23 24
M  V30 24 2 24 25
M  V30 25 1 25 26
M  V30 26 2 26 27
M  V30 27 1 27 28
M  V30 28 2 28 29
M  V30 29 1 23 30
M  V30 30 2 30 31
M  V30 31 1 19 5
M  V30 32 1 31 20
M  V30 33 1 18 13
M  V30 34 1 29 24
M  V30 35 1 3 32
M  V30 36 1 4 33
M  V30 37 1 4 34
M  V30 38 1 6 35
M  V30 39 1 7 36
M  V30 40 1 8 37
M  V30 41 1 11 38
M  V30 42 1 11 39
M  V30 43 1 12 40
M  V30 44 1 12 41
M  V30 45 1 14 42
M  V30 46 1 14 43
M  V30 47 1 15 44
M  V30 48 1 15 45
M  V30 49 1 17 46
M  V30 50 1 17 47
M  V30 51 1 18 48
M  V30 52 1 18 49
M  V30 53 1 19 50
M  V30 54 1 21 51
M  V30 55 1 22 52
M  V30 56 1 25 53
M  V30 57 1 26 54
M  V30 58 1 28 55
M  V30 59 1 29 56
M  V30 60 1 30 57
M  V30 61 1 31 58
M  V30 END BOND
M  V30 END CTAB
M  END
>  <Dataset>  (897) 
ChEMBL_Kinases

>  <Ligand_Instance>  (897) 
nan

>  <PDB_ID>  (897) 
nan

>  <Standardized_SMILES>  (897) 
O=C(NCc1cccc(OCCN2CCOCC2)c1)c1ccc(-c2ccncc2)cc1

>  <Name>  (897) 
nan

>  <Pocket>  (897) 
nan

>  <ATP_Site>  (897) 
nan

>  <Peripheral>  (897) 
nan

>  <Num_H_Atoms_ProtBoundConf>  (897) 
nan

>  <Num_Resolved_Atoms>  (897) 
nan

>  <Num_Not_Resolved_Atoms>  (897) 
nan

$$$$
CHEMBL4570191
     RDKit          3D

  0  0  0  0  0  0  0  0  0  0999 V3000
M  V30 BEGIN CTAB
M  V30 COUNTS 39 42 0 0 0
M  V30 BEGIN ATOM
M  V30 1 O 1.539379 -3.497494 3.531154 0
M  V30 2 C 1.340203 -2.818708 2.514643 0
M  V30 3 N 1.911202 -2.960633 1.307747 0
M  V30 4 C 1.552755 -2.111334 0.328819 0
M  V30 5 C 2.174354 -2.250429 -1.028896 0 CFG=2
M  V30 6 C 3.257504 -1.235749 -1.283294 0
M  V30 7 C 2.554316 -0.027132 -1.911028 0
M  V30 8 C 2.323850 -0.413204 -3.370322 0
M  V30 9 C 1.852237 -1.867694 -3.335465 0
M  V30 10 N 1.159769 -2.141803 -2.084036 0
M  V30 11 N 0.660927 -1.116976 0.448910 0
M  V30 12 C 0.011893 -0.858533 1.598804 0
M  V30 13 C -0.904649 0.059879 1.956922 0
M  V30 14 C -1.421486 0.125982 3.190221 0
M  V30 15 C -2.349627 0.906879 3.890716 0
M  V30 16 C -2.708223 0.730570 5.237357 0
M  V30 17 N -3.623476 1.639305 5.615056 0
M  V30 18 N -3.875240 2.396507 4.576961 0
M  V30 19 C -3.121987 1.983229 3.512845 0
M  V30 20 C -3.163678 2.619694 2.196508 0
M  V30 21 F -4.086723 3.690451 2.217482 0
M  V30 22 F -3.690305 1.810183 1.196563 0
M  V30 23 F -1.989590 3.249639 1.823687 0
M  V30 24 S -0.608498 -1.204452 4.049952 0
M  V30 25 C 0.430319 -1.786332 2.596130 0
M  V30 26 H 2.603861 -3.727117 1.201331 0
M  V30 27 H 2.620205 -3.247151 -1.096674 0
M  V30 28 H 4.063463 -1.590294 -1.924395 0
M  V30 29 H 3.621293 -0.862441 -0.286869 0
M  V30 30 H 3.125411 0.892910 -1.788529 0
M  V30 31 H 1.548928 0.100228 -1.421373 0
M  V30 32 H 1.551278 0.243196 -3.808191 0
M  V30 33 H 3.297969 -0.351681 -3.884590 0
M  V30 34 H 2.782604 -2.496330 -3.402801 0
M  V30 35 H 1.159811 -2.044791 -4.186091 0
M  V30 36 H 0.738735 -3.093002 -2.179017 0
M  V30 37 H -1.245658 0.778241 1.228544 0
M  V30 38 H -2.398018 0.027505 5.998840 0
M  V30 39 H -4.108145 1.808080 6.518491 0
M  V30 END ATOM
M  V30 BEGIN BOND
M  V30 1 2 1 2
M  V30 2 1 2 3
M  V30 3 1 3 4
M  V30 4 1 4 5
M  V30 5 1 5 6
M  V30 6 1 6 7
M  V30 7 1 7 8
M  V30 8 1 8 9
M  V30 9 1 9 10
M  V30 10 2 4 11
M  V30 11 1 11 12
M  V30 12 1 12 13
M  V30 13 2 13 14
M  V30 14 1 14 15
M  V30 15 2 15 16
M  V30 16 1 16 17
M  V30 17 1 17 18
M  V30 18 2 18 19
M  V30 19 1 19 20
M  V30 20 1 20 21
M  V30 21 1 20 22
M  V30 22 1 20 23
M  V30 23 1 14 24
M  V30 24 1 24 25
M  V30 25 1 25 2
M  V30 26 1 10 5
M  V30 27 2 25 12
M  V30 28 1 19 15
M  V30 29 1 3 26
M  V30 30 1 5 27 CFG=1
M  V30 31 1 6 28
M  V30 32 1 6 29
M  V30 33 1 7 30
M  V30 34 1 7 31
M  V30 35 1 8 32
M  V30 36 1 8 33
M  V30 37 1 9 34
M  V30 38 1 9 35
M  V30 39 1 10 36
M  V30 40 1 13 37
M  V30 41 1 16 38
M  V30 42 1 17 39
M  V30 END BOND
M  V30 END CTAB
M  END
>  <Dataset>  (898) 
ChEMBL_Kinases

>  <Ligand_Instance>  (898) 
nan

>  <PDB_ID>  (898) 
nan

>  <Standardized_SMILES>  (898) 
O=c1[nH]c([C@@H]2CCCCN2)nc2cc(-c3c[nH]nc3C(F)(F)F)sc12

>  <Name>  (898) 
nan

>  <Pocket>  (898) 
nan

>  <ATP_Site>  (898) 
nan

>  <Peripheral>  (898) 
nan

>  <Num_H_Atoms_ProtBoundConf>  (898) 
nan

>  <Num_Resolved_Atoms>  (898) 
nan

>  <Num_Not_Resolved_Atoms>  (898) 
nan

$$$$
CHEMBL3695569
     RDKit          3D

  0  0  0  0  0  0  0  0  0  0999 V3000
M  V30 BEGIN CTAB
M  V30 COUNTS 77 81 0 0 0
M  V30 BEGIN ATOM
M  V30 1 C 6.844951 -3.722814 5.268749 0
M  V30 2 O 6.734525 -2.436291 4.788268 0
M  V30 3 C 7.172953 -2.278591 3.477451 0
M  V30 4 C 6.976272 -0.855310 3.121495 0
M  V30 5 O 6.480737 -0.282956 4.131023 0
M  V30 6 N 7.295679 -0.280110 1.871247 0
M  V30 7 C 7.103954 1.085571 1.528698 0
M  V30 8 C 5.847474 1.261145 0.993402 0
M  V30 9 C 5.416350 2.523586 0.572386 0
M  V30 10 O 4.221008 2.949520 0.012444 0
M  V30 11 C 3.128194 2.106756 -0.133714 0
M  V30 12 C 2.683393 1.834504 -1.419594 0
M  V30 13 C 1.597945 1.002053 -1.655786 0
M  V30 14 C 0.924888 0.416583 -0.602330 0
M  V30 15 N -0.193920 -0.456434 -0.655014 0
M  V30 16 C -1.594985 -0.311595 -0.650922 0
M  V30 17 O -2.180922 0.788864 -0.589990 0
M  V30 18 N -2.267505 -1.550017 -0.722877 0
M  V30 19 C -3.690923 -1.595086 -0.723256 0
M  V30 20 C -4.328317 -1.690193 0.519625 0
M  V30 21 C -5.689366 -1.718674 0.287146 0
M  V30 22 C -6.809057 -1.817019 1.291372 0
M  V30 23 C -7.106424 -3.308435 1.495825 0
M  V30 24 C -8.023815 -1.204392 0.659285 0
M  V30 25 C -6.463323 -1.154575 2.581062 0
M  V30 26 N -5.849644 -1.641870 -1.057249 0
M  V30 27 N -4.665271 -1.569192 -1.651193 0
M  V30 28 C -4.316430 -1.476660 -3.027647 0
M  V30 29 C -3.523054 -2.483738 -3.564612 0
M  V30 30 C -3.109251 -2.523425 -4.885773 0
M  V30 31 C -3.527437 -1.475832 -5.711668 0
M  V30 32 C -3.114230 -1.471108 -7.124796 0
M  V30 33 C -4.325959 -0.448407 -5.200026 0
M  V30 34 C -4.713189 -0.462987 -3.852554 0
M  V30 35 C 1.374535 0.693099 0.692634 0
M  V30 36 C 0.749254 0.151417 1.811298 0
M  V30 37 C 1.154952 0.404471 3.104883 0
M  V30 38 C 2.236285 1.237574 3.304889 0
M  V30 39 C 2.864463 1.779859 2.206977 0
M  V30 40 C 2.462856 1.528116 0.929130 0
M  V30 41 C 6.303609 3.597201 0.714296 0
M  V30 42 C 7.558931 3.370708 1.259095 0
M  V30 43 N 7.969793 2.131838 1.667522 0
M  V30 44 H 6.461331 -3.715807 6.328395 0
M  V30 45 H 6.129977 -4.400591 4.715715 0
M  V30 46 H 7.852058 -4.143041 5.296740 0
M  V30 47 H 6.628877 -2.961072 2.795241 0
M  V30 48 H 8.265189 -2.513069 3.471215 0
M  V30 49 H 7.698442 -0.990910 1.211827 0
M  V30 50 H 5.078487 0.530852 0.829706 0
M  V30 51 H 3.184975 2.275858 -2.277678 0
M  V30 52 H 1.207593 0.755922 -2.632679 0
M  V30 53 H 0.341187 -1.367450 -0.705442 0
M  V30 54 H -1.909926 -2.537916 -0.778375 0
M  V30 55 H -3.927051 -1.739525 1.544282 0
M  V30 56 H -7.673466 -3.714163 0.628726 0
M  V30 57 H -7.670317 -3.448010 2.437357 0
M  V30 58 H -6.165030 -3.898577 1.583663 0
M  V30 59 H -8.933148 -1.437885 1.240519 0
M  V30 60 H -8.097262 -1.567913 -0.394974 0
M  V30 61 H -7.848328 -0.108618 0.605195 0
M  V30 62 H -6.422983 -1.939576 3.371784 0
M  V30 63 H -5.444903 -0.732209 2.540234 0
M  V30 64 H -7.244778 -0.411374 2.836605 0
M  V30 65 H -3.172539 -3.323769 -2.952503 0
M  V30 66 H -2.489688 -3.332377 -5.254545 0
M  V30 67 H -2.078565 -1.069903 -7.171197 0
M  V30 68 H -3.050681 -2.542138 -7.469375 0
M  V30 69 H -3.800799 -0.907169 -7.786577 0
M  V30 70 H -4.643275 0.346125 -5.827357 0
M  V30 71 H -5.322746 0.303919 -3.430054 0
M  V30 72 H -0.112279 -0.514657 1.684304 0
M  V30 73 H 0.647436 -0.031756 3.953757 0
M  V30 74 H 2.541306 1.424793 4.338469 0
M  V30 75 H 3.684798 2.422557 2.418336 0
M  V30 76 H 6.202232 4.627354 0.469833 0
M  V30 77 H 8.335636 4.101951 1.423325 0
M  V30 END ATOM
M  V30 BEGIN BOND
M  V30 1 1 1 2
M  V30 2 1 2 3
M  V30 3 1 3 4
M  V30 4 2 4 5
M  V30 5 1 4 6
M  V30 6 1 6 7
M  V30 7 2 7 8
M  V30 8 1 8 9
M  V30 9 1 9 10
M  V30 10 1 10 11
M  V30 11 2 11 12
M  V30 12 1 12 13
M  V30 13 2 13 14
M  V30 14 1 14 15
M  V30 15 1 15 16
M  V30 16 2 16 17
M  V30 17 1 16 18
M  V30 18 1 18 19
M  V30 19 2 19 20
M  V30 20 1 20 21
M  V30 21 1 21 22
M  V30 22 1 22 23
M  V30 23 1 22 24
M  V30 24 1 22 25
M  V30 25 2 21 26
M  V30 26 1 26 27
M  V30 27 1 27 28
M  V30 28 2 28 29
M  V30 29 1 29 30
M  V30 30 2 30 31
M  V30 31 1 31 32
M  V30 32 1 31 33
M  V30 33 2 33 34
M  V30 34 1 14 35
M  V30 35 2 35 36
M  V30 36 1 36 37
M  V30 37 2 37 38
M  V30 38 1 38 39
M  V30 39 2 39 40
M  V30 40 2 9 41
M  V30 41 1 41 42
M  V30 42 2 42 43
M  V30 43 1 43 7
M  V30 44 1 40 11
M  V30 45 1 27 19
M  V30 46 1 34 28
M  V30 47 1 40 35
M  V30 48 1 1 44
M  V30 49 1 1 45
M  V30 50 1 1 46
M  V30 51 1 3 47
M  V30 52 1 3 48
M  V30 53 1 6 49
M  V30 54 1 8 50
M  V30 55 1 12 51
M  V30 56 1 13 52
M  V30 57 1 15 53
M  V30 58 1 18 54
M  V30 59 1 20 55
M  V30 60 1 23 56
M  V30 61 1 23 57
M  V30 62 1 23 58
M  V30 63 1 24 59
M  V30 64 1 24 60
M  V30 65 1 24 61
M  V30 66 1 25 62
M  V30 67 1 25 63
M  V30 68 1 25 64
M  V30 69 1 29 65
M  V30 70 1 30 66
M  V30 71 1 32 67
M  V30 72 1 32 68
M  V30 73 1 32 69
M  V30 74 1 33 70
M  V30 75 1 34 71
M  V30 76 1 36 72
M  V30 77 1 37 73
M  V30 78 1 38 74
M  V30 79 1 39 75
M  V30 80 1 41 76
M  V30 81 1 42 77
M  V30 END BOND
M  V30 END CTAB
M  END
>  <Dataset>  (899) 
ChEMBL_Kinases

>  <Ligand_Instance>  (899) 
nan

>  <PDB_ID>  (899) 
nan

>  <Standardized_SMILES>  (899) 
COCC(=O)Nc1cc(Oc2ccc(NC(=O)Nc3cc(C(C)(C)C)nn3-c3ccc(C)cc3)c3ccccc23)ccn1

>  <Name>  (899) 
nan

>  <Pocket>  (899) 
nan

>  <ATP_Site>  (899) 
nan

>  <Peripheral>  (899) 
nan

>  <Num_H_Atoms_ProtBoundConf>  (899) 
nan

>  <Num_Resolved_Atoms>  (899) 
nan

>  <Num_Not_Resolved_Atoms>  (899) 
nan

$$$$
CHEMBL220320
     RDKit          3D

  0  0  0  0  0  0  0  0  0  0999 V3000
M  V30 BEGIN CTAB
M  V30 COUNTS 44 47 0 0 0
M  V30 BEGIN ATOM
M  V30 1 O 3.015956 -0.061091 1.154096 0
M  V30 2 C 2.241109 -0.452811 0.245595 0
M  V30 3 N 2.760108 -0.975909 -0.965652 0
M  V30 4 C 4.170460 -1.123546 -1.309726 0
M  V30 5 C 4.733968 0.203417 -1.679559 0
M  V30 6 C 4.625414 0.529038 -3.033972 0
M  V30 7 C 5.095216 1.726469 -3.578597 0
M  V30 8 C 5.699641 2.641193 -2.740821 0
M  V30 9 C 5.805505 2.318771 -1.408652 0
M  V30 10 C 5.342136 1.134768 -0.864010 0
M  V30 11 C 0.789997 -0.368773 0.438383 0
M  V30 12 C 0.145315 0.109296 1.560814 0
M  V30 13 C -1.238416 0.024760 1.354158 0
M  V30 14 C -2.110511 0.483488 2.428581 0
M  V30 15 N -2.075297 1.782591 2.837860 0
M  V30 16 N -2.935422 1.986937 3.815349 0
M  V30 17 C -3.587705 0.846408 4.111147 0
M  V30 18 C -3.074211 -0.096138 3.245523 0
M  V30 19 C -3.389660 -1.510480 3.088392 0
M  V30 20 C -3.965919 -2.021410 1.923680 0
M  V30 21 C -4.282720 -3.352503 1.720034 0
M  V30 22 C -4.013155 -4.250898 2.737528 0
M  V30 23 C -3.439497 -3.801640 3.922097 0
M  V30 24 Cl -3.126362 -4.984332 5.162095 0
M  V30 25 C -3.140997 -2.456641 4.076131 0
M  V30 26 C -1.365844 -0.511723 0.090271 0
M  V30 27 N -0.145542 -0.739810 -0.440756 0
M  V30 28 H 2.045545 -1.290094 -1.689675 0
M  V30 29 H 4.736238 -1.564640 -0.455524 0
M  V30 30 H 4.284077 -1.829865 -2.145786 0
M  V30 31 H 4.158595 -0.147390 -3.751478 0
M  V30 32 H 4.982299 1.922363 -4.639437 0
M  V30 33 H 6.072741 3.576151 -3.132939 0
M  V30 34 H 6.281915 3.028598 -0.723185 0
M  V30 35 H 5.406104 0.846643 0.166164 0
M  V30 36 H 0.712415 0.477360 2.431586 0
M  V30 37 H -3.163479 2.854409 4.354674 0
M  V30 38 H -4.355221 0.582935 4.829701 0
M  V30 39 H -4.185825 -1.340980 1.120698 0
M  V30 40 H -4.732281 -3.650145 0.767993 0
M  V30 41 H -4.281971 -5.281588 2.526980 0
M  V30 42 H -2.691235 -2.119248 5.011085 0
M  V30 43 H -2.370702 -0.666825 -0.281099 0
M  V30 44 H -0.034897 -1.147933 -1.402159 0
M  V30 END ATOM
M  V30 BEGIN BOND
M  V30 1 2 1 2
M  V30 2 1 2 3
M  V30 3 1 3 4
M  V30 4 1 4 5
M  V30 5 2 5 6
M  V30 6 1 6 7
M  V30 7 2 7 8
M  V30 8 1 8 9
M  V30 9 2 9 10
M  V30 10 1 2 11
M  V30 11 2 11 12
M  V30 12 1 12 13
M  V30 13 1 13 14
M  V30 14 2 14 15
M  V30 15 1 15 16
M  V30 16 1 16 17
M  V30 17 2 17 18
M  V30 18 1 18 19
M  V30 19 2 19 20
M  V30 20 1 20 21
M  V30 21 2 21 22
M  V30 22 1 22 23
M  V30 23 1 23 24
M  V30 24 2 23 25
M  V30 25 2 13 26
M  V30 26 1 26 27
M  V30 27 1 10 5
M  V30 28 1 27 11
M  V30 29 1 18 14
M  V30 30 1 25 19
M  V30 31 1 3 28
M  V30 32 1 4 29
M  V30 33 1 4 30
M  V30 34 1 6 31
M  V30 35 1 7 32
M  V30 36 1 8 33
M  V30 37 1 9 34
M  V30 38 1 10 35
M  V30 39 1 12 36
M  V30 40 1 16 37
M  V30 41 1 17 38
M  V30 42 1 20 39
M  V30 43 1 21 40
M  V30 44 1 22 41
M  V30 45 1 25 42
M  V30 46 1 26 43
M  V30 47 1 27 44
M  V30 END BOND
M  V30 END CTAB
M  END
>  <Dataset>  (900) 
ChEMBL_Kinases

>  <Ligand_Instance>  (900) 
nan

>  <PDB_ID>  (900) 
nan

>  <Standardized_SMILES>  (900) 
O=C(NCc1ccccc1)c1cc(-c2n[nH]cc2-c2cccc(Cl)c2)c[nH]1

>  <Name>  (900) 
nan

>  <Pocket>  (900) 
nan

>  <ATP_Site>  (900) 
nan

>  <Peripheral>  (900) 
nan

>  <Num_H_Atoms_ProtBoundConf>  (900) 
nan

>  <Num_Resolved_Atoms>  (900) 
nan

>  <Num_Not_Resolved_Atoms>  (900) 
nan

$$$$
CHEMBL3695568
     RDKit          3D

  0  0  0  0  0  0  0  0  0  0999 V3000
M  V30 BEGIN CTAB
M  V30 COUNTS 80 84 0 0 0
M  V30 BEGIN ATOM
M  V30 1 C 1.672105 -7.458259 -3.845414 0
M  V30 2 O 2.698725 -6.534071 -3.807416 0
M  V30 3 C 3.382434 -6.400175 -4.990511 0
M  V30 4 C 4.454365 -5.392261 -4.846101 0
M  V30 5 O 5.078869 -5.272210 -5.931698 0
M  V30 6 N 4.636051 -4.734570 -3.602962 0
M  V30 7 C 5.457027 -3.759575 -2.983177 0
M  V30 8 C 5.027770 -2.475697 -3.059086 0
M  V30 9 C 5.716637 -1.433369 -2.507294 0
M  V30 10 C 5.564168 0.016137 -2.368628 0
M  V30 11 O 5.026301 0.485863 -1.182736 0
M  V30 12 C 3.799250 0.235670 -0.682502 0
M  V30 13 C 2.692773 -0.479993 -1.071428 0
M  V30 14 C 1.509323 -0.601469 -0.385278 0
M  V30 15 C 1.407221 0.057375 0.818612 0
M  V30 16 N 0.161050 -0.103420 1.484529 0
M  V30 17 C -1.052273 0.638246 1.458454 0
M  V30 18 O -1.216811 1.671041 0.759386 0
M  V30 19 N -2.050588 0.083616 2.306134 0
M  V30 20 C -3.319380 0.721398 2.394365 0
M  V30 21 C -3.399578 1.684563 3.406185 0
M  V30 22 C -4.698929 2.202856 3.351398 0
M  V30 23 C -5.285584 3.265976 4.232024 0
M  V30 24 C -5.902651 2.596294 5.444457 0
M  V30 25 C -6.230675 4.147523 3.489633 0
M  V30 26 C -4.120577 4.096967 4.774619 0
M  V30 27 N -5.314234 1.558618 2.355597 0
M  V30 28 N -4.523440 0.678721 1.773691 0
M  V30 29 C -4.672718 -0.239401 0.700094 0
M  V30 30 C -5.004865 -1.577644 0.716304 0
M  V30 31 C -5.098802 -2.292027 -0.461441 0
M  V30 32 C -4.858571 -1.665146 -1.672195 0
M  V30 33 C -4.960038 -2.437951 -2.955649 0
M  V30 34 C -4.524705 -0.326461 -1.710410 0
M  V30 35 C -4.430571 0.392365 -0.522297 0
M  V30 36 C 2.463300 0.802036 1.294185 0
M  V30 37 C 2.247507 1.407096 2.492012 0
M  V30 38 C 3.258802 2.170800 3.034514 0
M  V30 39 C 4.459192 2.314763 2.374028 0
M  V30 40 C 4.604918 1.679391 1.177419 0
M  V30 41 C 3.647131 0.890231 0.551101 0
M  V30 42 C 6.904545 -1.810198 -1.858294 0
M  V30 43 C 7.349645 -3.129508 -1.777930 0
M  V30 44 N 6.608055 -4.124765 -2.353671 0
M  V30 45 H 1.992833 -8.479870 -4.089400 0
M  V30 46 H 0.906161 -7.091567 -4.586667 0
M  V30 47 H 1.170458 -7.397805 -2.850572 0
M  V30 48 H 3.821308 -7.413201 -5.219756 0
M  V30 49 H 2.707723 -6.165232 -5.854828 0
M  V30 50 H 3.998463 -4.985583 -2.817860 0
M  V30 51 H 4.142633 -2.109164 -3.546764 0
M  V30 52 H 6.506782 0.558057 -2.658507 0
M  V30 53 H 4.831957 0.314724 -3.187030 0
M  V30 54 H 2.830601 -0.957977 -2.010986 0
M  V30 55 H 0.748911 -1.209714 -0.850246 0
M  V30 56 H 0.326652 -0.967119 2.059912 0
M  V30 57 H -2.026833 -0.754174 2.919430 0
M  V30 58 H -2.712862 2.072334 4.157612 0
M  V30 59 H -5.959367 3.356641 6.267375 0
M  V30 60 H -5.141541 1.863233 5.796402 0
M  V30 61 H -6.885262 2.165398 5.223765 0
M  V30 62 H -5.592566 4.908953 2.955834 0
M  V30 63 H -6.825547 3.664501 2.715986 0
M  V30 64 H -6.797464 4.746286 4.230309 0
M  V30 65 H -3.603747 4.502111 3.865305 0
M  V30 66 H -3.455955 3.503128 5.414025 0
M  V30 67 H -4.573984 4.967632 5.293086 0
M  V30 68 H -5.167467 -1.955858 1.711916 0
M  V30 69 H -5.361669 -3.332095 -0.392789 0
M  V30 70 H -6.002356 -2.748860 -3.127871 0
M  V30 71 H -4.583350 -1.800903 -3.782949 0
M  V30 72 H -4.365422 -3.378954 -2.918383 0
M  V30 73 H -4.348932 0.106617 -2.687909 0
M  V30 74 H -4.164340 1.424746 -0.681834 0
M  V30 75 H 1.325542 1.323461 3.043176 0
M  V30 76 H 3.163286 2.679750 3.978540 0
M  V30 77 H 5.274643 2.904983 2.767222 0
M  V30 78 H 5.548627 1.791896 0.657607 0
M  V30 79 H 7.637133 -1.189727 -1.340468 0
M  V30 80 H 8.244190 -3.494575 -1.301497 0
M  V30 END ATOM
M  V30 BEGIN BOND
M  V30 1 1 1 2
M  V30 2 1 2 3
M  V30 3 1 3 4
M  V30 4 2 4 5
M  V30 5 1 4 6
M  V30 6 1 6 7
M  V30 7 2 7 8
M  V30 8 1 8 9
M  V30 9 1 9 10
M  V30 10 1 10 11
M  V30 11 1 11 12
M  V30 12 2 12 13
M  V30 13 1 13 14
M  V30 14 2 14 15
M  V30 15 1 15 16
M  V30 16 1 16 17
M  V30 17 2 17 18
M  V30 18 1 17 19
M  V30 19 1 19 20
M  V30 20 2 20 21
M  V30 21 1 21 22
M  V30 22 1 22 23
M  V30 23 1 23 24
M  V30 24 1 23 25
M  V30 25 1 23 26
M  V30 26 2 22 27
M  V30 27 1 27 28
M  V30 28 1 28 29
M  V30 29 2 29 30
M  V30 30 1 30 31
M  V30 31 2 31 32
M  V30 32 1 32 33
M  V30 33 1 32 34
M  V30 34 2 34 35
M  V30 35 1 15 36
M  V30 36 2 36 37
M  V30 37 1 37 38
M  V30 38 2 38 39
M  V30 39 1 39 40
M  V30 40 2 40 41
M  V30 41 2 9 42
M  V30 42 1 42 43
M  V30 43 2 43 44
M  V30 44 1 44 7
M  V30 45 1 41 12
M  V30 46 1 28 20
M  V30 47 1 35 29
M  V30 48 1 41 36
M  V30 49 1 1 45
M  V30 50 1 1 46
M  V30 51 1 1 47
M  V30 52 1 3 48
M  V30 53 1 3 49
M  V30 54 1 6 50
M  V30 55 1 8 51
M  V30 56 1 10 52
M  V30 57 1 10 53
M  V30 58 1 13 54
M  V30 59 1 14 55
M  V30 60 1 16 56
M  V30 61 1 19 57
M  V30 62 1 21 58
M  V30 63 1 24 59
M  V30 64 1 24 60
M  V30 65 1 24 61
M  V30 66 1 25 62
M  V30 67 1 25 63
M  V30 68 1 25 64
M  V30 69 1 26 65
M  V30 70 1 26 66
M  V30 71 1 26 67
M  V30 72 1 30 68
M  V30 73 1 31 69
M  V30 74 1 33 70
M  V30 75 1 33 71
M  V30 76 1 33 72
M  V30 77 1 34 73
M  V30 78 1 35 74
M  V30 79 1 37 75
M  V30 80 1 38 76
M  V30 81 1 39 77
M  V30 82 1 40 78
M  V30 83 1 42 79
M  V30 84 1 43 80
M  V30 END BOND
M  V30 END CTAB
M  END
>  <Dataset>  (901) 
ChEMBL_Kinases

>  <Ligand_Instance>  (901) 
nan

>  <PDB_ID>  (901) 
nan

>  <Standardized_SMILES>  (901) 
COCC(=O)Nc1cc(COc2ccc(NC(=O)Nc3cc(C(C)(C)C)nn3-c3ccc(C)cc3)c3ccccc23)ccn1

>  <Name>  (901) 
JNJ-49095397

>  <Pocket>  (901) 
nan

>  <ATP_Site>  (901) 
nan

>  <Peripheral>  (901) 
nan

>  <Num_H_Atoms_ProtBoundConf>  (901) 
nan

>  <Num_Resolved_Atoms>  (901) 
nan

>  <Num_Not_Resolved_Atoms>  (901) 
nan

$$$$
CHEMBL4459001
     RDKit          3D

  0  0  0  0  0  0  0  0  0  0999 V3000
M  V30 BEGIN CTAB
M  V30 COUNTS 31 33 0 0 0
M  V30 BEGIN ATOM
M  V30 1 N 2.149181 -7.221599 2.035347 0
M  V30 2 C 1.573761 -6.216514 1.495941 0
M  V30 3 N 0.794968 -5.149963 2.073759 0
M  V30 4 C 0.620210 -4.000655 1.254237 0
M  V30 5 O -0.047775 -3.005292 1.664615 0
M  V30 6 C 1.258745 -4.073279 -0.055342 0
M  V30 7 C 1.525477 -3.080771 -0.881389 0
M  V30 8 C 1.186392 -1.692385 -0.562051 0
M  V30 9 C 2.188961 -0.754017 -0.751019 0
M  V30 10 C 1.660003 0.495264 -0.393198 0
M  V30 11 C 0.364243 0.218268 -0.011095 0
M  V30 12 C -0.616840 1.218669 0.456730 0
M  V30 13 C -0.259446 2.572900 0.560050 0
M  V30 14 C -1.165649 3.529480 0.981122 0
M  V30 15 N -0.757633 4.879552 1.074346 0 CHG=1 VAL=4
M  V30 16 O 0.400510 5.212403 0.772301 0
M  V30 17 O -1.639378 5.857061 1.502795 0 CHG=-1 VAL=1
M  V30 18 C -2.421038 3.061313 1.287239 0
M  V30 19 C -2.840714 1.776628 1.213786 0
M  V30 20 C -1.903574 0.855334 0.788070 0
M  V30 21 Cl -2.373086 -0.840667 0.671222 0
M  V30 22 O 0.125230 -1.068243 -0.122672 0
M  V30 23 S 1.590446 -5.823504 -0.279784 0
M  V30 24 H 2.104096 -7.378688 3.052282 0
M  V30 25 H 0.423198 -5.303270 3.034545 0
M  V30 26 H 2.007882 -3.394192 -1.810710 0
M  V30 27 H 3.228904 -0.840165 -1.103989 0
M  V30 28 H 2.170208 1.445645 -0.418330 0
M  V30 29 H 0.760824 2.897771 0.305171 0
M  V30 30 H -3.096819 3.851203 1.613078 0
M  V30 31 H -3.856652 1.447400 1.468406 0
M  V30 END ATOM
M  V30 BEGIN BOND
M  V30 1 2 1 2 CFG=2
M  V30 2 1 2 3
M  V30 3 1 3 4
M  V30 4 2 4 5
M  V30 5 1 4 6
M  V30 6 2 6 7
M  V30 7 1 7 8
M  V30 8 2 8 9
M  V30 9 1 9 10
M  V30 10 2 10 11
M  V30 11 1 11 12
M  V30 12 2 12 13
M  V30 13 1 13 14
M  V30 14 1 14 15
M  V30 15 2 15 16
M  V30 16 1 15 17
M  V30 17 2 14 18
M  V30 18 1 18 19
M  V30 19 2 19 20
M  V30 20 1 20 21
M  V30 21 1 11 22
M  V30 22 1 6 23
M  V30 23 1 23 2
M  V30 24 1 22 8
M  V30 25 1 20 12
M  V30 26 1 1 24
M  V30 27 1 3 25
M  V30 28 1 7 26
M  V30 29 1 9 27
M  V30 30 1 10 28
M  V30 31 1 13 29
M  V30 32 1 18 30
M  V30 33 1 19 31
M  V30 END BOND
M  V30 END CTAB
M  END
>  <Dataset>  (902) 
ChEMBL_Kinases

>  <Ligand_Instance>  (902) 
nan

>  <PDB_ID>  (902) 
nan

>  <Standardized_SMILES>  (902) 
N=C1NC(=O)/C(=C\c2ccc(-c3cc([N+](=O)[O-])ccc3Cl)o2)S1

>  <Name>  (902) 
nan

>  <Pocket>  (902) 
nan

>  <ATP_Site>  (902) 
nan

>  <Peripheral>  (902) 
nan

>  <Num_H_Atoms_ProtBoundConf>  (902) 
nan

>  <Num_Resolved_Atoms>  (902) 
nan

>  <Num_Not_Resolved_Atoms>  (902) 
nan

$$$$
CHEMBL3703149
     RDKit          3D

  0  0  0  0  0  0  0  0  0  0999 V3000
M  V30 BEGIN CTAB
M  V30 COUNTS 56 60 0 0 0
M  V30 BEGIN ATOM
M  V30 1 C 6.979581 -3.378251 4.210747 0
M  V30 2 N 6.870318 -3.204675 2.756254 0
M  V30 3 C 5.916550 -2.272225 2.234233 0
M  V30 4 O 5.198756 -1.629932 3.076659 0
M  V30 5 N 5.655840 -1.960265 0.884847 0
M  V30 6 C 4.629423 -0.974395 0.670315 0
M  V30 7 C 4.934560 0.392366 0.613217 0
M  V30 8 C 3.916882 1.326618 0.403183 0
M  V30 9 C 2.630512 0.845652 0.259051 0
M  V30 10 N 1.500959 1.582783 0.046833 0
M  V30 11 C 0.455523 0.698539 -0.034205 0
M  V30 12 C -0.981981 0.869045 -0.257318 0
M  V30 13 C -1.585902 0.577293 -1.464272 0
M  V30 14 C -2.943245 0.726622 -1.664933 0
M  V30 15 C -3.763049 1.178711 -0.657034 0
M  V30 16 C -5.220022 1.397564 -0.677901 0
M  V30 17 N -5.634826 2.448168 0.258011 0
M  V30 18 C -6.038739 0.154948 -0.355196 0
M  V30 19 C -7.032962 0.650735 -1.398283 0
M  V30 20 C -5.902440 1.480031 -2.004650 0
M  V30 21 C -3.137700 1.471310 0.561973 0
M  V30 22 C -1.783257 1.325569 0.771837 0
M  V30 23 C 0.954874 -0.599408 0.130695 0
M  V30 24 C 0.319429 -1.890032 0.136526 0
M  V30 25 C -0.325231 -2.555131 -0.876363 0
M  V30 26 C -0.894556 -3.796130 -0.723449 0
M  V30 27 C -0.845923 -4.459132 0.495816 0
M  V30 28 C -0.208076 -3.826147 1.535705 0
M  V30 29 C 0.364799 -2.563335 1.361213 0
M  V30 30 N 2.301950 -0.462624 0.308736 0
M  V30 31 C 3.302256 -1.371145 0.514735 0
M  V30 32 H 6.829065 -2.382987 4.720147 0
M  V30 33 H 6.235588 -4.067109 4.603626 0
M  V30 34 H 7.992029 -3.735427 4.442658 0
M  V30 35 H 7.429561 -3.703699 2.035114 0
M  V30 36 H 6.249130 -2.491643 0.189452 0
M  V30 37 H 5.982215 0.686968 0.737826 0
M  V30 38 H 4.156756 2.380604 0.358397 0
M  V30 39 H -0.989156 0.215560 -2.295035 0
M  V30 40 H -3.449979 0.511456 -2.589739 0
M  V30 41 H -6.550999 2.844511 -0.013227 0
M  V30 42 H -5.765985 2.030432 1.209893 0
M  V30 43 H -6.411461 0.112828 0.682599 0
M  V30 44 H -5.484360 -0.769199 -0.676916 0
M  V30 45 H -7.825512 1.242333 -0.905540 0
M  V30 46 H -7.374134 -0.184549 -2.027248 0
M  V30 47 H -5.399490 1.028122 -2.860165 0
M  V30 48 H -6.288166 2.523627 -2.167385 0
M  V30 49 H -3.702852 1.839519 1.432521 0
M  V30 50 H -1.327143 1.565440 1.737040 0
M  V30 51 H -0.346076 -2.015890 -1.809293 0
M  V30 52 H -1.381141 -4.227333 -1.606442 0
M  V30 53 H -1.314843 -5.425736 0.533505 0
M  V30 54 H -0.188949 -4.369830 2.464676 0
M  V30 55 H 0.835550 -2.164660 2.247327 0
M  V30 56 H 3.079556 -2.432332 0.562073 0
M  V30 END ATOM
M  V30 BEGIN BOND
M  V30 1 1 1 2
M  V30 2 1 2 3
M  V30 3 2 3 4
M  V30 4 1 3 5
M  V30 5 1 5 6
M  V30 6 1 6 7
M  V30 7 2 7 8
M  V30 8 1 8 9
M  V30 9 2 9 10
M  V30 10 1 10 11
M  V30 11 1 11 12
M  V30 12 2 12 13
M  V30 13 1 13 14
M  V30 14 2 14 15
M  V30 15 1 15 16
M  V30 16 1 16 17
M  V30 17 1 16 18
M  V30 18 1 18 19
M  V30 19 1 19 20
M  V30 20 1 15 21
M  V30 21 2 21 22
M  V30 22 2 11 23
M  V30 23 1 23 24
M  V30 24 2 24 25
M  V30 25 1 25 26
M  V30 26 2 26 27
M  V30 27 1 27 28
M  V30 28 2 28 29
M  V30 29 1 23 30
M  V30 30 1 30 31
M  V30 31 2 31 6
M  V30 32 1 30 9
M  V30 33 1 22 12
M  V30 34 1 29 24
M  V30 35 1 20 16
M  V30 36 1 1 32
M  V30 37 1 1 33
M  V30 38 1 1 34
M  V30 39 1 2 35
M  V30 40 1 5 36
M  V30 41 1 7 37
M  V30 42 1 8 38
M  V30 43 1 13 39
M  V30 44 1 14 40
M  V30 45 1 17 41
M  V30 46 1 17 42
M  V30 47 1 18 43
M  V30 48 1 18 44
M  V30 49 1 19 45
M  V30 50 1 19 46
M  V30 51 1 20 47
M  V30 52 1 20 48
M  V30 53 1 21 49
M  V30 54 1 22 50
M  V30 55 1 25 51
M  V30 56 1 26 52
M  V30 57 1 27 53
M  V30 58 1 28 54
M  V30 59 1 29 55
M  V30 60 1 31 56
M  V30 END BOND
M  V30 END CTAB
M  END
>  <Dataset>  (903) 
ChEMBL_Kinases

>  <Ligand_Instance>  (903) 
nan

>  <PDB_ID>  (903) 
nan

>  <Standardized_SMILES>  (903) 
CNC(=O)Nc1ccc2nc(-c3ccc(C4(N)CCC4)cc3)c(-c3ccccc3)n2c1

>  <Name>  (903) 
nan

>  <Pocket>  (903) 
nan

>  <ATP_Site>  (903) 
nan

>  <Peripheral>  (903) 
nan

>  <Num_H_Atoms_ProtBoundConf>  (903) 
nan

>  <Num_Resolved_Atoms>  (903) 
nan

>  <Num_Not_Resolved_Atoms>  (903) 
nan

$$$$
CHEMBL3703150
     RDKit          3D

  0  0  0  0  0  0  0  0  0  0999 V3000
M  V30 BEGIN CTAB
M  V30 COUNTS 55 59 0 0 0
M  V30 BEGIN ATOM
M  V30 1 C 5.912061 -4.161197 1.596563 0
M  V30 2 S 5.668759 -4.199191 -0.143218 0
M  V30 3 O 6.781869 -4.993211 -0.764229 0
M  V30 4 O 4.340291 -4.836311 -0.419107 0
M  V30 5 N 5.693041 -2.633201 -0.873381 0
M  V30 6 C 4.767365 -1.593917 -0.564755 0
M  V30 7 C 5.219537 -0.305393 -0.360922 0
M  V30 8 C 4.348777 0.746889 -0.056567 0
M  V30 9 C 3.018657 0.372775 0.017550 0
M  V30 10 N 1.969862 1.207751 0.298817 0
M  V30 11 C 0.822806 0.493162 0.285437 0
M  V30 12 C -0.554487 0.939243 0.527389 0
M  V30 13 C -0.902403 1.502299 1.742992 0
M  V30 14 C -2.201526 1.941139 2.020183 0
M  V30 15 C -3.164747 1.800682 1.032479 0
M  V30 16 C -4.505861 2.300869 1.439217 0
M  V30 17 N -4.469383 3.450291 2.294647 0
M  V30 18 C -5.360559 1.212412 2.104667 0
M  V30 19 C -5.970160 0.951125 0.742665 0
M  V30 20 C -5.527785 2.323574 0.336120 0
M  V30 21 C -2.850296 1.242061 -0.193520 0
M  V30 22 C -1.544151 0.812050 -0.443656 0
M  V30 23 C 1.194758 -0.818098 -0.014457 0
M  V30 24 C 0.268559 -1.908672 -0.126841 0
M  V30 25 C 0.122267 -2.615835 -1.322237 0
M  V30 26 C -0.775208 -3.650091 -1.382615 0
M  V30 27 C -1.546609 -4.024516 -0.301587 0
M  V30 28 C -1.440420 -3.351286 0.918340 0
M  V30 29 C -0.522156 -2.314085 0.933558 0
M  V30 30 N 2.534088 -0.869129 -0.173435 0
M  V30 31 C 3.407218 -1.870252 -0.467962 0
M  V30 32 H 5.421354 -3.325567 2.099648 0
M  V30 33 H 5.467895 -5.098196 2.032121 0
M  V30 34 H 7.002771 -4.227721 1.875252 0
M  V30 35 H 6.403188 -2.346575 -1.601291 0
M  V30 36 H 6.290647 -0.066702 -0.432893 0
M  V30 37 H 4.665183 1.767728 0.109601 0
M  V30 38 H -0.123225 1.597608 2.495833 0
M  V30 39 H -2.388610 2.371641 3.001155 0
M  V30 40 H -5.469516 3.812244 2.327273 0
M  V30 41 H -4.321488 3.087181 3.282901 0
M  V30 42 H -4.754975 0.407392 2.539583 0
M  V30 43 H -6.089641 1.626192 2.837100 0
M  V30 44 H -5.480444 0.090632 0.281440 0
M  V30 45 H -7.075220 0.796247 0.765217 0
M  V30 46 H -6.345639 3.052829 0.582402 0
M  V30 47 H -5.180436 2.479608 -0.685227 0
M  V30 48 H -3.637818 1.164703 -0.904676 0
M  V30 49 H -1.313083 0.385192 -1.386938 0
M  V30 50 H 0.712380 -2.347327 -2.188484 0
M  V30 51 H -0.932696 -4.236602 -2.284956 0
M  V30 52 H -2.259747 -4.849293 -0.356843 0
M  V30 53 H -2.007971 -3.594764 1.784394 0
M  V30 54 H -0.409318 -1.758192 1.878876 0
M  V30 55 H 3.037322 -2.881130 -0.626375 0
M  V30 END ATOM
M  V30 BEGIN BOND
M  V30 1 1 1 2
M  V30 2 2 2 3
M  V30 3 2 2 4
M  V30 4 1 2 5
M  V30 5 1 5 6
M  V30 6 1 6 7
M  V30 7 2 7 8
M  V30 8 1 8 9
M  V30 9 2 9 10
M  V30 10 1 10 11
M  V30 11 1 11 12
M  V30 12 2 12 13
M  V30 13 1 13 14
M  V30 14 2 14 15
M  V30 15 1 15 16
M  V30 16 1 16 17
M  V30 17 1 16 18
M  V30 18 1 18 19
M  V30 19 1 19 20
M  V30 20 1 15 21
M  V30 21 2 21 22
M  V30 22 2 11 23
M  V30 23 1 23 24
M  V30 24 2 24 25
M  V30 25 1 25 26
M  V30 26 2 26 27
M  V30 27 1 27 28
M  V30 28 2 28 29
M  V30 29 1 23 30
M  V30 30 1 30 31
M  V30 31 2 31 6
M  V30 32 1 30 9
M  V30 33 1 22 12
M  V30 34 1 29 24
M  V30 35 1 20 16
M  V30 36 1 1 32
M  V30 37 1 1 33
M  V30 38 1 1 34
M  V30 39 1 5 35
M  V30 40 1 7 36
M  V30 41 1 8 37
M  V30 42 1 13 38
M  V30 43 1 14 39
M  V30 44 1 17 40
M  V30 45 1 17 41
M  V30 46 1 18 42
M  V30 47 1 18 43
M  V30 48 1 19 44
M  V30 49 1 19 45
M  V30 50 1 20 46
M  V30 51 1 20 47
M  V30 52 1 21 48
M  V30 53 1 22 49
M  V30 54 1 25 50
M  V30 55 1 26 51
M  V30 56 1 27 52
M  V30 57 1 28 53
M  V30 58 1 29 54
M  V30 59 1 31 55
M  V30 END BOND
M  V30 END CTAB
M  END
>  <Dataset>  (904) 
ChEMBL_Kinases

>  <Ligand_Instance>  (904) 
nan

>  <PDB_ID>  (904) 
nan

>  <Standardized_SMILES>  (904) 
CS(=O)(=O)Nc1ccc2nc(-c3ccc(C4(N)CCC4)cc3)c(-c3ccccc3)n2c1

>  <Name>  (904) 
nan

>  <Pocket>  (904) 
nan

>  <ATP_Site>  (904) 
nan

>  <Peripheral>  (904) 
nan

>  <Num_H_Atoms_ProtBoundConf>  (904) 
nan

>  <Num_Resolved_Atoms>  (904) 
nan

>  <Num_Not_Resolved_Atoms>  (904) 
nan

$$$$
CHEMBL3703151
     RDKit          3D

  0  0  0  0  0  0  0  0  0  0999 V3000
M  V30 BEGIN CTAB
M  V30 COUNTS 55 59 0 0 0
M  V30 BEGIN ATOM
M  V30 1 C 3.472076 -6.343616 1.140454 0
M  V30 2 C 4.093340 -5.346917 1.728297 0
M  V30 3 C 3.546634 -3.994821 1.748529 0
M  V30 4 C 4.263915 -3.005171 2.388066 0
M  V30 5 C 3.777740 -1.714929 2.427221 0
M  V30 6 O 4.356543 -0.612499 3.016423 0
M  V30 7 C 5.598808 -0.702801 3.689043 0
M  V30 8 C 2.558999 -1.458301 1.807814 0
M  V30 9 N 1.791095 -0.333767 1.649530 0
M  V30 10 C 0.677465 -0.652996 0.949993 0
M  V30 11 C -0.359435 0.318743 0.604472 0
M  V30 12 C -1.074132 0.993850 1.587141 0
M  V30 13 C -2.061784 1.919805 1.223426 0
M  V30 14 C -2.317550 2.154495 -0.132642 0
M  V30 15 C -3.386780 3.157766 -0.365865 0
M  V30 16 N -4.597255 2.942349 0.401818 0
M  V30 17 C -3.709854 3.460544 -1.801352 0
M  V30 18 C -4.019177 4.881841 -1.306877 0
M  V30 19 C -2.958505 4.607192 -0.232124 0
M  V30 20 C -1.618511 1.493995 -1.120277 0
M  V30 21 C -0.656029 0.591855 -0.712580 0
M  V30 22 C 0.728872 -2.005275 0.652853 0
M  V30 23 C -0.317447 -2.640701 -0.085482 0
M  V30 24 C -1.597520 -2.677680 0.442294 0
M  V30 25 C -2.634590 -3.293026 -0.261217 0
M  V30 26 C -2.377039 -3.867243 -1.491285 0
M  V30 27 C -1.086518 -3.826285 -2.016218 0
M  V30 28 C -0.031513 -3.216505 -1.331899 0
M  V30 29 N 1.895363 -2.442907 1.199536 0
M  V30 30 C 2.338260 -3.730695 1.136699 0
M  V30 31 H 3.826227 -7.379488 1.088788 0
M  V30 32 H 2.538932 -6.413020 0.601883 0
M  V30 33 H 5.017435 -5.600560 2.184035 0
M  V30 34 H 5.209541 -3.158842 2.879768 0
M  V30 35 H 6.177088 0.261737 3.590797 0
M  V30 36 H 5.462101 -0.856548 4.799068 0
M  V30 37 H 6.280320 -1.466498 3.263534 0
M  V30 38 H -0.841026 0.779162 2.625351 0
M  V30 39 H -2.581229 2.410890 2.026416 0
M  V30 40 H -4.561917 3.353785 1.354186 0
M  V30 41 H -4.908211 1.965424 0.433986 0
M  V30 42 H -4.586603 2.889833 -2.142171 0
M  V30 43 H -2.882341 3.442191 -2.521880 0
M  V30 44 H -3.765020 5.683403 -2.018467 0
M  V30 45 H -5.006029 4.886367 -0.841093 0
M  V30 46 H -3.196883 5.022273 0.755623 0
M  V30 47 H -1.925746 4.728628 -0.585150 0
M  V30 48 H -1.856598 1.713541 -2.130594 0
M  V30 49 H -0.106017 0.072121 -1.470763 0
M  V30 50 H -1.810417 -2.229437 1.408174 0
M  V30 51 H -3.640315 -3.352996 0.093612 0
M  V30 52 H -3.099201 -4.366395 -2.117719 0
M  V30 53 H -0.841837 -4.261387 -2.971624 0
M  V30 54 H 0.963809 -3.202604 -1.770993 0
M  V30 55 H 1.783547 -4.518815 0.636689 0
M  V30 END ATOM
M  V30 BEGIN BOND
M  V30 1 2 1 2
M  V30 2 1 2 3
M  V30 3 1 3 4
M  V30 4 2 4 5
M  V30 5 1 5 6
M  V30 6 1 6 7
M  V30 7 1 5 8
M  V30 8 2 8 9
M  V30 9 1 9 10
M  V30 10 1 10 11
M  V30 11 2 11 12
M  V30 12 1 12 13
M  V30 13 2 13 14
M  V30 14 1 14 15
M  V30 15 1 15 16
M  V30 16 1 15 17
M  V30 17 1 17 18
M  V30 18 1 18 19
M  V30 19 1 14 20
M  V30 20 2 20 21
M  V30 21 2 10 22
M  V30 22 1 22 23
M  V30 23 2 23 24
M  V30 24 1 24 25
M  V30 25 2 25 26
M  V30 26 1 26 27
M  V30 27 2 27 28
M  V30 28 1 22 29
M  V30 29 1 29 30
M  V30 30 2 30 3
M  V30 31 1 29 8
M  V30 32 1 21 11
M  V30 33 1 28 23
M  V30 34 1 19 15
M  V30 35 1 1 31
M  V30 36 1 1 32
M  V30 37 1 2 33
M  V30 38 1 4 34
M  V30 39 1 7 35
M  V30 40 1 7 36
M  V30 41 1 7 37
M  V30 42 1 12 38
M  V30 43 1 13 39
M  V30 44 1 16 40
M  V30 45 1 16 41
M  V30 46 1 17 42
M  V30 47 1 17 43
M  V30 48 1 18 44
M  V30 49 1 18 45
M  V30 50 1 19 46
M  V30 51 1 19 47
M  V30 52 1 20 48
M  V30 53 1 21 49
M  V30 54 1 24 50
M  V30 55 1 25 51
M  V30 56 1 26 52
M  V30 57 1 27 53
M  V30 58 1 28 54
M  V30 59 1 30 55
M  V30 END BOND
M  V30 END CTAB
M  END
>  <Dataset>  (905) 
ChEMBL_Kinases

>  <Ligand_Instance>  (905) 
nan

>  <PDB_ID>  (905) 
nan

>  <Standardized_SMILES>  (905) 
C=Cc1cc(OC)c2nc(-c3ccc(C4(N)CCC4)cc3)c(-c3ccccc3)n2c1

>  <Name>  (905) 
nan

>  <Pocket>  (905) 
nan

>  <ATP_Site>  (905) 
nan

>  <Peripheral>  (905) 
nan

>  <Num_H_Atoms_ProtBoundConf>  (905) 
nan

>  <Num_Resolved_Atoms>  (905) 
nan

>  <Num_Not_Resolved_Atoms>  (905) 
nan

$$$$
CHEMBL220272
     RDKit          3D

  0  0  0  0  0  0  0  0  0  0999 V3000
M  V30 BEGIN CTAB
M  V30 COUNTS 45 48 0 0 0
M  V30 BEGIN ATOM
M  V30 1 O 2.935736 1.060260 1.657179 0
M  V30 2 C 2.688389 -0.155870 1.900646 0
M  V30 3 N 3.587550 -1.245549 1.904675 0
M  V30 4 O 4.911898 -1.223209 1.646464 0
M  V30 5 C 5.101407 -1.454178 0.296205 0
M  V30 6 C 4.460972 -0.468608 -0.594470 0
M  V30 7 C 3.172441 -0.605475 -1.101930 0
M  V30 8 C 2.644564 0.359239 -1.928282 0
M  V30 9 C 3.423698 1.475757 -2.247767 0
M  V30 10 C 4.699208 1.597591 -1.737248 0
M  V30 11 C 5.248700 0.639614 -0.905079 0
M  V30 12 C 1.265190 -0.403754 2.212192 0
M  V30 13 C 0.264100 0.545730 2.242020 0
M  V30 14 C -0.950956 -0.061240 2.576008 0
M  V30 15 C -2.274365 0.553049 2.722703 0
M  V30 16 N -2.485263 1.522827 3.634654 0
M  V30 17 N -3.750665 1.876455 3.533274 0
M  V30 18 C -4.368030 1.165215 2.582616 0
M  V30 19 C -3.431854 0.292831 2.034821 0
M  V30 20 C -3.509223 -0.712716 0.983691 0
M  V30 21 C -2.845213 -0.780390 -0.223057 0
M  V30 22 C -3.092532 -1.848627 -1.060475 0
M  V30 23 C -3.985700 -2.838846 -0.709672 0
M  V30 24 C -4.671273 -2.798711 0.501294 0
M  V30 25 Cl -5.782730 -4.078871 0.879946 0
M  V30 26 C -4.408284 -1.711807 1.334057 0
M  V30 27 C -0.631864 -1.382569 2.738959 0
M  V30 28 N 0.684413 -1.598821 2.525024 0
M  V30 29 H 3.199183 -2.200390 2.134491 0
M  V30 30 H 6.209226 -1.511828 0.120456 0
M  V30 31 H 4.730064 -2.455201 -0.029366 0
M  V30 32 H 2.655710 -1.515672 -0.787131 0
M  V30 33 H 1.640174 0.221748 -2.304962 0
M  V30 34 H 2.965478 2.208293 -2.901253 0
M  V30 35 H 5.224032 2.512513 -2.051123 0
M  V30 36 H 6.253512 0.786665 -0.533657 0
M  V30 37 H 0.334583 1.607331 2.049368 0
M  V30 38 H -1.787727 1.940634 4.315000 0
M  V30 39 H -5.392802 1.180853 2.224215 0
M  V30 40 H -2.175612 0.054909 -0.376443 0
M  V30 41 H -2.532388 -1.839169 -1.999940 0
M  V30 42 H -4.157575 -3.668204 -1.393975 0
M  V30 43 H -4.997236 -1.777884 2.255875 0
M  V30 44 H -1.392478 -2.122675 3.009292 0
M  V30 45 H 1.152373 -2.514257 2.590854 0
M  V30 END ATOM
M  V30 BEGIN BOND
M  V30 1 2 1 2
M  V30 2 1 2 3
M  V30 3 1 3 4
M  V30 4 1 4 5
M  V30 5 1 5 6
M  V30 6 2 6 7
M  V30 7 1 7 8
M  V30 8 2 8 9
M  V30 9 1 9 10
M  V30 10 2 10 11
M  V30 11 1 2 12
M  V30 12 2 12 13
M  V30 13 1 13 14
M  V30 14 1 14 15
M  V30 15 1 15 16
M  V30 16 1 16 17
M  V30 17 2 17 18
M  V30 18 1 18 19
M  V30 19 1 19 20
M  V30 20 2 20 21
M  V30 21 1 21 22
M  V30 22 2 22 23
M  V30 23 1 23 24
M  V30 24 1 24 25
M  V30 25 2 24 26
M  V30 26 2 14 27
M  V30 27 1 27 28
M  V30 28 1 11 6
M  V30 29 1 28 12
M  V30 30 2 19 15
M  V30 31 1 26 20
M  V30 32 1 3 29
M  V30 33 1 5 30
M  V30 34 1 5 31
M  V30 35 1 7 32
M  V30 36 1 8 33
M  V30 37 1 9 34
M  V30 38 1 10 35
M  V30 39 1 11 36
M  V30 40 1 13 37
M  V30 41 1 16 38
M  V30 42 1 18 39
M  V30 43 1 21 40
M  V30 44 1 22 41
M  V30 45 1 23 42
M  V30 46 1 26 43
M  V30 47 1 27 44
M  V30 48 1 28 45
M  V30 END BOND
M  V30 END CTAB
M  END
>  <Dataset>  (906) 
ChEMBL_Kinases

>  <Ligand_Instance>  (906) 
nan

>  <PDB_ID>  (906) 
nan

>  <Standardized_SMILES>  (906) 
O=C(NOCc1ccccc1)c1cc(-c2[nH]ncc2-c2cccc(Cl)c2)c[nH]1

>  <Name>  (906) 
nan

>  <Pocket>  (906) 
nan

>  <ATP_Site>  (906) 
nan

>  <Peripheral>  (906) 
nan

>  <Num_H_Atoms_ProtBoundConf>  (906) 
nan

>  <Num_Resolved_Atoms>  (906) 
nan

>  <Num_Not_Resolved_Atoms>  (906) 
nan

$$$$
CHEMBL220258
     RDKit          3D

  0  0  0  0  0  0  0  0  0  0999 V3000
M  V30 BEGIN CTAB
M  V30 COUNTS 54 59 0 0 0
M  V30 BEGIN ATOM
M  V30 1 C 1.208215 -10.037304 -0.720195 0
M  V30 2 C 0.001781 -9.763717 -0.112589 0
M  V30 3 N -0.174125 -8.425911 -0.173391 0
M  V30 4 N 0.873491 -7.872879 -0.792004 0
M  V30 5 C 0.724329 -6.444267 -0.877312 0
M  V30 6 C 1.041362 -5.532829 0.107548 0
M  V30 7 C 0.844683 -4.188244 -0.114482 0
M  V30 8 C 0.338605 -3.692388 -1.289361 0
M  V30 9 C 0.074119 -2.412428 -1.695605 0
M  V30 10 C 0.223176 -1.122034 -1.057149 0
M  V30 11 C 0.665003 -0.660228 0.150511 0
M  V30 12 C 0.595638 0.713029 0.255092 0
M  V30 13 C 0.931075 1.579953 1.277084 0
M  V30 14 C 0.757152 2.938509 1.115529 0
M  V30 15 C 1.079689 3.958138 2.145285 0
M  V30 16 N -0.013151 4.257587 2.972387 0
M  V30 17 C -0.605845 3.254880 3.757265 0
M  V30 18 C -1.909062 2.820257 3.071199 0
M  V30 19 C -2.499705 3.941438 2.264720 0
M  V30 20 C -2.133408 5.305437 2.850115 0
M  V30 21 C -0.633448 5.517201 2.889121 0
M  V30 22 C 0.240042 3.352919 -0.103742 0
M  V30 23 C -0.090867 2.475765 -1.116566 0
M  V30 24 C 0.081501 1.114734 -0.959154 0
M  V30 25 N -0.121617 0.009751 -1.695976 0
M  V30 26 N -0.403805 -2.595200 -2.937776 0
M  V30 27 N -0.431573 -3.871695 -3.267709 0
M  V30 28 C 0.029671 -4.623097 -2.257779 0
M  V30 29 C 0.213068 -5.978275 -2.071391 0
M  V30 30 C 1.726260 -8.828974 -1.133704 0
M  V30 31 H 1.824036 -10.913456 -0.945623 0
M  V30 32 H -0.565942 -10.596358 0.283988 0
M  V30 33 H 1.436717 -5.956171 1.018059 0
M  V30 34 H 1.105323 -3.521925 0.678257 0
M  V30 35 H 1.030847 -1.279402 0.946572 0
M  V30 36 H 1.332254 1.202705 2.204678 0
M  V30 37 H 1.952572 3.644486 2.763603 0
M  V30 38 H 1.417107 4.854435 1.584466 0
M  V30 39 H 0.055051 2.379305 3.834852 0
M  V30 40 H -0.898836 3.574042 4.782523 0
M  V30 41 H -2.627155 2.427476 3.825219 0
M  V30 42 H -1.714082 1.970090 2.386840 0
M  V30 43 H -2.301379 3.882755 1.186783 0
M  V30 44 H -3.614694 3.888925 2.362075 0
M  V30 45 H -2.636218 6.051533 2.207862 0
M  V30 46 H -2.591066 5.341801 3.865185 0
M  V30 47 H -0.437762 6.200544 3.738291 0
M  V30 48 H -0.364008 5.991447 1.924758 0
M  V30 49 H 0.091682 4.410539 -0.262498 0
M  V30 50 H -0.492096 2.823892 -2.057282 0
M  V30 51 H -0.514368 0.163009 -2.654878 0
M  V30 52 H -0.774321 -4.189706 -4.196576 0
M  V30 53 H -0.066533 -6.602134 -2.903430 0
M  V30 54 H 2.611577 -8.461411 -1.644996 0
M  V30 END ATOM
M  V30 BEGIN BOND
M  V30 1 1 1 2
M  V30 2 2 2 3
M  V30 3 1 3 4
M  V30 4 1 4 5
M  V30 5 2 5 6
M  V30 6 1 6 7
M  V30 7 2 7 8
M  V30 8 1 8 9
M  V30 9 1 9 10
M  V30 10 2 10 11
M  V30 11 1 11 12
M  V30 12 2 12 13
M  V30 13 1 13 14
M  V30 14 1 14 15
M  V30 15 1 15 16
M  V30 16 1 16 17
M  V30 17 1 17 18
M  V30 18 1 18 19
M  V30 19 1 19 20
M  V30 20 1 20 21
M  V30 21 2 14 22
M  V30 22 1 22 23
M  V30 23 2 23 24
M  V30 24 1 24 25
M  V30 25 2 9 26
M  V30 26 1 26 27
M  V30 27 1 27 28
M  V30 28 2 28 29
M  V30 29 1 4 30
M  V30 30 2 30 1
M  V30 31 1 29 5
M  V30 32 1 28 8
M  V30 33 1 25 10
M  V30 34 1 24 12
M  V30 35 1 21 16
M  V30 36 1 1 31
M  V30 37 1 2 32
M  V30 38 1 6 33
M  V30 39 1 7 34
M  V30 40 1 11 35
M  V30 41 1 13 36
M  V30 42 1 15 37
M  V30 43 1 15 38
M  V30 44 1 17 39
M  V30 45 1 17 40
M  V30 46 1 18 41
M  V30 47 1 18 42
M  V30 48 1 19 43
M  V30 49 1 19 44
M  V30 50 1 20 45
M  V30 51 1 20 46
M  V30 52 1 21 47
M  V30 53 1 21 48
M  V30 54 1 22 49
M  V30 55 1 23 50
M  V30 56 1 25 51
M  V30 57 1 27 52
M  V30 58 1 29 53
M  V30 59 1 30 54
M  V30 END BOND
M  V30 END CTAB
M  END
>  <Dataset>  (907) 
ChEMBL_Kinases

>  <Ligand_Instance>  (907) 
nan

>  <PDB_ID>  (907) 
nan

>  <Standardized_SMILES>  (907) 
c1cnn(-c2ccc3c(-c4cc5cc(CN6CCCCC6)ccc5[nH]4)n[nH]c3c2)c1

>  <Name>  (907) 
nan

>  <Pocket>  (907) 
nan

>  <ATP_Site>  (907) 
nan

>  <Peripheral>  (907) 
nan

>  <Num_H_Atoms_ProtBoundConf>  (907) 
nan

>  <Num_Resolved_Atoms>  (907) 
nan

>  <Num_Not_Resolved_Atoms>  (907) 
nan

$$$$
CHEMBL3703152
     RDKit          3D

  0  0  0  0  0  0  0  0  0  0999 V3000
M  V30 BEGIN CTAB
M  V30 COUNTS 48 52 0 0 0
M  V30 BEGIN ATOM
M  V30 1 N 0.402661 -5.443445 1.389639 0
M  V30 2 C -0.682229 -4.568858 0.930601 0 CFG=2
M  V30 3 C -0.270263 -3.258193 0.425872 0
M  V30 4 C -0.669268 -2.545204 -0.681244 0
M  V30 5 C -0.210688 -1.298289 -1.039727 0
M  V30 6 C 0.734657 -0.707361 -0.217405 0
M  V30 7 C 1.197866 0.615120 -0.624201 0
M  V30 8 N 1.899725 1.075824 -1.696503 0
M  V30 9 C 2.057266 2.420576 -1.560229 0
M  V30 10 N 2.687581 3.310771 -2.377892 0
M  V30 11 C 2.731039 4.629585 -2.050085 0
M  V30 12 O 3.355798 5.586585 -2.836736 0
M  V30 13 C 2.130162 5.070052 -0.877595 0
M  V30 14 C 1.506457 4.113664 -0.092267 0
M  V30 15 N 1.455027 2.806184 -0.402641 0
M  V30 16 C 0.916483 1.700298 0.191199 0
M  V30 17 C 0.204177 1.866630 1.460813 0
M  V30 18 C -1.153880 1.535473 1.484466 0
M  V30 19 C -1.944175 1.650499 2.612793 0
M  V30 20 C -1.313489 2.121411 3.751454 0
M  V30 21 C 0.027449 2.467837 3.799597 0
M  V30 22 C 0.752448 2.327611 2.637283 0
M  V30 23 C 1.204808 -1.351812 0.931105 0
M  V30 24 C 0.670848 -2.596653 1.186042 0
M  V30 25 C -1.818645 -4.540486 1.935363 0
M  V30 26 C -2.419253 -5.745469 1.253845 0 CFG=2
M  V30 27 O -1.982114 -6.949862 1.798184 0
M  V30 28 C -1.599656 -5.339543 0.016977 0
M  V30 29 H 1.283360 -5.031683 1.020986 0
M  V30 30 H 0.373698 -5.467371 2.441801 0
M  V30 31 H -1.404777 -3.026229 -1.309637 0
M  V30 32 H -0.607403 -0.847432 -1.937237 0
M  V30 33 H 2.803699 6.004374 -3.589290 0
M  V30 34 H 2.140277 6.114536 -0.574889 0
M  V30 35 H 1.052758 4.471697 0.801483 0
M  V30 36 H -1.681915 1.159003 0.594405 0
M  V30 37 H -2.993942 1.391630 2.619322 0
M  V30 38 H -1.909782 2.218539 4.636501 0
M  V30 39 H 0.497065 2.836067 4.708163 0
M  V30 40 H 1.803502 2.582350 2.614926 0
M  V30 41 H 1.941669 -0.856551 1.543213 0
M  V30 42 H 1.094309 -3.031112 2.103958 0
M  V30 43 H -1.491081 -4.711998 2.981857 0
M  V30 44 H -2.455367 -3.655187 1.804559 0
M  V30 45 H -3.520266 -5.665796 1.085220 0
M  V30 46 H -2.688061 -7.670107 1.726155 0
M  V30 47 H -1.143093 -6.225057 -0.482058 0
M  V30 48 H -2.221420 -4.709833 -0.643424 0
M  V30 END ATOM
M  V30 BEGIN BOND
M  V30 1 1 2 1 CFG=1
M  V30 2 1 2 3
M  V30 3 2 3 4
M  V30 4 1 4 5
M  V30 5 2 5 6
M  V30 6 1 6 7
M  V30 7 1 7 8
M  V30 8 2 8 9
M  V30 9 1 9 10
M  V30 10 2 10 11
M  V30 11 1 11 12
M  V30 12 1 11 13
M  V30 13 2 13 14
M  V30 14 1 14 15
M  V30 15 1 15 16
M  V30 16 1 16 17
M  V30 17 2 17 18
M  V30 18 1 18 19
M  V30 19 2 19 20
M  V30 20 1 20 21
M  V30 21 2 21 22
M  V30 22 1 6 23
M  V30 23 2 23 24
M  V30 24 1 2 25
M  V30 25 1 25 26
M  V30 26 1 26 27
M  V30 27 1 26 28
M  V30 28 1 28 2
M  V30 29 1 24 3
M  V30 30 2 16 7
M  V30 31 1 22 17
M  V30 32 1 15 9
M  V30 33 1 1 29
M  V30 34 1 1 30
M  V30 35 1 4 31
M  V30 36 1 5 32
M  V30 37 1 12 33
M  V30 38 1 13 34
M  V30 39 1 14 35
M  V30 40 1 18 36
M  V30 41 1 19 37
M  V30 42 1 20 38
M  V30 43 1 21 39
M  V30 44 1 22 40
M  V30 45 1 23 41
M  V30 46 1 24 42
M  V30 47 1 25 43
M  V30 48 1 25 44
M  V30 49 1 26 45 CFG=3
M  V30 50 1 27 46
M  V30 51 1 28 47
M  V30 52 1 28 48
M  V30 END BOND
M  V30 END CTAB
M  END
>  <Dataset>  (908) 
ChEMBL_Kinases

>  <Ligand_Instance>  (908) 
nan

>  <PDB_ID>  (908) 
nan

>  <Standardized_SMILES>  (908) 
N[C@]1(c2ccc(-c3nc4nc(O)ccn4c3-c3ccccc3)cc2)C[C@H](O)C1

>  <Name>  (908) 
nan

>  <Pocket>  (908) 
nan

>  <ATP_Site>  (908) 
nan

>  <Peripheral>  (908) 
nan

>  <Num_H_Atoms_ProtBoundConf>  (908) 
nan

>  <Num_Resolved_Atoms>  (908) 
nan

>  <Num_Not_Resolved_Atoms>  (908) 
nan

$$$$
CHEMBL4459138
     RDKit          3D

  0  0  0  0  0  0  0  0  0  0999 V3000
M  V30 BEGIN CTAB
M  V30 COUNTS 55 58 0 0 0
M  V30 BEGIN ATOM
M  V30 1 C 5.324728 -3.449798 5.226241 0
M  V30 2 C 4.358061 -3.884659 4.116052 0
M  V30 3 C 3.886161 -2.615695 3.485109 0
M  V30 4 C 4.465513 -1.961555 2.421849 0
M  V30 5 C 3.655261 -0.859610 2.232389 0
M  V30 6 N 3.922611 0.069633 1.192313 0
M  V30 7 C 3.247922 1.264039 0.819097 0
M  V30 8 N 3.585949 2.559671 0.898633 0
M  V30 9 C 2.777714 3.548636 0.490987 0
M  V30 10 C 1.547024 3.217805 -0.030758 0
M  V30 11 C 1.164076 1.903422 -0.127736 0
M  V30 12 C -0.130003 1.489579 -0.657595 0
M  V30 13 C -0.459956 0.169347 -0.709912 0
M  V30 14 C -1.609628 -0.443925 -1.166186 0
M  V30 15 N -2.523283 0.470668 -1.625315 0
M  V30 16 C -3.750403 -0.051332 -2.117811 0 CFG=2
M  V30 17 C -5.000604 0.626904 -1.725067 0
M  V30 18 O -6.047275 -0.109812 -2.351796 0
M  V30 19 C -3.881374 -1.519578 -1.904255 0
M  V30 20 C -3.712836 -2.529585 -2.844857 0
M  V30 21 C -3.877543 -3.826622 -2.416601 0
M  V30 22 C -4.196968 -4.241701 -1.128162 0
M  V30 23 Cl -4.369364 -5.943209 -0.764825 0
M  V30 24 C -4.357961 -3.198478 -0.207011 0
M  V30 25 F -4.668902 -3.566884 1.061644 0
M  V30 26 C -4.197673 -1.898683 -0.621417 0
M  V30 27 C -2.289480 1.799743 -1.616196 0
M  V30 28 O -3.083587 2.657084 -2.019452 0
M  V30 29 C -1.094078 2.354546 -1.135597 0
M  V30 30 N 2.039116 0.981233 0.304400 0
M  V30 31 N 2.664338 -0.846446 3.111794 0
M  V30 32 C 1.600351 0.123960 3.254257 0
M  V30 33 N 2.814997 -1.922307 3.869752 0
M  V30 34 H 4.692469 -2.924412 5.976253 0
M  V30 35 H 5.882667 -4.292446 5.657525 0
M  V30 36 H 6.047559 -2.752508 4.759570 0
M  V30 37 H 4.911049 -4.442399 3.321645 0
M  V30 38 H 3.537464 -4.470962 4.542991 0
M  V30 39 H 5.354356 -2.240096 1.855508 0
M  V30 40 H 4.687393 0.042390 0.491025 0
M  V30 41 H 3.125854 4.561268 0.590520 0
M  V30 42 H 0.882904 4.000495 -0.360655 0
M  V30 43 H 0.301040 -0.528302 -0.331200 0
M  V30 44 H -1.771031 -1.505384 -1.162157 0
M  V30 45 H -3.685307 0.049441 -3.246325 0
M  V30 46 H -5.120402 1.645445 -2.163041 0
M  V30 47 H -5.279515 0.605032 -0.666345 0
M  V30 48 H -6.853022 0.457720 -2.436826 0
M  V30 49 H -3.468477 -2.207354 -3.843501 0
M  V30 50 H -3.751124 -4.629984 -3.153553 0
M  V30 51 H -4.345272 -1.158196 0.181581 0
M  V30 52 H -0.894551 3.406231 -1.121630 0
M  V30 53 H 1.121778 0.077125 4.277332 0
M  V30 54 H 0.799044 -0.147459 2.538445 0
M  V30 55 H 1.967307 1.147028 3.086115 0
M  V30 END ATOM
M  V30 BEGIN BOND
M  V30 1 1 1 2
M  V30 2 1 2 3
M  V30 3 1 3 4
M  V30 4 2 4 5
M  V30 5 1 5 6
M  V30 6 1 6 7
M  V30 7 2 7 8
M  V30 8 1 8 9
M  V30 9 2 9 10
M  V30 10 1 10 11
M  V30 11 1 11 12
M  V30 12 1 12 13
M  V30 13 2 13 14
M  V30 14 1 14 15
M  V30 15 1 15 16
M  V30 16 1 16 17
M  V30 17 1 17 18
M  V30 18 1 16 19
M  V30 19 2 19 20
M  V30 20 1 20 21
M  V30 21 2 21 22
M  V30 22 1 22 23
M  V30 23 1 22 24
M  V30 24 1 24 25
M  V30 25 2 24 26
M  V30 26 1 15 27
M  V30 27 2 27 28
M  V30 28 1 27 29
M  V30 29 2 11 30
M  V30 30 1 5 31
M  V30 31 1 31 32
M  V30 32 1 31 33
M  V30 33 2 33 3
M  V30 34 1 30 7
M  V30 35 2 29 12
M  V30 36 1 26 19
M  V30 37 1 1 34
M  V30 38 1 1 35
M  V30 39 1 1 36
M  V30 40 1 2 37
M  V30 41 1 2 38
M  V30 42 1 4 39
M  V30 43 1 6 40
M  V30 44 1 9 41
M  V30 45 1 10 42
M  V30 46 1 13 43
M  V30 47 1 14 44
M  V30 48 1 16 45 CFG=3
M  V30 49 1 17 46
M  V30 50 1 17 47
M  V30 51 1 18 48
M  V30 52 1 20 49
M  V30 53 1 21 50
M  V30 54 1 26 51
M  V30 55 1 29 52
M  V30 56 1 32 53
M  V30 57 1 32 54
M  V30 58 1 32 55
M  V30 END BOND
M  V30 END CTAB
M  END
>  <Dataset>  (909) 
ChEMBL_Kinases

>  <Ligand_Instance>  (909) 
nan

>  <PDB_ID>  (909) 
nan

>  <Standardized_SMILES>  (909) 
CCc1cc(Nc2nccc(-c3ccn([C@H](CO)c4ccc(Cl)c(F)c4)c(=O)c3)n2)n(C)n1

>  <Name>  (909) 
nan

>  <Pocket>  (909) 
nan

>  <ATP_Site>  (909) 
nan

>  <Peripheral>  (909) 
nan

>  <Num_H_Atoms_ProtBoundConf>  (909) 
nan

>  <Num_Resolved_Atoms>  (909) 
nan

>  <Num_Not_Resolved_Atoms>  (909) 
nan

$$$$
CHEMBL4459120
     RDKit          3D

  0  0  0  0  0  0  0  0  0  0999 V3000
M  V30 BEGIN CTAB
M  V30 COUNTS 52 55 0 0 0
M  V30 BEGIN ATOM
M  V30 1 N 6.166904 -7.597097 3.229380 0
M  V30 2 C 5.917318 -6.472752 3.063641 0
M  V30 3 C 5.586002 -5.087025 2.864259 0
M  V30 4 C 6.233709 -4.078437 3.558906 0
M  V30 5 C 5.941795 -2.744518 3.392391 0
M  V30 6 C 4.954816 -2.412986 2.487006 0
M  V30 7 N 4.477044 -1.214535 2.133729 0
M  V30 8 C 3.500623 -1.369294 1.198437 0
M  V30 9 N 2.761005 -0.323236 0.585007 0
M  V30 10 C 1.745672 -0.527956 -0.389703 0
M  V30 11 C 1.079790 0.545520 -0.931244 0
M  V30 12 C 0.085711 0.433302 -1.877617 0
M  V30 13 C -0.629318 1.588897 -2.461274 0
M  V30 14 N -1.796064 1.969181 -1.745104 0
M  V30 15 C -1.619409 2.370478 -0.389223 0
M  V30 16 C -1.987809 1.203547 0.528605 0
M  V30 17 N -3.437974 1.090406 0.514306 0
M  V30 18 C -4.042582 0.640195 1.717003 0
M  V30 19 O -3.203661 0.407471 2.617181 0
M  V30 20 C -5.525242 0.490937 1.805801 0
M  V30 21 C -5.882603 -0.001521 3.201096 0
M  V30 22 F -7.248160 -0.154439 3.330235 0
M  V30 23 F -5.459329 0.918195 4.134232 0
M  V30 24 F -5.197328 -1.204904 3.389015 0
M  V30 25 C -3.932813 1.480856 -0.777404 0
M  V30 26 C -2.922771 1.103671 -1.851962 0
M  V30 27 C -0.217437 -0.863981 -2.268412 0
M  V30 28 C 0.428909 -1.965727 -1.747653 0
M  V30 29 N 1.385114 -1.745920 -0.827948 0
M  V30 30 N 3.423702 -2.699088 1.016925 0
M  V30 31 C 4.293886 -3.374608 1.783742 0
M  V30 32 C 4.596074 -4.710731 1.959771 0
M  V30 33 H 7.015388 -4.326647 4.277076 0
M  V30 34 H 6.490224 -2.002023 3.971431 0
M  V30 35 H 2.982539 0.659371 0.873451 0
M  V30 36 H 1.370277 1.515289 -0.583980 0
M  V30 37 H -0.982466 1.240498 -3.476918 0
M  V30 38 H 0.047797 2.445863 -2.660421 0
M  V30 39 H -0.628608 2.703718 -0.095443 0
M  V30 40 H -2.306354 3.233769 -0.146418 0
M  V30 41 H -1.561376 1.333639 1.531812 0
M  V30 42 H -1.618839 0.246118 0.094281 0
M  V30 43 H -5.823821 -0.235887 1.034667 0
M  V30 44 H -6.056460 1.435274 1.610128 0
M  V30 45 H -4.128735 2.565232 -0.762337 0
M  V30 46 H -4.858650 0.916616 -0.997609 0
M  V30 47 H -3.438202 1.379113 -2.818480 0
M  V30 48 H -2.730097 0.034505 -1.866336 0
M  V30 49 H -0.968368 -1.091522 -3.000229 0
M  V30 50 H 0.248997 -2.983521 -1.999356 0
M  V30 51 H 2.784581 -3.209564 0.371160 0
M  V30 52 H 4.050942 -5.450288 1.384087 0
M  V30 END ATOM
M  V30 BEGIN BOND
M  V30 1 3 1 2
M  V30 2 1 2 3
M  V30 3 2 3 4
M  V30 4 1 4 5
M  V30 5 2 5 6
M  V30 6 1 6 7
M  V30 7 2 7 8
M  V30 8 1 8 9
M  V30 9 1 9 10
M  V30 10 2 10 11
M  V30 11 1 11 12
M  V30 12 1 12 13
M  V30 13 1 13 14
M  V30 14 1 14 15
M  V30 15 1 15 16
M  V30 16 1 16 17
M  V30 17 1 17 18
M  V30 18 2 18 19
M  V30 19 1 18 20
M  V30 20 1 20 21
M  V30 21 1 21 22
M  V30 22 1 21 23
M  V30 23 1 21 24
M  V30 24 1 17 25
M  V30 25 1 25 26
M  V30 26 2 12 27
M  V30 27 1 27 28
M  V30 28 2 28 29
M  V30 29 1 8 30
M  V30 30 1 30 31
M  V30 31 2 31 32
M  V30 32 1 32 3
M  V30 33 1 31 6
M  V30 34 1 29 10
M  V30 35 1 26 14
M  V30 36 1 4 33
M  V30 37 1 5 34
M  V30 38 1 9 35
M  V30 39 1 11 36
M  V30 40 1 13 37
M  V30 41 1 13 38
M  V30 42 1 15 39
M  V30 43 1 15 40
M  V30 44 1 16 41
M  V30 45 1 16 42
M  V30 46 1 20 43
M  V30 47 1 20 44
M  V30 48 1 25 45
M  V30 49 1 25 46
M  V30 50 1 26 47
M  V30 51 1 26 48
M  V30 52 1 27 49
M  V30 53 1 28 50
M  V30 54 1 30 51
M  V30 55 1 32 52
M  V30 END BOND
M  V30 END CTAB
M  END
>  <Dataset>  (910) 
ChEMBL_Kinases

>  <Ligand_Instance>  (910) 
nan

>  <PDB_ID>  (910) 
nan

>  <Standardized_SMILES>  (910) 
N#Cc1ccc2nc(Nc3cc(CN4CCN(C(=O)CC(F)(F)F)CC4)ccn3)[nH]c2c1

>  <Name>  (910) 
nan

>  <Pocket>  (910) 
nan

>  <ATP_Site>  (910) 
nan

>  <Peripheral>  (910) 
nan

>  <Num_H_Atoms_ProtBoundConf>  (910) 
nan

>  <Num_Resolved_Atoms>  (910) 
nan

>  <Num_Not_Resolved_Atoms>  (910) 
nan

$$$$
CHEMBL4459077
     RDKit          3D

  0  0  0  0  0  0  0  0  0  0999 V3000
M  V30 BEGIN CTAB
M  V30 COUNTS 56 59 0 0 0
M  V30 BEGIN ATOM
M  V30 1 O -1.938664 1.059626 -1.344223 0
M  V30 2 C -1.510271 -0.050446 -0.946245 0
M  V30 3 N -0.324996 -0.093205 -0.181953 0
M  V30 4 C 0.578510 0.899439 0.287597 0 CFG=2
M  V30 5 C 1.925778 0.923371 -0.330532 0
M  V30 6 C 2.861248 1.983594 0.193772 0
M  V30 7 N 3.125102 1.778211 1.629045 0
M  V30 8 C 3.930313 2.876149 2.134806 0
M  V30 9 C 5.052293 2.274377 2.933599 0
M  V30 10 C 5.204794 0.859186 2.377534 0
M  V30 11 C 3.897355 0.571569 1.717910 0
M  V30 12 C 0.511252 1.020983 1.759074 0
M  V30 13 C 0.451688 -0.093619 2.587423 0
M  V30 14 C 0.385789 0.000622 3.964647 0
M  V30 15 C 0.375981 1.221339 4.586325 0
M  V30 16 C 0.435173 2.343755 3.770611 0
M  V30 17 C 0.501066 2.272288 2.400053 0
M  V30 18 C -2.244732 -1.262977 -1.282324 0
M  V30 19 C -1.843071 -2.524354 -0.868000 0
M  V30 20 C -2.594593 -3.625527 -1.228108 0
M  V30 21 C -3.743828 -3.555127 -1.989000 0
M  V30 22 C -4.471933 -4.778101 -2.314324 0
M  V30 23 C -4.384756 -5.742214 -1.331513 0
M  V30 24 C -5.018867 -6.981520 -1.470496 0
M  V30 25 N -5.728550 -7.213509 -2.606734 0
M  V30 26 C -5.826209 -6.288802 -3.575533 0
M  V30 27 C -5.203820 -5.065769 -3.444907 0
M  V30 28 C -4.139576 -2.297120 -2.399196 0
M  V30 29 C -3.392273 -1.191373 -2.042629 0
M  V30 30 H 0.091696 -0.978557 0.182126 0
M  V30 31 H 0.103001 1.872128 -0.086655 0
M  V30 32 H 1.854265 1.152881 -1.442178 0
M  V30 33 H 2.437731 -0.061065 -0.357612 0
M  V30 34 H 2.489639 3.008205 0.008958 0
M  V30 35 H 3.859374 1.945248 -0.285267 0
M  V30 36 H 3.271614 3.432578 2.841395 0
M  V30 37 H 4.248928 3.568425 1.355538 0
M  V30 38 H 6.015409 2.843512 2.841840 0
M  V30 39 H 4.842758 2.189773 4.016598 0
M  V30 40 H 5.377051 0.141348 3.205876 0
M  V30 41 H 6.080302 0.805572 1.688187 0
M  V30 42 H 3.312845 -0.153315 2.349368 0
M  V30 43 H 4.118169 0.095035 0.729204 0
M  V30 44 H 0.454058 -1.075314 2.189282 0
M  V30 45 H 0.340108 -0.908525 4.586075 0
M  V30 46 H 0.326268 1.370147 5.650020 0
M  V30 47 H 0.432512 3.341680 4.191150 0
M  V30 48 H 0.546098 3.172168 1.800835 0
M  V30 49 H -0.955745 -2.652682 -0.272365 0
M  V30 50 H -2.247061 -4.599988 -0.883147 0
M  V30 51 H -3.864434 -5.727840 -0.366332 0
M  V30 52 H -5.017989 -7.795469 -0.777024 0
M  V30 53 H -6.389496 -6.462127 -4.487625 0
M  V30 54 H -5.217939 -4.248632 -4.167510 0
M  V30 55 H -5.033957 -2.193987 -2.997208 0
M  V30 56 H -3.721905 -0.207911 -2.377363 0
M  V30 END ATOM
M  V30 BEGIN BOND
M  V30 1 2 1 2
M  V30 2 1 2 3
M  V30 3 1 3 4
M  V30 4 1 4 5
M  V30 5 1 5 6
M  V30 6 1 6 7
M  V30 7 1 7 8
M  V30 8 1 8 9
M  V30 9 1 9 10
M  V30 10 1 10 11
M  V30 11 1 4 12
M  V30 12 2 12 13
M  V30 13 1 13 14
M  V30 14 2 14 15
M  V30 15 1 15 16
M  V30 16 2 16 17
M  V30 17 1 2 18
M  V30 18 2 18 19
M  V30 19 1 19 20
M  V30 20 2 20 21
M  V30 21 1 21 22
M  V30 22 2 22 23
M  V30 23 1 23 24
M  V30 24 2 24 25
M  V30 25 1 25 26
M  V30 26 2 26 27
M  V30 27 1 21 28
M  V30 28 2 28 29
M  V30 29 1 11 7
M  V30 30 1 17 12
M  V30 31 1 29 18
M  V30 32 1 27 22
M  V30 33 1 3 30
M  V30 34 1 4 31 CFG=3
M  V30 35 1 5 32
M  V30 36 1 5 33
M  V30 37 1 6 34
M  V30 38 1 6 35
M  V30 39 1 8 36
M  V30 40 1 8 37
M  V30 41 1 9 38
M  V30 42 1 9 39
M  V30 43 1 10 40
M  V30 44 1 10 41
M  V30 45 1 11 42
M  V30 46 1 11 43
M  V30 47 1 13 44
M  V30 48 1 14 45
M  V30 49 1 15 46
M  V30 50 1 16 47
M  V30 51 1 17 48
M  V30 52 1 19 49
M  V30 53 1 20 50
M  V30 54 1 23 51
M  V30 55 1 24 52
M  V30 56 1 26 53
M  V30 57 1 27 54
M  V30 58 1 28 55
M  V30 59 1 29 56
M  V30 END BOND
M  V30 END CTAB
M  END
>  <Dataset>  (911) 
ChEMBL_Kinases

>  <Ligand_Instance>  (911) 
nan

>  <PDB_ID>  (911) 
nan

>  <Standardized_SMILES>  (911) 
O=C(N[C@H](CCN1CCCC1)c1ccccc1)c1ccc(-c2ccncc2)cc1

>  <Name>  (911) 
nan

>  <Pocket>  (911) 
nan

>  <ATP_Site>  (911) 
nan

>  <Peripheral>  (911) 
nan

>  <Num_H_Atoms_ProtBoundConf>  (911) 
nan

>  <Num_Resolved_Atoms>  (911) 
nan

>  <Num_Not_Resolved_Atoms>  (911) 
nan

$$$$
CHEMBL2392363
     RDKit          3D

  0  0  0  0  0  0  0  0  0  0999 V3000
M  V30 BEGIN CTAB
M  V30 COUNTS 38 41 0 0 0
M  V30 BEGIN ATOM
M  V30 1 Cl -0.309504 -1.776601 6.119555 0
M  V30 2 C 0.748036 -1.918505 4.713674 0
M  V30 3 C 0.101452 -2.032642 3.483594 0
M  V30 4 C 0.924848 -2.143295 2.393773 0
M  V30 5 C 2.298591 -2.150641 2.411478 0
M  V30 6 C 3.226613 -2.262528 1.281187 0
M  V30 7 N 3.592107 -0.949437 0.793770 0
M  V30 8 C 2.795953 0.064957 0.207014 0
M  V30 9 N 3.371259 1.235707 -0.135381 0
M  V30 10 C 2.696216 2.233694 -0.697770 0
M  V30 11 C 1.357589 2.073419 -0.943454 0
M  V30 12 C 0.719002 0.898908 -0.614404 0
M  V30 13 C -0.700703 0.748834 -0.890969 0
M  V30 14 C -1.447830 1.746491 -1.467354 0
M  V30 15 C -2.792700 1.627303 -1.742719 0
M  V30 16 C -3.458390 0.464128 -1.439426 0
M  V30 17 C -2.761881 -0.575535 -0.858523 0
M  V30 18 C -1.413675 -0.394224 -0.607139 0
M  V30 19 O -3.640518 -1.622840 -0.652326 0
M  V30 20 C -4.953866 -1.246696 -1.014936 0
M  V30 21 O -4.767595 0.027935 -1.580006 0
M  V30 22 N 1.482349 -0.048861 -0.051687 0
M  V30 23 C 2.923119 -2.034602 3.659725 0
M  V30 24 C 2.139191 -1.918768 4.808022 0
M  V30 25 H -0.969321 -2.038125 3.348628 0
M  V30 26 H 0.541596 -2.240700 1.404285 0
M  V30 27 H 2.681817 -2.820386 0.452251 0
M  V30 28 H 4.092777 -2.864753 1.558262 0
M  V30 29 H 4.613632 -0.743637 0.906369 0
M  V30 30 H 3.276807 3.118505 -0.923108 0
M  V30 31 H 0.900717 2.936567 -1.400750 0
M  V30 32 H -1.040695 2.700448 -1.749285 0
M  V30 33 H -3.378603 2.413552 -2.196506 0
M  V30 34 H -0.926565 -1.235417 -0.157334 0
M  V30 35 H -5.254032 -1.973530 -1.824418 0
M  V30 36 H -5.669655 -1.271703 -0.172138 0
M  V30 37 H 3.994854 -2.023914 3.847674 0
M  V30 38 H 2.481726 -1.824237 5.812554 0
M  V30 END ATOM
M  V30 BEGIN BOND
M  V30 1 1 1 2
M  V30 2 2 2 3
M  V30 3 1 3 4
M  V30 4 2 4 5
M  V30 5 1 5 6
M  V30 6 1 6 7
M  V30 7 1 7 8
M  V30 8 2 8 9
M  V30 9 1 9 10
M  V30 10 2 10 11
M  V30 11 1 11 12
M  V30 12 1 12 13
M  V30 13 2 13 14
M  V30 14 1 14 15
M  V30 15 2 15 16
M  V30 16 1 16 17
M  V30 17 2 17 18
M  V30 18 1 17 19
M  V30 19 1 19 20
M  V30 20 1 20 21
M  V30 21 2 12 22
M  V30 22 1 5 23
M  V30 23 2 23 24
M  V30 24 1 24 2
M  V30 25 1 22 8
M  V30 26 1 18 13
M  V30 27 1 21 16
M  V30 28 1 3 25
M  V30 29 1 4 26
M  V30 30 1 6 27
M  V30 31 1 6 28
M  V30 32 1 7 29
M  V30 33 1 10 30
M  V30 34 1 11 31
M  V30 35 1 14 32
M  V30 36 1 15 33
M  V30 37 1 18 34
M  V30 38 1 20 35
M  V30 39 1 20 36
M  V30 40 1 23 37
M  V30 41 1 24 38
M  V30 END BOND
M  V30 END CTAB
M  END
>  <Dataset>  (912) 
ChEMBL_Kinases

>  <Ligand_Instance>  (912) 
nan

>  <PDB_ID>  (912) 
nan

>  <Standardized_SMILES>  (912) 
Clc1ccc(CNc2nccc(-c3ccc4c(c3)OCO4)n2)cc1

>  <Name>  (912) 
nan

>  <Pocket>  (912) 
nan

>  <ATP_Site>  (912) 
nan

>  <Peripheral>  (912) 
nan

>  <Num_H_Atoms_ProtBoundConf>  (912) 
nan

>  <Num_Resolved_Atoms>  (912) 
nan

>  <Num_Not_Resolved_Atoms>  (912) 
nan

$$$$
CHEMBL3702131
     RDKit          3D

  0  0  0  0  0  0  0  0  0  0999 V3000
M  V30 BEGIN CTAB
M  V30 COUNTS 69 74 0 0 0
M  V30 BEGIN ATOM
M  V30 1 C 4.195468 0.283860 4.723766 0
M  V30 2 N 5.417636 0.011820 3.992086 0
M  V30 3 C 5.997811 -1.256887 4.361583 0
M  V30 4 C 5.200904 0.166931 2.569128 0
M  V30 5 C 4.179036 -0.756163 2.009407 0
M  V30 6 C 4.739393 -1.499426 0.817806 0
M  V30 7 N 5.253923 -0.639043 -0.163860 0
M  V30 8 S 4.297508 -0.239786 -1.487921 0
M  V30 9 O 5.093615 0.737498 -2.347599 0
M  V30 10 O 4.009274 -1.409583 -2.396141 0
M  V30 11 C 2.843612 0.586207 -1.043133 0
M  V30 12 C 2.591441 1.932075 -0.889859 0
M  V30 13 C 1.343018 2.389197 -0.525438 0
M  V30 14 C 0.322015 1.467411 -0.309650 0
M  V30 15 N -0.973891 1.911506 0.065680 0
M  V30 16 C -2.024081 0.986081 0.299383 0
M  V30 17 N -2.084691 0.613250 1.589940 0
M  V30 18 C -2.982579 -0.254174 2.090521 0
M  V30 19 C -3.907969 -0.793387 1.188425 0
M  V30 20 C -4.965395 -1.692472 1.281857 0
M  V30 21 C -5.405898 -2.340756 2.419133 0
M  V30 22 C -6.492108 -3.187505 2.209881 0
M  V30 23 N -7.066748 -3.363194 1.007510 0
M  V30 24 C -6.607557 -2.712917 -0.075445 0
M  V30 25 C -5.524898 -1.839537 0.015390 0
M  V30 26 N -4.828687 -1.053774 -0.823074 0
M  V30 27 C -5.088087 -0.920217 -2.227047 0
M  V30 28 C -4.782930 -2.166939 -3.005517 0
M  V30 29 C -6.046718 -2.563326 -3.729171 0
M  V30 30 C -7.046518 -1.449975 -3.568329 0
M  V30 31 C -6.492432 -0.514296 -2.530055 0
M  V30 32 C -3.860452 -0.422567 -0.137883 0
M  V30 33 N -2.921593 0.463904 -0.579209 0
M  V30 34 N 0.554322 0.137532 -0.456789 0
M  V30 35 C 1.788430 -0.305187 -0.816471 0
M  V30 36 C 6.154680 0.321249 0.310697 0
M  V30 37 C 6.466590 0.108394 1.782734 0
M  V30 38 H 3.344097 -0.294106 4.366783 0
M  V30 39 H 4.431886 0.109928 5.810420 0
M  V30 40 H 3.972270 1.365939 4.595528 0
M  V30 41 H 7.009067 -1.049553 4.778965 0
M  V30 42 H 5.437855 -1.754414 5.181787 0
M  V30 43 H 6.101998 -1.879812 3.476180 0
M  V30 44 H 4.817118 1.219498 2.456193 0
M  V30 45 H 3.865748 -1.481021 2.794670 0
M  V30 46 H 3.296522 -0.171911 1.636661 0
M  V30 47 H 3.995927 -2.242905 0.427879 0
M  V30 48 H 5.588445 -2.162408 1.164116 0
M  V30 49 H 3.462535 2.531420 -1.085944 0
M  V30 50 H 1.206336 3.453349 -0.421530 0
M  V30 51 H -1.160891 2.925776 0.171456 0
M  V30 52 H -3.053190 -0.567802 3.112557 0
M  V30 53 H -4.934308 -2.188702 3.374802 0
M  V30 54 H -6.897307 -3.732371 3.049981 0
M  V30 55 H -7.050780 -2.842372 -1.026739 0
M  V30 56 H -4.433710 -0.111532 -2.667006 0
M  V30 57 H -4.005088 -2.009202 -3.799355 0
M  V30 58 H -4.361160 -2.978137 -2.369178 0
M  V30 59 H -5.895536 -2.687671 -4.834721 0
M  V30 60 H -6.464014 -3.491997 -3.281817 0
M  V30 61 H -7.236498 -0.892625 -4.508176 0
M  V30 62 H -8.050489 -1.836538 -3.241393 0
M  V30 63 H -7.069087 -0.505318 -1.576975 0
M  V30 64 H -6.576625 0.546280 -2.906222 0
M  V30 65 H 1.805371 -1.392839 -0.890190 0
M  V30 66 H 7.112957 0.212761 -0.286360 0
M  V30 67 H 5.861357 1.383182 0.122580 0
M  V30 68 H 7.201442 0.865342 2.147351 0
M  V30 69 H 6.941142 -0.881824 1.909688 0
M  V30 END ATOM
M  V30 BEGIN BOND
M  V30 1 1 1 2
M  V30 2 1 2 3
M  V30 3 1 2 4
M  V30 4 1 4 5
M  V30 5 1 5 6
M  V30 6 1 6 7
M  V30 7 1 7 8
M  V30 8 2 8 9
M  V30 9 2 8 10
M  V30 10 1 8 11
M  V30 11 2 11 12
M  V30 12 1 12 13
M  V30 13 2 13 14
M  V30 14 1 14 15
M  V30 15 1 15 16
M  V30 16 2 16 17
M  V30 17 1 17 18
M  V30 18 2 18 19
M  V30 19 1 19 20
M  V30 20 2 20 21
M  V30 21 1 21 22
M  V30 22 2 22 23
M  V30 23 1 23 24
M  V30 24 2 24 25
M  V30 25 1 25 26
M  V30 26 1 26 27
M  V30 27 1 27 28
M  V30 28 1 28 29
M  V30 29 1 29 30
M  V30 30 1 30 31
M  V30 31 1 26 32
M  V30 32 2 32 33
M  V30 33 1 14 34
M  V30 34 2 34 35
M  V30 35 1 7 36
M  V30 36 1 36 37
M  V30 37 1 37 4
M  V30 38 1 35 11
M  V30 39 1 33 16
M  V30 40 1 32 19
M  V30 41 1 25 20
M  V30 42 1 31 27
M  V30 43 1 1 38
M  V30 44 1 1 39
M  V30 45 1 1 40
M  V30 46 1 3 41
M  V30 47 1 3 42
M  V30 48 1 3 43
M  V30 49 1 4 44
M  V30 50 1 5 45
M  V30 51 1 5 46
M  V30 52 1 6 47
M  V30 53 1 6 48
M  V30 54 1 12 49
M  V30 55 1 13 50
M  V30 56 1 15 51
M  V30 57 1 18 52
M  V30 58 1 21 53
M  V30 59 1 22 54
M  V30 60 1 24 55
M  V30 61 1 27 56
M  V30 62 1 28 57
M  V30 63 1 28 58
M  V30 64 1 29 59
M  V30 65 1 29 60
M  V30 66 1 30 61
M  V30 67 1 30 62
M  V30 68 1 31 63
M  V30 69 1 31 64
M  V30 70 1 35 65
M  V30 71 1 36 66
M  V30 72 1 36 67
M  V30 73 1 37 68
M  V30 74 1 37 69
M  V30 END BOND
M  V30 END CTAB
M  END
>  <Dataset>  (913) 
ChEMBL_Kinases

>  <Ligand_Instance>  (913) 
nan

>  <PDB_ID>  (913) 
nan

>  <Standardized_SMILES>  (913) 
CN(C)C1CCN(S(=O)(=O)c2ccc(Nc3ncc4c5ccncc5n(C5CCCC5)c4n3)nc2)CC1

>  <Name>  (913) 
nan

>  <Pocket>  (913) 
nan

>  <ATP_Site>  (913) 
nan

>  <Peripheral>  (913) 
nan

>  <Num_H_Atoms_ProtBoundConf>  (913) 
nan

>  <Num_Resolved_Atoms>  (913) 
nan

>  <Num_Not_Resolved_Atoms>  (913) 
nan

$$$$
CHEMBL4458128
     RDKit          3D

  0  0  0  0  0  0  0  0  0  0999 V3000
M  V30 BEGIN CTAB
M  V30 COUNTS 46 49 0 0 0
M  V30 BEGIN ATOM
M  V30 1 O -1.134830 -3.256042 0.227084 0
M  V30 2 C -0.540267 -2.174114 0.394755 0
M  V30 3 C 0.773933 -1.968177 0.026902 0
M  V30 4 C 1.395657 -0.753637 0.230230 0
M  V30 5 C 2.777644 -0.457792 -0.129682 0
M  V30 6 C 3.611275 -1.384533 -0.719989 0
M  V30 7 C 4.925036 -1.131086 -1.071426 0
M  V30 8 N 5.411382 0.108820 -0.814456 0
M  V30 9 C 4.603435 1.030126 -0.234531 0
M  V30 10 N 5.115016 2.333764 0.035645 0
M  V30 11 C 4.337839 3.357545 0.639741 0
M  V30 12 C 4.714765 4.656623 0.953188 0
M  V30 13 C 3.616062 5.261803 1.522767 0
M  V30 14 N 2.621295 4.357816 1.548110 0
M  V30 15 N 3.064864 3.242474 1.023994 0
M  V30 16 N 3.329437 0.749364 0.094455 0
M  V30 17 C 0.649929 0.248659 0.816994 0
M  V30 18 C -0.678897 0.019338 1.181819 0
M  V30 19 N -1.260891 -1.193305 0.965930 0
M  V30 20 C -2.647999 -1.255464 1.406356 0 CFG=2
M  V30 21 C -2.719042 -0.994705 2.895721 0
M  V30 22 O -2.014899 -1.887492 3.662722 0
M  V30 23 C -3.344500 -2.468854 0.972387 0
M  V30 24 C -3.452666 -3.661111 1.660354 0
M  V30 25 C -4.119230 -4.767180 1.202845 0
M  V30 26 C -4.734041 -4.703193 -0.035140 0
M  V30 27 Cl -5.617358 -6.059485 -0.723821 0
M  V30 28 C -4.684757 -3.555216 -0.803754 0
M  V30 29 F -5.266022 -3.435834 -2.018475 0
M  V30 30 C -3.995821 -2.494717 -0.268626 0
M  V30 31 H 1.333439 -2.757426 -0.425891 0
M  V30 32 H 3.266434 -2.366341 -0.936851 0
M  V30 33 H 5.544507 -1.888779 -1.533364 0
M  V30 34 H 6.105229 2.572841 -0.212791 0
M  V30 35 H 5.704123 5.065442 0.762411 0
M  V30 36 H 3.621904 6.302422 1.872267 0
M  V30 37 H 1.666594 4.571572 1.937619 0
M  V30 38 H 1.122831 1.218565 0.987217 0
M  V30 39 H -1.162944 0.896437 1.638785 0
M  V30 40 H -3.235656 -0.399333 0.951784 0
M  V30 41 H -2.297717 0.007980 3.078757 0
M  V30 42 H -3.792077 -0.920100 3.178846 0
M  V30 43 H -2.612259 -2.137332 4.431685 0
M  V30 44 H -2.982322 -3.720519 2.614538 0
M  V30 45 H -4.180943 -5.677388 1.768450 0
M  V30 46 H -3.949197 -1.578907 -0.867659 0
M  V30 END ATOM
M  V30 BEGIN BOND
M  V30 1 2 1 2
M  V30 2 1 2 3
M  V30 3 2 3 4
M  V30 4 1 4 5
M  V30 5 2 5 6
M  V30 6 1 6 7
M  V30 7 2 7 8
M  V30 8 1 8 9
M  V30 9 1 9 10
M  V30 10 1 10 11
M  V30 11 1 11 12
M  V30 12 2 12 13
M  V30 13 1 13 14
M  V30 14 1 14 15
M  V30 15 2 9 16
M  V30 16 1 4 17
M  V30 17 2 17 18
M  V30 18 1 18 19
M  V30 19 1 19 20
M  V30 20 1 20 21
M  V30 21 1 21 22
M  V30 22 1 20 23
M  V30 23 2 23 24
M  V30 24 1 24 25
M  V30 25 2 25 26
M  V30 26 1 26 27
M  V30 27 1 26 28
M  V30 28 1 28 29
M  V30 29 2 28 30
M  V30 30 1 19 2
M  V30 31 1 30 23
M  V30 32 1 16 5
M  V30 33 2 15 11
M  V30 34 1 3 31
M  V30 35 1 6 32
M  V30 36 1 7 33
M  V30 37 1 10 34
M  V30 38 1 12 35
M  V30 39 1 13 36
M  V30 40 1 14 37
M  V30 41 1 17 38
M  V30 42 1 18 39
M  V30 43 1 20 40 CFG=3
M  V30 44 1 21 41
M  V30 45 1 21 42
M  V30 46 1 22 43
M  V30 47 1 24 44
M  V30 48 1 25 45
M  V30 49 1 30 46
M  V30 END BOND
M  V30 END CTAB
M  END
>  <Dataset>  (914) 
ChEMBL_Kinases

>  <Ligand_Instance>  (914) 
nan

>  <PDB_ID>  (914) 
nan

>  <Standardized_SMILES>  (914) 
O=c1cc(-c2ccnc(Nc3cc[nH]n3)n2)ccn1[C@H](CO)c1ccc(Cl)c(F)c1

>  <Name>  (914) 
nan

>  <Pocket>  (914) 
nan

>  <ATP_Site>  (914) 
nan

>  <Peripheral>  (914) 
nan

>  <Num_H_Atoms_ProtBoundConf>  (914) 
nan

>  <Num_Resolved_Atoms>  (914) 
nan

>  <Num_Not_Resolved_Atoms>  (914) 
nan

$$$$
CHEMBL4458096
     RDKit          3D

  0  0  0  0  0  0  0  0  0  0999 V3000
M  V30 BEGIN CTAB
M  V30 COUNTS 45 48 0 0 0
M  V30 BEGIN ATOM
M  V30 1 C 4.407769 -4.283099 2.226225 0
M  V30 2 S 4.692523 -2.715721 3.109193 0
M  V30 3 C 3.685295 -1.440626 2.326282 0
M  V30 4 N 4.171435 -0.691572 1.298388 0
M  V30 5 C 3.199461 0.170238 0.923958 0
M  V30 6 C 2.979567 1.233797 -0.055030 0
M  V30 7 C 1.977355 1.023758 -1.008563 0
M  V30 8 C 1.705519 1.980516 -1.969723 0
M  V30 9 C 2.463811 3.125769 -1.931843 0
M  V30 10 F 2.207372 4.084333 -2.877784 0
M  V30 11 C 3.465739 3.402842 -1.025000 0
M  V30 12 C 3.706540 2.416751 -0.077434 0
M  V30 13 C 2.109274 -0.065782 1.742374 0
M  V30 14 C 0.737284 0.461909 1.922246 0
M  V30 15 C 0.603893 1.792386 2.290200 0
M  V30 16 C -0.701042 2.234377 2.446137 0
M  V30 17 N -1.800615 1.475309 2.267766 0
M  V30 18 C -1.665635 0.166641 1.905725 0
M  V30 19 N -2.752489 -0.728984 1.690344 0
M  V30 20 C -3.359669 -0.878942 0.410930 0
M  V30 21 O -2.781599 -0.112282 -0.432628 0
M  V30 22 C -4.487947 -1.876662 0.410077 0
M  V30 23 C -3.966797 -3.239328 0.828507 0
M  V30 24 C -3.944517 -3.703870 -0.566496 0
M  V30 25 O -3.440285 -4.713493 -1.026043 0
M  V30 26 C -4.717289 -2.486449 -0.941633 0
M  V30 27 C -0.382212 -0.322465 1.737429 0
M  V30 28 N 2.437536 -1.072177 2.605360 0
M  V30 29 H 4.674315 -5.143049 2.887502 0
M  V30 30 H 3.327295 -4.403968 1.953830 0
M  V30 31 H 5.029778 -4.387164 1.321383 0
M  V30 32 H 1.375658 0.127409 -1.047667 0
M  V30 33 H 0.946692 1.863375 -2.720098 0
M  V30 34 H 4.029553 4.325463 -1.045989 0
M  V30 35 H 4.476403 2.553941 0.672024 0
M  V30 36 H 1.421970 2.466857 2.453048 0
M  V30 37 H -0.934774 3.256099 2.731914 0
M  V30 38 H -2.976533 -1.205724 2.613412 0
M  V30 39 H -5.389230 -1.550375 0.968705 0
M  V30 40 H -2.924907 -3.206999 1.247768 0
M  V30 41 H -4.599240 -3.767401 1.549122 0
M  V30 42 H -5.768979 -2.706956 -1.202813 0
M  V30 43 H -4.166644 -1.926443 -1.729560 0
M  V30 44 H -0.172195 -1.336878 1.454121 0
M  V30 45 H 1.929398 -1.568365 3.384481 0
M  V30 END ATOM
M  V30 BEGIN BOND
M  V30 1 1 1 2
M  V30 2 1 2 3
M  V30 3 2 3 4
M  V30 4 1 4 5
M  V30 5 1 5 6
M  V30 6 2 6 7
M  V30 7 1 7 8
M  V30 8 2 8 9
M  V30 9 1 9 10
M  V30 10 1 9 11
M  V30 11 2 11 12
M  V30 12 2 5 13
M  V30 13 1 13 14
M  V30 14 2 14 15
M  V30 15 1 15 16
M  V30 16 2 16 17
M  V30 17 1 17 18
M  V30 18 1 18 19
M  V30 19 1 19 20
M  V30 20 2 20 21
M  V30 21 1 20 22
M  V30 22 1 22 23
M  V30 23 1 23 24
M  V30 24 2 24 25
M  V30 25 1 24 26
M  V30 26 2 18 27
M  V30 27 1 13 28
M  V30 28 1 28 3
M  V30 29 1 12 6
M  V30 30 1 27 14
M  V30 31 1 26 22
M  V30 32 1 1 29
M  V30 33 1 1 30
M  V30 34 1 1 31
M  V30 35 1 7 32
M  V30 36 1 8 33
M  V30 37 1 11 34
M  V30 38 1 12 35
M  V30 39 1 15 36
M  V30 40 1 16 37
M  V30 41 1 19 38
M  V30 42 1 22 39
M  V30 43 1 23 40
M  V30 44 1 23 41
M  V30 45 1 26 42
M  V30 46 1 26 43
M  V30 47 1 27 44
M  V30 48 1 28 45
M  V30 END BOND
M  V30 END CTAB
M  END
>  <Dataset>  (915) 
ChEMBL_Kinases

>  <Ligand_Instance>  (915) 
nan

>  <PDB_ID>  (915) 
nan

>  <Standardized_SMILES>  (915) 
CSc1nc(-c2ccc(F)cc2)c(-c2ccnc(NC(=O)C3CC(=O)C3)c2)[nH]1

>  <Name>  (915) 
nan

>  <Pocket>  (915) 
nan

>  <ATP_Site>  (915) 
nan

>  <Peripheral>  (915) 
nan

>  <Num_H_Atoms_ProtBoundConf>  (915) 
nan

>  <Num_Resolved_Atoms>  (915) 
nan

>  <Num_Not_Resolved_Atoms>  (915) 
nan

$$$$
CHEMBL3703165
     RDKit          3D

  0  0  0  0  0  0  0  0  0  0999 V3000
M  V30 BEGIN CTAB
M  V30 COUNTS 57 61 0 0 0
M  V30 BEGIN ATOM
M  V30 1 C 6.999743 -2.848176 3.757849 0
M  V30 2 O 7.649428 -2.923355 2.534158 0
M  V30 3 C 7.077234 -2.984832 1.278855 0
M  V30 4 O 5.863352 -2.951401 1.606127 0
M  V30 5 C 6.534456 -3.052630 -0.084879 0
M  V30 6 O 5.159887 -2.924940 -0.200402 0
M  V30 7 C 4.375479 -1.843801 0.141840 0
M  V30 8 C 4.659077 -0.601238 0.662839 0
M  V30 9 C 3.664878 0.311607 0.919410 0
M  V30 10 C 2.365881 -0.059384 0.635772 0
M  V30 11 N 1.237895 0.683740 0.811035 0
M  V30 12 C 0.167109 -0.052324 0.406951 0
M  V30 13 C -1.221063 0.408575 0.443576 0
M  V30 14 C -1.891010 0.774841 1.597825 0
M  V30 15 C -3.208261 1.200706 1.538903 0
M  V30 16 C -3.872525 1.265529 0.322927 0
M  V30 17 C -5.267054 1.735542 0.409336 0
M  V30 18 N -6.088924 1.063998 1.393425 0
M  V30 19 C -6.017326 1.823911 -0.900247 0
M  V30 20 C -6.749815 2.999277 -0.270140 0
M  V30 21 C -5.462894 3.232360 0.533904 0
M  V30 22 C -3.207484 0.898745 -0.847339 0
M  V30 23 C -1.879835 0.469315 -0.789681 0
M  V30 24 C 0.694307 -1.257982 -0.014674 0
M  V30 25 C -0.099182 -2.370429 -0.538763 0
M  V30 26 C 0.198141 -2.737115 -1.836356 0
M  V30 27 C -0.498938 -3.781100 -2.425357 0
M  V30 28 C -1.484775 -4.429267 -1.678238 0
M  V30 29 C -1.755621 -4.037671 -0.386261 0
M  V30 30 C -1.072773 -2.996494 0.226031 0
M  V30 31 N 2.033750 -1.259966 0.125648 0
M  V30 32 C 3.033672 -2.153888 -0.122501 0
M  V30 33 H 7.278872 -3.672317 4.459064 0
M  V30 34 H 7.305397 -1.875407 4.227733 0
M  V30 35 H 5.897747 -2.837194 3.732364 0
M  V30 36 H 6.805745 -4.070217 -0.490246 0
M  V30 37 H 7.049668 -2.305151 -0.743007 0
M  V30 38 H 5.698090 -0.414669 0.833643 0
M  V30 39 H 3.971832 1.262188 1.327966 0
M  V30 40 H -1.344735 0.714034 2.538058 0
M  V30 41 H -3.686911 1.478517 2.490731 0
M  V30 42 H -5.734395 1.155133 2.366058 0
M  V30 43 H -6.346129 0.102838 1.140468 0
M  V30 44 H -5.394608 2.224748 -1.732622 0
M  V30 45 H -6.660054 0.972422 -1.162516 0
M  V30 46 H -7.579889 2.626889 0.399138 0
M  V30 47 H -7.030455 3.817342 -0.934080 0
M  V30 48 H -4.737937 3.816287 -0.076920 0
M  V30 49 H -5.625844 3.592091 1.563077 0
M  V30 50 H -3.784190 0.972677 -1.761281 0
M  V30 51 H -1.400577 0.192573 -1.730172 0
M  V30 52 H 0.954392 -2.244024 -2.417305 0
M  V30 53 H -0.303009 -4.107245 -3.441803 0
M  V30 54 H -2.056549 -5.248470 -2.090558 0
M  V30 55 H -2.522748 -4.523855 0.230188 0
M  V30 56 H -1.263298 -2.663978 1.243251 0
M  V30 57 H 2.634792 -3.081116 -0.531711 0
M  V30 END ATOM
M  V30 BEGIN BOND
M  V30 1 1 1 2
M  V30 2 1 2 3
M  V30 3 2 3 4
M  V30 4 1 3 5
M  V30 5 1 5 6
M  V30 6 1 6 7
M  V30 7 1 7 8
M  V30 8 2 8 9
M  V30 9 1 9 10
M  V30 10 2 10 11
M  V30 11 1 11 12
M  V30 12 1 12 13
M  V30 13 2 13 14
M  V30 14 1 14 15
M  V30 15 2 15 16
M  V30 16 1 16 17
M  V30 17 1 17 18
M  V30 18 1 17 19
M  V30 19 1 19 20
M  V30 20 1 20 21
M  V30 21 1 16 22
M  V30 22 2 22 23
M  V30 23 2 12 24
M  V30 24 1 24 25
M  V30 25 2 25 26
M  V30 26 1 26 27
M  V30 27 2 27 28
M  V30 28 1 28 29
M  V30 29 2 29 30
M  V30 30 1 24 31
M  V30 31 1 31 32
M  V30 32 2 32 7
M  V30 33 1 31 10
M  V30 34 1 23 13
M  V30 35 1 30 25
M  V30 36 1 21 17
M  V30 37 1 1 33
M  V30 38 1 1 34
M  V30 39 1 1 35
M  V30 40 1 5 36
M  V30 41 1 5 37
M  V30 42 1 8 38
M  V30 43 1 9 39
M  V30 44 1 14 40
M  V30 45 1 15 41
M  V30 46 1 18 42
M  V30 47 1 18 43
M  V30 48 1 19 44
M  V30 49 1 19 45
M  V30 50 1 20 46
M  V30 51 1 20 47
M  V30 52 1 21 48
M  V30 53 1 21 49
M  V30 54 1 22 50
M  V30 55 1 23 51
M  V30 56 1 26 52
M  V30 57 1 27 53
M  V30 58 1 28 54
M  V30 59 1 29 55
M  V30 60 1 30 56
M  V30 61 1 32 57
M  V30 END BOND
M  V30 END CTAB
M  END
>  <Dataset>  (916) 
ChEMBL_Kinases

>  <Ligand_Instance>  (916) 
nan

>  <PDB_ID>  (916) 
nan

>  <Standardized_SMILES>  (916) 
COC(=O)COc1ccc2nc(-c3ccc(C4(N)CCC4)cc3)c(-c3ccccc3)n2c1

>  <Name>  (916) 
nan

>  <Pocket>  (916) 
nan

>  <ATP_Site>  (916) 
nan

>  <Peripheral>  (916) 
nan

>  <Num_H_Atoms_ProtBoundConf>  (916) 
nan

>  <Num_Resolved_Atoms>  (916) 
nan

>  <Num_Not_Resolved_Atoms>  (916) 
nan

$$$$
CHEMBL2397314
     RDKit          3D

  0  0  0  0  0  0  0  0  0  0999 V3000
M  V30 BEGIN CTAB
M  V30 COUNTS 38 39 0 0 0
M  V30 BEGIN ATOM
M  V30 1 C -0.416507 -3.560827 1.020486 0
M  V30 2 C -0.410357 -2.054144 1.100603 0
M  V30 3 N 0.576905 -1.263576 0.770628 0
M  V30 4 C 0.723780 -0.145332 0.776383 0
M  V30 5 N 1.935383 0.627920 0.360600 0
M  V30 6 C 2.206880 1.115361 -0.931027 0
M  V30 7 O 1.304503 0.838933 -1.763758 0
M  V30 8 C 3.524438 1.841984 -0.947351 0 CFG=2
M  V30 9 C 3.714113 2.317402 -2.364676 0
M  V30 10 C 4.590254 0.837988 -0.625537 0
M  V30 11 C 5.965831 1.475831 -0.617128 0
M  V30 12 F 6.282515 2.033766 -1.848826 0
M  V30 13 F 6.927162 0.511728 -0.383471 0
M  V30 14 F 6.036302 2.492178 0.315377 0
M  V30 15 S -0.981792 0.266459 1.443873 0
M  V30 16 C -1.498072 -1.412755 1.547037 0
M  V30 17 C -2.831558 -1.723524 2.034271 0
M  V30 18 C -3.669320 -0.677839 2.409478 0
M  V30 19 C -4.962490 -0.933459 2.884372 0
M  V30 20 C -5.465179 -2.210513 3.003296 0
M  V30 21 N -6.773633 -2.490109 3.482655 0
M  V30 22 N -4.628262 -3.198239 2.631633 0
M  V30 23 C -3.388715 -2.945392 2.176866 0
M  V30 24 H 0.580025 -3.952453 0.649414 0
M  V30 25 H -0.479047 -4.003210 2.036085 0
M  V30 26 H -1.128582 -3.946247 0.285018 0
M  V30 27 H 2.499344 0.709967 1.227081 0
M  V30 28 H 3.537478 2.653554 -0.202507 0
M  V30 29 H 2.738268 2.407076 -2.913338 0
M  V30 30 H 4.261577 1.521466 -2.941806 0
M  V30 31 H 4.201779 3.296989 -2.444347 0
M  V30 32 H 4.423153 0.497939 0.428146 0
M  V30 33 H 4.558636 -0.040859 -1.271120 0
M  V30 34 H -3.417745 0.372625 2.372908 0
M  V30 35 H -5.616182 -0.125263 3.176716 0
M  V30 36 H -7.032696 -3.178546 4.231982 0
M  V30 37 H -7.593404 -1.964837 3.058928 0
M  V30 38 H -2.820065 -3.813174 1.913237 0
M  V30 END ATOM
M  V30 BEGIN BOND
M  V30 1 1 1 2
M  V30 2 1 2 3
M  V30 3 2 3 4
M  V30 4 1 4 5
M  V30 5 1 5 6
M  V30 6 2 6 7
M  V30 7 1 6 8
M  V30 8 1 8 9
M  V30 9 1 8 10
M  V30 10 1 10 11
M  V30 11 1 11 12
M  V30 12 1 11 13
M  V30 13 1 11 14
M  V30 14 1 4 15
M  V30 15 1 15 16
M  V30 16 1 16 17
M  V30 17 2 17 18
M  V30 18 1 18 19
M  V30 19 2 19 20
M  V30 20 1 20 21
M  V30 21 1 20 22
M  V30 22 2 22 23
M  V30 23 2 16 2
M  V30 24 1 23 17
M  V30 25 1 1 24
M  V30 26 1 1 25
M  V30 27 1 1 26
M  V30 28 1 5 27
M  V30 29 1 8 28 CFG=1
M  V30 30 1 9 29
M  V30 31 1 9 30
M  V30 32 1 9 31
M  V30 33 1 10 32
M  V30 34 1 10 33
M  V30 35 1 18 34
M  V30 36 1 19 35
M  V30 37 1 21 36
M  V30 38 1 21 37
M  V30 39 1 23 38
M  V30 END BOND
M  V30 END CTAB
M  END
>  <Dataset>  (917) 
ChEMBL_Kinases

>  <Ligand_Instance>  (917) 
nan

>  <PDB_ID>  (917) 
nan

>  <Standardized_SMILES>  (917) 
Cc1nc(NC(=O)[C@H](C)CC(F)(F)F)sc1-c1ccc(N)nc1

>  <Name>  (917) 
nan

>  <Pocket>  (917) 
nan

>  <ATP_Site>  (917) 
nan

>  <Peripheral>  (917) 
nan

>  <Num_H_Atoms_ProtBoundConf>  (917) 
nan

>  <Num_Resolved_Atoms>  (917) 
nan

>  <Num_Not_Resolved_Atoms>  (917) 
nan

$$$$
CHEMBL3703166
     RDKit          3D

  0  0  0  0  0  0  0  0  0  0999 V3000
M  V30 BEGIN CTAB
M  V30 COUNTS 52 56 0 0 0
M  V30 BEGIN ATOM
M  V30 1 C 1.118114 -7.455695 -5.705658 0 CHG=-1 VAL=3
M  V30 2 N 0.980695 -6.574861 -4.954210 0 CHG=1 VAL=4
M  V30 3 C 0.832189 -5.521703 -4.068649 0
M  V30 4 O 1.365379 -4.327486 -4.654105 0
M  V30 5 C 1.332207 -3.112988 -3.945520 0
M  V30 6 C 1.858821 -1.987390 -4.551708 0
M  V30 7 C 1.825659 -0.780607 -3.847112 0
M  V30 8 C 1.260407 -0.798551 -2.575582 0
M  V30 9 N 1.103551 0.226386 -1.685629 0
M  V30 10 C 0.499547 -0.246485 -0.563620 0
M  V30 11 C 0.200639 0.624351 0.569023 0
M  V30 12 C 1.259766 1.264196 1.225931 0
M  V30 13 C 1.075801 2.115610 2.318689 0
M  V30 14 C -0.227445 2.340251 2.779144 0
M  V30 15 C -0.313878 3.246407 3.926589 0
M  V30 16 N 0.395158 4.495627 3.646803 0
M  V30 17 C -1.647272 3.553459 4.504260 0
M  V30 18 C -1.313663 2.699068 5.733125 0
M  V30 19 C 0.125663 2.716040 5.263197 0
M  V30 20 C -1.253047 1.699809 2.116926 0
M  V30 21 C -1.072397 0.864396 1.044686 0
M  V30 22 C 0.290157 -1.582808 -0.786094 0
M  V30 23 C -0.330826 -2.455868 0.164119 0
M  V30 24 C -1.507168 -3.017573 -0.347239 0
M  V30 25 C -2.284063 -3.903197 0.405237 0
M  V30 26 C -1.886885 -4.234844 1.682226 0
M  V30 27 C -0.723858 -3.679998 2.188836 0
M  V30 28 C 0.038146 -2.812166 1.452460 0
M  V30 29 N 0.752514 -1.924977 -2.012217 0
M  V30 30 C 0.783524 -3.095730 -2.693220 0
M  V30 31 H -0.241302 -5.293942 -3.818814 0
M  V30 32 H 1.314851 -5.784095 -3.121525 0
M  V30 33 H 2.291076 -2.019294 -5.547904 0
M  V30 34 H 2.218106 0.142330 -4.255516 0
M  V30 35 H 2.269729 1.062279 0.834107 0
M  V30 36 H 2.015775 2.532467 2.712775 0
M  V30 37 H 0.837700 4.902494 4.500259 0
M  V30 38 H 1.155709 4.365482 2.944690 0
M  V30 39 H -2.551094 3.204445 4.011502 0
M  V30 40 H -1.824755 4.628226 4.804564 0
M  V30 41 H -1.768050 1.698705 5.720080 0
M  V30 42 H -1.489864 3.199133 6.706254 0
M  V30 43 H 0.632788 1.729478 5.241321 0
M  V30 44 H 0.727248 3.422874 5.871920 0
M  V30 45 H -2.225675 1.890639 2.489684 0
M  V30 46 H -1.888545 0.387218 0.558285 0
M  V30 47 H -1.928879 -2.833092 -1.347943 0
M  V30 48 H -3.190927 -4.343401 0.026568 0
M  V30 49 H -2.483067 -4.920095 2.271538 0
M  V30 50 H -0.365274 -3.908794 3.191815 0
M  V30 51 H 0.959016 -2.325272 1.752799 0
M  V30 52 H 0.362338 -3.966998 -2.193454 0
M  V30 END ATOM
M  V30 BEGIN BOND
M  V30 1 3 1 2
M  V30 2 1 2 3
M  V30 3 1 3 4
M  V30 4 1 4 5
M  V30 5 1 5 6
M  V30 6 2 6 7
M  V30 7 1 7 8
M  V30 8 2 8 9
M  V30 9 1 9 10
M  V30 10 1 10 11
M  V30 11 2 11 12
M  V30 12 1 12 13
M  V30 13 2 13 14
M  V30 14 1 14 15
M  V30 15 1 15 16
M  V30 16 1 15 17
M  V30 17 1 17 18
M  V30 18 1 18 19
M  V30 19 1 14 20
M  V30 20 2 20 21
M  V30 21 2 10 22
M  V30 22 1 22 23
M  V30 23 2 23 24
M  V30 24 1 24 25
M  V30 25 2 25 26
M  V30 26 1 26 27
M  V30 27 2 27 28
M  V30 28 1 22 29
M  V30 29 1 29 30
M  V30 30 2 30 5
M  V30 31 1 29 8
M  V30 32 1 21 11
M  V30 33 1 28 23
M  V30 34 1 19 15
M  V30 35 1 3 31
M  V30 36 1 3 32
M  V30 37 1 6 33
M  V30 38 1 7 34
M  V30 39 1 12 35
M  V30 40 1 13 36
M  V30 41 1 16 37
M  V30 42 1 16 38
M  V30 43 1 17 39
M  V30 44 1 17 40
M  V30 45 1 18 41
M  V30 46 1 18 42
M  V30 47 1 19 43
M  V30 48 1 19 44
M  V30 49 1 20 45
M  V30 50 1 21 46
M  V30 51 1 24 47
M  V30 52 1 25 48
M  V30 53 1 26 49
M  V30 54 1 27 50
M  V30 55 1 28 51
M  V30 56 1 30 52
M  V30 END BOND
M  V30 END CTAB
M  END
>  <Dataset>  (918) 
ChEMBL_Kinases

>  <Ligand_Instance>  (918) 
nan

>  <PDB_ID>  (918) 
nan

>  <Standardized_SMILES>  (918) 
[C-]#[N+]COc1ccc2nc(-c3ccc(C4(N)CCC4)cc3)c(-c3ccccc3)n2c1

>  <Name>  (918) 
nan

>  <Pocket>  (918) 
nan

>  <ATP_Site>  (918) 
nan

>  <Peripheral>  (918) 
nan

>  <Num_H_Atoms_ProtBoundConf>  (918) 
nan

>  <Num_Resolved_Atoms>  (918) 
nan

>  <Num_Not_Resolved_Atoms>  (918) 
nan

$$$$
CHEMBL3703167
     RDKit          3D

  0  0  0  0  0  0  0  0  0  0999 V3000
M  V30 BEGIN CTAB
M  V30 COUNTS 48 52 0 0 0
M  V30 BEGIN ATOM
M  V30 1 N -0.585876 -5.608491 1.934113 0
M  V30 2 C -1.565780 -4.636565 1.503801 0
M  V30 3 C -0.981599 -3.393345 0.974406 0
M  V30 4 C -1.411260 -2.590190 -0.061733 0
M  V30 5 C -0.722161 -1.469284 -0.401542 0
M  V30 6 C 0.443187 -1.068284 0.265752 0
M  V30 7 C 0.996362 0.161805 -0.286224 0
M  V30 8 N 1.447837 0.155531 -1.569686 0
M  V30 9 C 1.918229 1.378756 -1.893919 0
M  V30 10 C 2.464096 1.787110 -3.101776 0
M  V30 11 C 2.869113 3.080517 -3.181365 0
M  V30 12 O 3.432206 3.592604 -4.352045 0
M  V30 13 C 2.714947 3.905854 -2.064994 0
M  V30 14 C 2.162404 3.456315 -0.872388 0
M  V30 15 N 1.765781 2.165726 -0.813999 0
M  V30 16 C 1.206277 1.444080 0.175729 0
M  V30 17 C 0.850763 1.830915 1.509163 0
M  V30 18 C -0.182002 2.726732 1.675825 0
M  V30 19 C -0.676794 3.231325 2.884140 0
M  V30 20 C -0.006757 2.732491 4.007548 0
M  V30 21 C 1.032822 1.835270 3.905446 0
M  V30 22 C 1.458914 1.387910 2.672935 0
M  V30 23 C 0.876967 -1.868244 1.302751 0
M  V30 24 C 0.172840 -3.003727 1.641786 0
M  V30 25 C -2.586362 -4.347542 2.614159 0
M  V30 26 C -3.726718 -4.518651 1.627485 0
M  V30 27 C -2.716607 -5.204142 0.716458 0
M  V30 28 H -1.061174 -6.530406 1.984063 0
M  V30 29 H -0.291221 -5.333746 2.903161 0
M  V30 30 H -2.313223 -2.947349 -0.538553 0
M  V30 31 H -1.192182 -0.944583 -1.241007 0
M  V30 32 H 2.589531 1.176133 -3.960789 0
M  V30 33 H 3.045868 4.462843 -4.695065 0
M  V30 34 H 3.049351 4.932102 -2.164726 0
M  V30 35 H 2.044093 4.097280 -0.009484 0
M  V30 36 H -0.697302 3.109661 0.798850 0
M  V30 37 H -1.485689 3.925358 2.911496 0
M  V30 38 H -0.380727 3.116630 4.967508 0
M  V30 39 H 1.482437 1.511787 4.822096 0
M  V30 40 H 2.274713 0.686391 2.577574 0
M  V30 41 H 1.772623 -1.494979 1.758560 0
M  V30 42 H 0.629384 -3.530322 2.471515 0
M  V30 43 H -2.636820 -5.164302 3.373196 0
M  V30 44 H -2.500294 -3.362571 3.074411 0
M  V30 45 H -4.532623 -5.204281 1.953024 0
M  V30 46 H -4.162749 -3.590694 1.229953 0
M  V30 47 H -2.734752 -4.925068 -0.334823 0
M  V30 48 H -2.806053 -6.321576 0.801939 0
M  V30 END ATOM
M  V30 BEGIN BOND
M  V30 1 1 1 2
M  V30 2 1 2 3
M  V30 3 2 3 4
M  V30 4 1 4 5
M  V30 5 2 5 6
M  V30 6 1 6 7
M  V30 7 1 7 8
M  V30 8 2 8 9
M  V30 9 1 9 10
M  V30 10 2 10 11
M  V30 11 1 11 12
M  V30 12 1 11 13
M  V30 13 2 13 14
M  V30 14 1 14 15
M  V30 15 1 15 16
M  V30 16 1 16 17
M  V30 17 2 17 18
M  V30 18 1 18 19
M  V30 19 2 19 20
M  V30 20 1 20 21
M  V30 21 2 21 22
M  V30 22 1 6 23
M  V30 23 2 23 24
M  V30 24 1 2 25
M  V30 25 1 25 26
M  V30 26 1 26 27
M  V30 27 1 27 2
M  V30 28 1 24 3
M  V30 29 2 16 7
M  V30 30 1 22 17
M  V30 31 1 15 9
M  V30 32 1 1 28
M  V30 33 1 1 29
M  V30 34 1 4 30
M  V30 35 1 5 31
M  V30 36 1 10 32
M  V30 37 1 12 33
M  V30 38 1 13 34
M  V30 39 1 14 35
M  V30 40 1 18 36
M  V30 41 1 19 37
M  V30 42 1 20 38
M  V30 43 1 21 39
M  V30 44 1 22 40
M  V30 45 1 23 41
M  V30 46 1 24 42
M  V30 47 1 25 43
M  V30 48 1 25 44
M  V30 49 1 26 45
M  V30 50 1 26 46
M  V30 51 1 27 47
M  V30 52 1 27 48
M  V30 END BOND
M  V30 END CTAB
M  END
>  <Dataset>  (919) 
ChEMBL_Kinases

>  <Ligand_Instance>  (919) 
nan

>  <PDB_ID>  (919) 
nan

>  <Standardized_SMILES>  (919) 
NC1(c2ccc(-c3nc4cc(O)ccn4c3-c3ccccc3)cc2)CCC1

>  <Name>  (919) 
nan

>  <Pocket>  (919) 
nan

>  <ATP_Site>  (919) 
nan

>  <Peripheral>  (919) 
nan

>  <Num_H_Atoms_ProtBoundConf>  (919) 
nan

>  <Num_Resolved_Atoms>  (919) 
nan

>  <Num_Not_Resolved_Atoms>  (919) 
nan

$$$$
CHEMBL2397316
     RDKit          3D

  0  0  0  0  0  0  0  0  0  0999 V3000
M  V30 BEGIN CTAB
M  V30 COUNTS 41 42 0 0 0
M  V30 BEGIN ATOM
M  V30 1 C -0.787088 -3.996879 0.632181 0
M  V30 2 C -0.335367 -2.657623 1.097354 0
M  V30 3 N 0.590339 -1.895321 0.560983 0
M  V30 4 C 1.012128 -0.890631 0.810621 0
M  V30 5 N 2.091700 -0.125472 0.091928 0
M  V30 6 C 1.519351 0.700673 -0.909178 0
M  V30 7 O 0.276301 0.745204 -1.120430 0
M  V30 8 C 2.512774 1.513971 -1.692586 0
M  V30 9 C 1.710110 2.316217 -2.695991 0
M  V30 10 C 3.440558 0.637467 -2.501937 0
M  V30 11 C 3.241581 2.466536 -0.802827 0
M  V30 12 C 4.243892 3.283492 -1.610176 0
M  V30 13 F 5.187574 2.529144 -2.236830 0
M  V30 14 F 4.824085 4.147029 -0.671085 0
M  V30 15 F 3.601457 4.109383 -2.507713 0
M  V30 16 S -0.055375 -0.556804 2.340705 0
M  V30 17 C -0.899971 -2.128116 2.171849 0
M  V30 18 C -1.952176 -2.435921 3.201588 0
M  V30 19 C -2.206512 -1.520893 4.195786 0
M  V30 20 C -3.184621 -1.799926 5.158355 0
M  V30 21 C -3.904808 -2.954462 5.152190 0
M  V30 22 N -4.886207 -3.191899 6.150056 0
M  V30 23 N -3.635261 -3.825085 4.173208 0
M  V30 24 C -2.702234 -3.575247 3.242706 0
M  V30 25 H -0.584617 -4.809583 1.343416 0
M  V30 26 H -1.850515 -3.987679 0.296359 0
M  V30 27 H -0.210609 -4.311197 -0.293814 0
M  V30 28 H 3.074765 -0.240185 0.347833 0
M  V30 29 H 1.346785 3.211290 -2.155294 0
M  V30 30 H 0.821287 1.753300 -3.004925 0
M  V30 31 H 2.308933 2.553598 -3.594191 0
M  V30 32 H 3.784450 1.153547 -3.422499 0
M  V30 33 H 4.353284 0.412385 -1.906487 0
M  V30 34 H 2.930060 -0.280238 -2.849841 0
M  V30 35 H 2.497403 3.208451 -0.436446 0
M  V30 36 H 3.751067 1.927812 -0.001597 0
M  V30 37 H -1.714648 -0.574528 4.318888 0
M  V30 38 H -3.390201 -1.088764 5.940550 0
M  V30 39 H -5.705904 -2.584062 6.431485 0
M  V30 40 H -5.010191 -4.009402 6.815278 0
M  V30 41 H -2.550743 -4.325635 2.495610 0
M  V30 END ATOM
M  V30 BEGIN BOND
M  V30 1 1 1 2
M  V30 2 1 2 3
M  V30 3 2 3 4
M  V30 4 1 4 5
M  V30 5 1 5 6
M  V30 6 2 6 7
M  V30 7 1 6 8
M  V30 8 1 8 9
M  V30 9 1 8 10
M  V30 10 1 8 11
M  V30 11 1 11 12
M  V30 12 1 12 13
M  V30 13 1 12 14
M  V30 14 1 12 15
M  V30 15 1 4 16
M  V30 16 1 16 17
M  V30 17 1 17 18
M  V30 18 2 18 19
M  V30 19 1 19 20
M  V30 20 2 20 21
M  V30 21 1 21 22
M  V30 22 1 21 23
M  V30 23 2 23 24
M  V30 24 2 17 2
M  V30 25 1 24 18
M  V30 26 1 1 25
M  V30 27 1 1 26
M  V30 28 1 1 27
M  V30 29 1 5 28
M  V30 30 1 9 29
M  V30 31 1 9 30
M  V30 32 1 9 31
M  V30 33 1 10 32
M  V30 34 1 10 33
M  V30 35 1 10 34
M  V30 36 1 11 35
M  V30 37 1 11 36
M  V30 38 1 19 37
M  V30 39 1 20 38
M  V30 40 1 22 39
M  V30 41 1 22 40
M  V30 42 1 24 41
M  V30 END BOND
M  V30 END CTAB
M  END
>  <Dataset>  (920) 
ChEMBL_Kinases

>  <Ligand_Instance>  (920) 
nan

>  <PDB_ID>  (920) 
nan

>  <Standardized_SMILES>  (920) 
Cc1nc(NC(=O)C(C)(C)CC(F)(F)F)sc1-c1ccc(N)nc1

>  <Name>  (920) 
nan

>  <Pocket>  (920) 
nan

>  <ATP_Site>  (920) 
nan

>  <Peripheral>  (920) 
nan

>  <Num_H_Atoms_ProtBoundConf>  (920) 
nan

>  <Num_Resolved_Atoms>  (920) 
nan

>  <Num_Not_Resolved_Atoms>  (920) 
nan

$$$$
CHEMBL2392840
     RDKit          3D

  0  0  0  0  0  0  0  0  0  0999 V3000
M  V30 BEGIN CTAB
M  V30 COUNTS 80 86 0 0 0
M  V30 BEGIN ATOM
M  V30 1 C 3.958444 -5.141780 -1.643502 0
M  V30 2 S 5.211897 -4.308211 -2.601905 0
M  V30 3 O 6.574785 -4.591020 -2.033748 0
M  V30 4 O 5.167415 -4.813625 -3.996292 0
M  V30 5 C 4.915003 -2.540215 -2.616107 0
M  V30 6 C 3.500530 -2.349884 -3.186204 0
M  V30 7 C 3.296165 -0.837072 -3.142132 0
M  V30 8 N 3.174955 -0.355168 -1.789486 0
M  V30 9 C 2.025705 0.387723 -1.446857 0
M  V30 10 C 0.856838 0.212180 -2.156830 0
M  V30 11 C -0.314757 0.866009 -1.859400 0
M  V30 12 C -0.376577 1.766043 -0.791316 0
M  V30 13 C 0.782712 1.975496 -0.045227 0
M  V30 14 C 1.917888 1.283341 -0.405106 0
M  V30 15 C 2.871049 1.710000 0.495453 0
M  V30 16 C 2.337467 2.623102 1.369149 0
M  V30 17 N 1.046593 2.775841 1.021738 0
M  V30 18 C 0.022073 3.604361 1.595398 0
M  V30 19 C -0.065629 4.974708 1.694660 0
M  V30 20 C -1.185460 5.497061 2.301895 0
M  V30 21 N -2.147758 4.686792 2.774507 0
M  V30 22 C -2.076434 3.335057 2.684400 0
M  V30 23 N -3.120851 2.506278 3.194574 0
M  V30 24 C -2.947248 1.094891 3.057050 0 CFG=1
M  V30 25 C -1.717029 0.564705 3.791520 0
M  V30 26 C -1.321043 -0.691039 3.044298 0
M  V30 27 C -2.493814 -1.651798 3.077628 0 CFG=2
M  V30 28 C -2.850706 -2.172322 1.776773 0
M  V30 29 O -4.019628 -1.878611 1.470271 0
M  V30 30 N -3.190329 -2.683953 0.506633 0
M  V30 31 C -4.342454 -2.681660 -0.349620 0
M  V30 32 C -4.124227 -1.874740 -1.611126 0
M  V30 33 N -2.955112 -2.379010 -2.285486 0
M  V30 34 C -2.587357 -2.255288 -3.579221 0
M  V30 35 N -1.417744 -2.907999 -3.679560 0
M  V30 36 N -1.112230 -3.392979 -2.498605 0
M  V30 37 C -2.050484 -3.080594 -1.608379 0
M  V30 38 C -2.117746 -3.420107 -0.156625 0
M  V30 39 C -3.638040 -1.115007 3.891238 0
M  V30 40 C -4.110896 0.254142 3.449922 0
M  V30 41 N -0.985006 2.866199 2.094316 0
M  V30 42 C 4.283565 -0.742684 -0.937013 0
M  V30 43 C 4.852116 -2.094274 -1.198648 0
M  V30 44 H 4.091949 -6.227784 -1.853872 0
M  V30 45 H 3.990185 -4.891910 -0.577300 0
M  V30 46 H 2.975383 -4.890325 -2.118703 0
M  V30 47 H 5.673129 -2.002358 -3.200318 0
M  V30 48 H 3.407979 -2.683655 -4.218361 0
M  V30 49 H 2.818965 -2.841027 -2.481131 0
M  V30 50 H 2.503409 -0.578175 -3.829711 0
M  V30 51 H 4.260005 -0.424750 -3.559376 0
M  V30 52 H 0.713973 -0.432621 -2.992601 0
M  V30 53 H -1.260119 0.765367 -2.381513 0
M  V30 54 H -1.279574 2.291257 -0.536712 0
M  V30 55 H 3.894989 1.445876 0.583325 0
M  V30 56 H 2.795183 3.153444 2.191198 0
M  V30 57 H 0.794822 5.475613 1.263584 0
M  V30 58 H -1.202754 6.576532 2.353524 0
M  V30 59 H -3.944524 2.948716 3.635173 0
M  V30 60 H -2.759532 0.918479 1.956373 0
M  V30 61 H -0.906754 1.285940 3.861434 0
M  V30 62 H -1.983238 0.290473 4.848730 0
M  V30 63 H -0.411933 -1.080251 3.528231 0
M  V30 64 H -1.051439 -0.378089 2.026362 0
M  V30 65 H -2.106606 -2.533946 3.678677 0
M  V30 66 H -4.602585 -3.739893 -0.628679 0
M  V30 67 H -5.222017 -2.293737 0.171165 0
M  V30 68 H -5.012470 -2.058925 -2.250694 0
M  V30 69 H -4.058702 -0.815066 -1.313681 0
M  V30 70 H -3.154628 -1.727936 -4.339897 0
M  V30 71 H -1.125282 -3.227718 0.254964 0
M  V30 72 H -2.315116 -4.499979 -0.073438 0
M  V30 73 H -4.490104 -1.830417 3.720138 0
M  V30 74 H -3.409580 -1.173683 4.962134 0
M  V30 75 H -4.857251 0.136411 2.614252 0
M  V30 76 H -4.652473 0.745970 4.282847 0
M  V30 77 H 3.850618 -0.809911 0.110818 0
M  V30 78 H 5.095905 0.002717 -1.003701 0
M  V30 79 H 4.297016 -2.854294 -0.609082 0
M  V30 80 H 5.887944 -2.093781 -0.783374 0
M  V30 END ATOM
M  V30 BEGIN BOND
M  V30 1 1 1 2
M  V30 2 2 2 3
M  V30 3 2 2 4
M  V30 4 1 2 5
M  V30 5 1 5 6
M  V30 6 1 6 7
M  V30 7 1 7 8
M  V30 8 1 8 9
M  V30 9 2 9 10
M  V30 10 1 10 11
M  V30 11 2 11 12
M  V30 12 1 12 13
M  V30 13 2 13 14
M  V30 14 1 14 15
M  V30 15 2 15 16
M  V30 16 1 16 17
M  V30 17 1 17 18
M  V30 18 2 18 19
M  V30 19 1 19 20
M  V30 20 2 20 21
M  V30 21 1 21 22
M  V30 22 1 22 23
M  V30 23 1 23 24
M  V30 24 1 24 25
M  V30 25 1 25 26
M  V30 26 1 26 27
M  V30 27 1 27 28
M  V30 28 2 28 29
M  V30 29 1 28 30
M  V30 30 1 30 31
M  V30 31 1 31 32
M  V30 32 1 32 33
M  V30 33 1 33 34
M  V30 34 2 34 35
M  V30 35 1 35 36
M  V30 36 2 36 37
M  V30 37 1 37 38
M  V30 38 1 27 39
M  V30 39 1 39 40
M  V30 40 2 22 41
M  V30 41 1 8 42
M  V30 42 1 42 43
M  V30 43 1 43 5
M  V30 44 1 14 9
M  V30 45 1 41 18
M  V30 46 1 17 13
M  V30 47 1 40 24
M  V30 48 1 38 30
M  V30 49 1 37 33
M  V30 50 1 1 44
M  V30 51 1 1 45
M  V30 52 1 1 46
M  V30 53 1 5 47
M  V30 54 1 6 48
M  V30 55 1 6 49
M  V30 56 1 7 50
M  V30 57 1 7 51
M  V30 58 1 10 52
M  V30 59 1 11 53
M  V30 60 1 12 54
M  V30 61 1 15 55
M  V30 62 1 16 56
M  V30 63 1 19 57
M  V30 64 1 20 58
M  V30 65 1 23 59
M  V30 66 1 24 60 CFG=3
M  V30 67 1 25 61
M  V30 68 1 25 62
M  V30 69 1 26 63
M  V30 70 1 26 64
M  V30 71 1 27 65 CFG=1
M  V30 72 1 31 66
M  V30 73 1 31 67
M  V30 74 1 32 68
M  V30 75 1 32 69
M  V30 76 1 34 70
M  V30 77 1 38 71
M  V30 78 1 38 72
M  V30 79 1 39 73
M  V30 80 1 39 74
M  V30 81 1 40 75
M  V30 82 1 40 76
M  V30 83 1 42 77
M  V30 84 1 42 78
M  V30 85 1 43 79
M  V30 86 1 43 80
M  V30 END BOND
M  V30 END CTAB
M  END
>  <Dataset>  (921) 
ChEMBL_Kinases

>  <Ligand_Instance>  (921) 
nan

>  <PDB_ID>  (921) 
nan

>  <Standardized_SMILES>  (921) 
CS(=O)(=O)C1CCN(c2cccc3c2ccn3-c2ccnc(N[C@H]3CC[C@H](C(=O)N4CCn5cnnc5C4)CC3)n2)CC1

>  <Name>  (921) 
nan

>  <Pocket>  (921) 
nan

>  <ATP_Site>  (921) 
nan

>  <Peripheral>  (921) 
nan

>  <Num_H_Atoms_ProtBoundConf>  (921) 
nan

>  <Num_Resolved_Atoms>  (921) 
nan

>  <Num_Not_Resolved_Atoms>  (921) 
nan

$$$$
CHEMBL3703168
     RDKit          3D

  0  0  0  0  0  0  0  0  0  0999 V3000
M  V30 BEGIN CTAB
M  V30 COUNTS 57 62 0 0 0
M  V30 BEGIN ATOM
M  V30 1 N -0.416313 -7.274552 1.554977 0
M  V30 2 C 0.074676 -6.589879 0.400015 0
M  V30 3 C 0.321748 -5.139379 0.576232 0
M  V30 4 C -0.659691 -4.530305 1.324371 0
M  V30 5 C -0.632005 -3.182857 1.613587 0
M  V30 6 C 0.408866 -2.410380 1.142594 0
M  V30 7 C 0.676301 -0.982462 1.295433 0
M  V30 8 N 1.710491 -0.420683 1.973905 0
M  V30 9 C 1.621239 0.920869 1.892664 0
M  V30 10 C 2.353892 1.992297 2.363054 0
M  V30 11 C 2.035422 3.313283 2.130412 0
M  V30 12 C 0.896046 3.585015 1.368285 0
M  V30 13 C 0.475574 4.949792 1.068166 0
M  V30 14 C 0.434740 5.963973 2.003793 0
M  V30 15 C 0.015971 7.221059 1.594817 0
M  V30 16 C -0.363879 7.519016 0.302385 0
M  V30 17 N -0.321181 6.513894 -0.615671 0
M  V30 18 C 0.088904 5.278515 -0.219980 0
M  V30 19 O 0.081293 4.357613 -1.260309 0
M  V30 20 C 0.186150 2.494279 0.913325 0
M  V30 21 N 0.509973 1.200553 1.149189 0
M  V30 22 C -0.089684 0.038299 0.769304 0
M  V30 23 C -1.285901 0.002047 -0.026738 0
M  V30 24 C -2.559377 -0.445608 0.254248 0
M  V30 25 C -3.562584 -0.378919 -0.689243 0
M  V30 26 C -3.319614 0.139129 -1.944317 0
M  V30 27 C -2.057710 0.596058 -2.259276 0
M  V30 28 C -1.048037 0.522848 -1.292912 0
M  V30 29 C 1.411269 -3.023728 0.380544 0
M  V30 30 C 1.362441 -4.374338 0.103808 0
M  V30 31 C -0.763224 -6.784945 -0.861517 0
M  V30 32 C 0.481988 -7.234972 -1.586141 0
M  V30 33 C 1.180125 -7.364510 -0.246633 0
M  V30 34 H -1.410243 -7.543851 1.540233 0
M  V30 35 H 0.252821 -7.977227 1.883916 0
M  V30 36 H -1.535418 -5.016392 1.758095 0
M  V30 37 H -1.339495 -2.602572 2.187268 0
M  V30 38 H 3.250265 1.803126 2.962279 0
M  V30 39 H 2.613969 4.146060 2.502489 0
M  V30 40 H 0.732405 5.727705 3.013772 0
M  V30 41 H -0.013169 8.017213 2.341139 0
M  V30 42 H -0.680325 8.543813 0.077065 0
M  V30 43 H 0.829522 3.682295 -1.388333 0
M  V30 44 H -0.693589 2.731472 0.323978 0
M  V30 45 H -2.641210 -0.829061 1.261559 0
M  V30 46 H -4.529677 -0.754405 -0.376822 0
M  V30 47 H -4.189966 0.136266 -2.593722 0
M  V30 48 H -1.922475 0.990305 -3.251452 0
M  V30 49 H -0.112229 0.918238 -1.684522 0
M  V30 50 H 2.286466 -2.553854 -0.056300 0
M  V30 51 H 2.086748 -4.932129 -0.472927 0
M  V30 52 H -1.529549 -7.571949 -0.703727 0
M  V30 53 H -1.234632 -5.865656 -1.253547 0
M  V30 54 H 0.324700 -8.194495 -2.139101 0
M  V30 55 H 0.851064 -6.450130 -2.247486 0
M  V30 56 H 2.196320 -6.949593 -0.193559 0
M  V30 57 H 1.221802 -8.439955 0.028423 0
M  V30 END ATOM
M  V30 BEGIN BOND
M  V30 1 1 1 2
M  V30 2 1 2 3
M  V30 3 2 3 4
M  V30 4 1 4 5
M  V30 5 2 5 6
M  V30 6 1 6 7
M  V30 7 1 7 8
M  V30 8 2 8 9
M  V30 9 1 9 10
M  V30 10 2 10 11
M  V30 11 1 11 12
M  V30 12 1 12 13
M  V30 13 2 13 14
M  V30 14 1 14 15
M  V30 15 2 15 16
M  V30 16 1 16 17
M  V30 17 2 17 18
M  V30 18 1 18 19
M  V30 19 2 12 20
M  V30 20 1 20 21
M  V30 21 1 21 22
M  V30 22 1 22 23
M  V30 23 2 23 24
M  V30 24 1 24 25
M  V30 25 2 25 26
M  V30 26 1 26 27
M  V30 27 2 27 28
M  V30 28 1 6 29
M  V30 29 2 29 30
M  V30 30 1 2 31
M  V30 31 1 31 32
M  V30 32 1 32 33
M  V30 33 1 33 2
M  V30 34 1 30 3
M  V30 35 2 22 7
M  V30 36 1 28 23
M  V30 37 1 21 9
M  V30 38 1 18 13
M  V30 39 1 1 34
M  V30 40 1 1 35
M  V30 41 1 4 36
M  V30 42 1 5 37
M  V30 43 1 10 38
M  V30 44 1 11 39
M  V30 45 1 14 40
M  V30 46 1 15 41
M  V30 47 1 16 42
M  V30 48 1 19 43
M  V30 49 1 20 44
M  V30 50 1 24 45
M  V30 51 1 25 46
M  V30 52 1 26 47
M  V30 53 1 27 48
M  V30 54 1 28 49
M  V30 55 1 29 50
M  V30 56 1 30 51
M  V30 57 1 31 52
M  V30 58 1 31 53
M  V30 59 1 32 54
M  V30 60 1 32 55
M  V30 61 1 33 56
M  V30 62 1 33 57
M  V30 END BOND
M  V30 END CTAB
M  END
>  <Dataset>  (922) 
ChEMBL_Kinases

>  <Ligand_Instance>  (922) 
nan

>  <PDB_ID>  (922) 
nan

>  <Standardized_SMILES>  (922) 
NC1(c2ccc(-c3nc4ccc(-c5cccnc5O)cn4c3-c3ccccc3)cc2)CCC1

>  <Name>  (922) 
nan

>  <Pocket>  (922) 
nan

>  <ATP_Site>  (922) 
nan

>  <Peripheral>  (922) 
nan

>  <Num_H_Atoms_ProtBoundConf>  (922) 
nan

>  <Num_Resolved_Atoms>  (922) 
nan

>  <Num_Not_Resolved_Atoms>  (922) 
nan

$$$$
CHEMBL3703169
     RDKit          3D

  0  0  0  0  0  0  0  0  0  0999 V3000
M  V30 BEGIN CTAB
M  V30 COUNTS 58 63 0 0 0
M  V30 BEGIN ATOM
M  V30 1 C 4.932532 -2.753220 2.708474 0
M  V30 2 O 3.732159 -2.354012 2.075392 0
M  V30 3 C 3.310767 -1.044985 2.083528 0
M  V30 4 C 3.971621 0.003958 2.681853 0
M  V30 5 C 3.434958 1.273467 2.613865 0
M  V30 6 C 4.195935 2.326029 3.273515 0
M  V30 7 C 4.982442 2.165078 4.416843 0
M  V30 8 N 5.531075 3.355266 4.733309 0
M  V30 9 N 5.130471 4.256951 3.848289 0
M  V30 10 C 4.310997 3.653803 2.941834 0
M  V30 11 C 2.240643 1.516729 1.953610 0
M  V30 12 N 1.609671 0.474453 1.374178 0
M  V30 13 C 0.442827 0.454496 0.679198 0
M  V30 14 C -0.475349 1.519990 0.343697 0
M  V30 15 C -1.076274 2.060230 1.478158 0
M  V30 16 C -1.999345 3.103314 1.415759 0
M  V30 17 C -2.312466 3.600214 0.184345 0
M  V30 18 C -1.734283 3.086647 -0.958125 0
M  V30 19 C -0.821962 2.053690 -0.880305 0
M  V30 20 C 0.221979 -0.849603 0.292180 0
M  V30 21 C -0.817932 -1.538840 -0.459703 0
M  V30 22 C -1.526558 -2.466404 0.316099 0
M  V30 23 C -2.552300 -3.231549 -0.199402 0
M  V30 24 C -2.923350 -3.108540 -1.519070 0
M  V30 25 C -3.972850 -3.815666 -2.262492 0
M  V30 26 N -4.737323 -2.933309 -3.110419 0
M  V30 27 C -4.784681 -4.833775 -1.505209 0
M  V30 28 C -3.773098 -5.901122 -1.936232 0
M  V30 29 C -3.453204 -4.987695 -3.108666 0
M  V30 30 C -2.218227 -2.184795 -2.292562 0
M  V30 31 C -1.200832 -1.427009 -1.779226 0
M  V30 32 N 1.249334 -1.583674 0.756110 0
M  V30 33 C 2.106731 -0.775916 1.422635 0
M  V30 34 H 4.906564 -3.849114 2.965065 0
M  V30 35 H 5.107010 -2.200609 3.670858 0
M  V30 36 H 5.824364 -2.541906 2.058669 0
M  V30 37 H 4.899557 -0.232626 3.185693 0
M  V30 38 H 5.097938 1.216448 4.926888 0
M  V30 39 H 5.331214 5.277214 3.748505 0
M  V30 40 H 3.803476 4.085180 2.083562 0
M  V30 41 H 1.841675 2.521450 1.915131 0
M  V30 42 H -0.893987 1.732624 2.514696 0
M  V30 43 H -2.472841 3.532789 2.278289 0
M  V30 44 H -3.007159 4.404828 -0.025397 0
M  V30 45 H -1.890742 3.384540 -1.992460 0
M  V30 46 H -0.314789 1.584532 -1.698394 0
M  V30 47 H -1.329775 -2.656556 1.370195 0
M  V30 48 H -3.120775 -3.951773 0.352508 0
M  V30 49 H -5.679001 -3.328447 -3.361162 0
M  V30 50 H -4.174306 -2.706319 -3.962112 0
M  V30 51 H -4.845547 -4.714963 -0.409030 0
M  V30 52 H -5.754326 -5.019595 -2.020026 0
M  V30 53 H -2.967146 -6.004404 -1.187286 0
M  V30 54 H -4.206372 -6.868522 -2.214856 0
M  V30 55 H -2.366213 -4.932146 -3.247816 0
M  V30 56 H -4.077510 -5.227178 -3.982072 0
M  V30 57 H -2.376995 -1.958460 -3.348510 0
M  V30 58 H -0.613814 -0.699040 -2.315133 0
M  V30 END ATOM
M  V30 BEGIN BOND
M  V30 1 1 1 2
M  V30 2 1 2 3
M  V30 3 2 3 4
M  V30 4 1 4 5
M  V30 5 1 5 6
M  V30 6 1 6 7
M  V30 7 2 7 8
M  V30 8 1 8 9
M  V30 9 1 9 10
M  V30 10 2 5 11
M  V30 11 1 11 12
M  V30 12 1 12 13
M  V30 13 1 13 14
M  V30 14 2 14 15
M  V30 15 1 15 16
M  V30 16 2 16 17
M  V30 17 1 17 18
M  V30 18 2 18 19
M  V30 19 2 13 20
M  V30 20 1 20 21
M  V30 21 2 21 22
M  V30 22 1 22 23
M  V30 23 2 23 24
M  V30 24 1 24 25
M  V30 25 1 25 26
M  V30 26 1 25 27
M  V30 27 1 27 28
M  V30 28 1 28 29
M  V30 29 1 24 30
M  V30 30 2 30 31
M  V30 31 1 20 32
M  V30 32 2 32 33
M  V30 33 1 33 3
M  V30 34 2 10 6
M  V30 35 1 33 12
M  V30 36 1 19 14
M  V30 37 1 31 21
M  V30 38 1 29 25
M  V30 39 1 1 34
M  V30 40 1 1 35
M  V30 41 1 1 36
M  V30 42 1 4 37
M  V30 43 1 7 38
M  V30 44 1 9 39
M  V30 45 1 10 40
M  V30 46 1 11 41
M  V30 47 1 15 42
M  V30 48 1 16 43
M  V30 49 1 17 44
M  V30 50 1 18 45
M  V30 51 1 19 46
M  V30 52 1 22 47
M  V30 53 1 23 48
M  V30 54 1 26 49
M  V30 55 1 26 50
M  V30 56 1 27 51
M  V30 57 1 27 52
M  V30 58 1 28 53
M  V30 59 1 28 54
M  V30 60 1 29 55
M  V30 61 1 29 56
M  V30 62 1 30 57
M  V30 63 1 31 58
M  V30 END BOND
M  V30 END CTAB
M  END
>  <Dataset>  (923) 
ChEMBL_Kinases

>  <Ligand_Instance>  (923) 
nan

>  <PDB_ID>  (923) 
nan

>  <Standardized_SMILES>  (923) 
COc1cc(-c2cn[nH]c2)cn2c(-c3ccccc3)c(-c3ccc(C4(N)CCC4)cc3)nc12

>  <Name>  (923) 
nan

>  <Pocket>  (923) 
nan

>  <ATP_Site>  (923) 
nan

>  <Peripheral>  (923) 
nan

>  <Num_H_Atoms_ProtBoundConf>  (923) 
nan

>  <Num_Resolved_Atoms>  (923) 
nan

>  <Num_Not_Resolved_Atoms>  (923) 
nan

$$$$
CHEMBL3703170
     RDKit          3D

  0  0  0  0  0  0  0  0  0  0999 V3000
M  V30 BEGIN CTAB
M  V30 COUNTS 50 54 0 0 0
M  V30 BEGIN ATOM
M  V30 1 C -1.047335 -5.473207 -0.075226 0
M  V30 2 C 0.396762 -5.163755 -0.332874 0
M  V30 3 C 1.306190 -6.144377 -0.675440 0
M  V30 4 C 2.640599 -5.890675 -0.915027 0
M  V30 5 C 3.083093 -4.588957 -0.805280 0
M  V30 6 C 2.176526 -3.578087 -0.458576 0
M  V30 7 N 2.303883 -2.232590 -0.275939 0
M  V30 8 C 1.075030 -1.734437 0.057978 0
M  V30 9 C 1.018409 -0.298267 0.293089 0
M  V30 10 C 1.781908 0.250928 1.312750 0
M  V30 11 C 1.733585 1.611031 1.540792 0
M  V30 12 C 0.928310 2.454692 0.764145 0
M  V30 13 C 1.028470 3.860548 1.174884 0
M  V30 14 N 2.436517 4.228092 1.368387 0
M  V30 15 C 0.224391 4.875076 0.435807 0
M  V30 16 C -0.733995 4.933132 1.614624 0
M  V30 17 C 0.288921 4.201833 2.456897 0
M  V30 18 C 0.184651 1.869994 -0.238743 0
M  V30 19 C 0.220598 0.513543 -0.481077 0
M  V30 20 C 0.186271 -2.813385 0.075802 0
M  V30 21 C -1.174391 -2.497239 0.407917 0
M  V30 22 C -1.363204 -2.024137 1.713751 0
M  V30 23 C -2.627049 -1.678777 2.156135 0
M  V30 24 C -3.753660 -1.781916 1.341678 0
M  V30 25 C -3.566924 -2.248591 0.054026 0
M  V30 26 C -2.304673 -2.591610 -0.381899 0
M  V30 27 N 0.889619 -3.912375 -0.241555 0
M  V30 28 H -1.062331 -6.586605 0.136817 0
M  V30 29 H -1.402131 -5.031120 0.871973 0
M  V30 30 H -1.688954 -5.358952 -0.942000 0
M  V30 31 H 0.983605 -7.185613 -0.769763 0
M  V30 32 H 3.332068 -6.669809 -1.180490 0
M  V30 33 H 4.112340 -4.331678 -0.980608 0
M  V30 34 H 2.396728 -0.424127 1.899323 0
M  V30 35 H 2.372378 1.946839 2.367388 0
M  V30 36 H 2.693442 4.028887 2.371459 0
M  V30 37 H 2.615670 5.217267 1.102596 0
M  V30 38 H 0.780483 5.837500 0.297533 0
M  V30 39 H -0.187813 4.550131 -0.516134 0
M  V30 40 H -0.971152 5.959246 1.939201 0
M  V30 41 H -1.672062 4.379351 1.417032 0
M  V30 42 H 0.803376 4.908224 3.134748 0
M  V30 43 H -0.077354 3.337541 3.021415 0
M  V30 44 H -0.406612 2.558399 -0.793726 0
M  V30 45 H -0.393667 0.135506 -1.287548 0
M  V30 46 H -0.616764 -1.875128 2.492148 0
M  V30 47 H -2.864260 -1.305378 3.146147 0
M  V30 48 H -4.748825 -1.528355 1.635559 0
M  V30 49 H -4.352635 -2.383426 -0.699755 0
M  V30 50 H -2.076512 -2.966623 -1.381075 0
M  V30 END ATOM
M  V30 BEGIN BOND
M  V30 1 1 1 2
M  V30 2 2 2 3
M  V30 3 1 3 4
M  V30 4 2 4 5
M  V30 5 1 5 6
M  V30 6 2 6 7
M  V30 7 1 7 8
M  V30 8 1 8 9
M  V30 9 2 9 10
M  V30 10 1 10 11
M  V30 11 2 11 12
M  V30 12 1 12 13
M  V30 13 1 13 14
M  V30 14 1 13 15
M  V30 15 1 15 16
M  V30 16 1 16 17
M  V30 17 1 12 18
M  V30 18 2 18 19
M  V30 19 2 8 20
M  V30 20 1 20 21
M  V30 21 2 21 22
M  V30 22 1 22 23
M  V30 23 2 23 24
M  V30 24 1 24 25
M  V30 25 2 25 26
M  V30 26 1 20 27
M  V30 27 1 27 2
M  V30 28 1 27 6
M  V30 29 1 19 9
M  V30 30 1 26 21
M  V30 31 1 17 13
M  V30 32 1 1 28
M  V30 33 1 1 29
M  V30 34 1 1 30
M  V30 35 1 3 31
M  V30 36 1 4 32
M  V30 37 1 5 33
M  V30 38 1 10 34
M  V30 39 1 11 35
M  V30 40 1 14 36
M  V30 41 1 14 37
M  V30 42 1 15 38
M  V30 43 1 15 39
M  V30 44 1 16 40
M  V30 45 1 16 41
M  V30 46 1 17 42
M  V30 47 1 17 43
M  V30 48 1 18 44
M  V30 49 1 19 45
M  V30 50 1 22 46
M  V30 51 1 23 47
M  V30 52 1 24 48
M  V30 53 1 25 49
M  V30 54 1 26 50
M  V30 END BOND
M  V30 END CTAB
M  END
>  <Dataset>  (924) 
ChEMBL_Kinases

>  <Ligand_Instance>  (924) 
nan

>  <PDB_ID>  (924) 
nan

>  <Standardized_SMILES>  (924) 
Cc1cccc2nc(-c3ccc(C4(N)CCC4)cc3)c(-c3ccccc3)n12

>  <Name>  (924) 
nan

>  <Pocket>  (924) 
nan

>  <ATP_Site>  (924) 
nan

>  <Peripheral>  (924) 
nan

>  <Num_H_Atoms_ProtBoundConf>  (924) 
nan

>  <Num_Resolved_Atoms>  (924) 
nan

>  <Num_Not_Resolved_Atoms>  (924) 
nan

$$$$
CHEMBL3703171
     RDKit          3D

  0  0  0  0  0  0  0  0  0  0999 V3000
M  V30 BEGIN CTAB
M  V30 COUNTS 48 52 0 0 0
M  V30 BEGIN ATOM
M  V30 1 N -1.409010 -8.643407 1.146671 0
M  V30 2 C -0.779977 -7.657826 1.040089 0
M  V30 3 C -0.018533 -6.433148 0.912298 0
M  V30 4 C 1.361494 -6.435043 0.755892 0
M  V30 5 C 2.059711 -5.249752 0.637108 0
M  V30 6 Cl 3.802718 -5.288650 0.438179 0
M  V30 7 C 1.386009 -4.048377 0.671963 0
M  V30 8 N 1.760470 -2.767936 0.585471 0
M  V30 9 C 0.669207 -1.960013 0.680057 0
M  V30 10 C 0.787217 -0.535655 0.606345 0
M  V30 11 C 0.518734 0.081943 -0.618950 0
M  V30 12 C 0.613193 1.459592 -0.724556 0
M  V30 13 C 0.967481 2.250860 0.351143 0
M  V30 14 C 1.020251 3.713973 0.046439 0
M  V30 15 N -0.070807 4.176840 -0.778270 0
M  V30 16 C 1.325910 4.617972 1.203973 0
M  V30 17 C 2.759100 4.686650 0.795392 0
M  V30 18 C 2.338702 4.154143 -0.562599 0
M  V30 19 C 1.230434 1.633977 1.555373 0
M  V30 20 C 1.140070 0.263068 1.674849 0
M  V30 21 C -0.440468 -2.771945 0.833806 0
M  V30 22 C -1.751511 -2.222062 0.970149 0
M  V30 23 C -2.498237 -1.488198 0.081651 0
M  V30 24 C -3.762441 -1.006972 0.337902 0
M  V30 25 C -4.292459 -1.299334 1.590131 0
M  V30 26 C -3.614616 -2.036044 2.563797 0
M  V30 27 C -2.351480 -2.472512 2.203069 0
M  V30 28 N 0.031628 -4.032685 0.824376 0
M  V30 29 C -0.658944 -5.195810 0.942493 0
M  V30 30 H 1.882335 -7.386454 0.729334 0
M  V30 31 H 0.241801 -0.527765 -1.473525 0
M  V30 32 H 0.385237 1.857879 -1.721296 0
M  V30 33 H -0.535105 4.959149 -0.272992 0
M  V30 34 H -0.755516 3.400956 -0.851826 0
M  V30 35 H 1.077775 4.267939 2.211733 0
M  V30 36 H 0.853657 5.631795 1.052029 0
M  V30 37 H 3.177136 5.733674 0.783619 0
M  V30 38 H 3.479315 4.068014 1.356355 0
M  V30 39 H 2.956315 3.375001 -0.998399 0
M  V30 40 H 2.219197 5.041734 -1.241679 0
M  V30 41 H 1.495395 2.279857 2.351812 0
M  V30 42 H 1.352342 -0.187807 2.636645 0
M  V30 43 H -1.992811 -1.314191 -0.876203 0
M  V30 44 H -4.299711 -0.434836 -0.403415 0
M  V30 45 H -5.277528 -0.953775 1.864218 0
M  V30 46 H -4.043085 -2.247349 3.524770 0
M  V30 47 H -1.849282 -3.047608 2.998236 0
M  V30 48 H -1.747289 -5.177077 1.061068 0
M  V30 END ATOM
M  V30 BEGIN BOND
M  V30 1 3 1 2
M  V30 2 1 2 3
M  V30 3 1 3 4
M  V30 4 2 4 5
M  V30 5 1 5 6
M  V30 6 1 5 7
M  V30 7 2 7 8
M  V30 8 1 8 9
M  V30 9 1 9 10
M  V30 10 2 10 11
M  V30 11 1 11 12
M  V30 12 2 12 13
M  V30 13 1 13 14
M  V30 14 1 14 15
M  V30 15 1 14 16
M  V30 16 1 16 17
M  V30 17 1 17 18
M  V30 18 1 13 19
M  V30 19 2 19 20
M  V30 20 2 9 21
M  V30 21 1 21 22
M  V30 22 2 22 23
M  V30 23 1 23 24
M  V30 24 2 24 25
M  V30 25 1 25 26
M  V30 26 2 26 27
M  V30 27 1 21 28
M  V30 28 1 28 29
M  V30 29 2 29 3
M  V30 30 1 28 7
M  V30 31 1 20 10
M  V30 32 1 27 22
M  V30 33 1 18 14
M  V30 34 1 4 30
M  V30 35 1 11 31
M  V30 36 1 12 32
M  V30 37 1 15 33
M  V30 38 1 15 34
M  V30 39 1 16 35
M  V30 40 1 16 36
M  V30 41 1 17 37
M  V30 42 1 17 38
M  V30 43 1 18 39
M  V30 44 1 18 40
M  V30 45 1 19 41
M  V30 46 1 20 42
M  V30 47 1 23 43
M  V30 48 1 24 44
M  V30 49 1 25 45
M  V30 50 1 26 46
M  V30 51 1 27 47
M  V30 52 1 29 48
M  V30 END BOND
M  V30 END CTAB
M  END
>  <Dataset>  (925) 
ChEMBL_Kinases

>  <Ligand_Instance>  (925) 
nan

>  <PDB_ID>  (925) 
nan

>  <Standardized_SMILES>  (925) 
N#Cc1cc(Cl)c2nc(-c3ccc(C4(N)CCC4)cc3)c(-c3ccccc3)n2c1

>  <Name>  (925) 
nan

>  <Pocket>  (925) 
nan

>  <ATP_Site>  (925) 
nan

>  <Peripheral>  (925) 
nan

>  <Num_H_Atoms_ProtBoundConf>  (925) 
nan

>  <Num_Resolved_Atoms>  (925) 
nan

>  <Num_Not_Resolved_Atoms>  (925) 
nan

$$$$
CHEMBL2397523
     RDKit          3D

  0  0  0  0  0  0  0  0  0  0999 V3000
M  V30 BEGIN CTAB
M  V30 COUNTS 27 30 0 0 0
M  V30 BEGIN ATOM
M  V30 1 O 2.859152 -0.372629 4.499775 0
M  V30 2 N 2.095140 -0.727197 3.580863 0 CHG=1 VAL=4
M  V30 3 O 1.325332 -1.535210 4.382067 0 CHG=-1 VAL=1
M  V30 4 C 1.919778 -0.504940 2.205229 0
M  V30 5 C 2.983885 -0.169546 1.409589 0
M  V30 6 C 2.740093 0.038923 0.047795 0
M  V30 7 N 3.603612 0.373216 -0.935563 0
M  V30 8 N 2.871731 0.450222 -2.054488 0
M  V30 9 C 1.588480 0.171082 -1.772676 0
M  V30 10 C 1.457508 -0.098461 -0.437558 0
M  V30 11 C 0.412691 -0.436140 0.387674 0
M  V30 12 C 0.640633 -0.644353 1.732979 0
M  V30 13 N -0.558032 -0.953407 2.256528 0
M  V30 14 C -1.526490 -0.947653 1.296693 0
M  V30 15 C -2.885534 -1.221687 1.476857 0
M  V30 16 C -3.668238 -1.148278 0.328639 0
M  V30 17 C -3.070489 -0.819940 -0.876026 0
M  V30 18 C -1.721124 -0.560996 -0.983350 0
M  V30 19 C -0.904658 -0.619711 0.118093 0
M  V30 20 H 3.965645 -0.076398 1.845683 0
M  V30 21 H 4.638203 0.545245 -0.874123 0
M  V30 22 H 0.852237 0.183912 -2.548168 0
M  V30 23 H -0.702188 -1.166995 3.271259 0
M  V30 24 H -3.291962 -1.468844 2.426015 0
M  V30 25 H -4.730194 -1.350176 0.404298 0
M  V30 26 H -3.711621 -0.768696 -1.768650 0
M  V30 27 H -1.337927 -0.315706 -1.941199 0
M  V30 END ATOM
M  V30 BEGIN BOND
M  V30 1 2 1 2
M  V30 2 1 2 3
M  V30 3 1 2 4
M  V30 4 2 4 5
M  V30 5 1 5 6
M  V30 6 1 6 7
M  V30 7 1 7 8
M  V30 8 2 8 9
M  V30 9 1 9 10
M  V30 10 1 10 11
M  V30 11 2 11 12
M  V30 12 1 12 13
M  V30 13 1 13 14
M  V30 14 2 14 15
M  V30 15 1 15 16
M  V30 16 2 16 17
M  V30 17 1 17 18
M  V30 18 2 18 19
M  V30 19 1 12 4
M  V30 20 1 19 14
M  V30 21 2 10 6
M  V30 22 1 19 11
M  V30 23 1 5 20
M  V30 24 1 7 21
M  V30 25 1 9 22
M  V30 26 1 13 23
M  V30 27 1 15 24
M  V30 28 1 16 25
M  V30 29 1 17 26
M  V30 30 1 18 27
M  V30 END BOND
M  V30 END CTAB
M  END
>  <Dataset>  (926) 
ChEMBL_Kinases

>  <Ligand_Instance>  (926) 
nan

>  <PDB_ID>  (926) 
nan

>  <Standardized_SMILES>  (926) 
O=[N+]([O-])c1cc2[nH]ncc2c2c1[nH]c1ccccc12

>  <Name>  (926) 
nan

>  <Pocket>  (926) 
nan

>  <ATP_Site>  (926) 
nan

>  <Peripheral>  (926) 
nan

>  <Num_H_Atoms_ProtBoundConf>  (926) 
nan

>  <Num_Resolved_Atoms>  (926) 
nan

>  <Num_Not_Resolved_Atoms>  (926) 
nan

$$$$
CHEMBL220096
     RDKit          3D

  0  0  0  0  0  0  0  0  0  0999 V3000
M  V30 BEGIN CTAB
M  V30 COUNTS 51 54 0 0 0
M  V30 BEGIN ATOM
M  V30 1 C 0.464968 -3.934772 5.448590 0
M  V30 2 N 0.646744 -3.226803 4.175349 0
M  V30 3 C 1.019013 -4.018514 3.059309 0
M  V30 4 O 1.151253 -5.268231 3.307352 0
M  V30 5 C 1.284534 -3.671026 1.666540 0 CFG=1
M  V30 6 N 1.105188 -2.249945 1.370848 0
M  V30 7 C 0.245434 -1.638087 0.388463 0
M  V30 8 O -0.436005 -2.392518 -0.300355 0
M  V30 9 C 0.313102 -0.185200 0.350687 0
M  V30 10 C -0.401492 0.509543 -0.594361 0
M  V30 11 C -0.184971 1.859016 -0.435288 0
M  V30 12 C -0.590275 3.110610 -1.060895 0
M  V30 13 N 0.339120 3.947923 -1.586373 0
M  V30 14 N -0.257144 5.025970 -2.091838 0
M  V30 15 C -1.590049 4.936719 -1.919364 0
M  V30 16 C -1.794910 3.746020 -1.278451 0
M  V30 17 C -3.059395 3.152036 -0.859868 0
M  V30 18 C -3.461732 2.000240 -1.505636 0
M  V30 19 C -4.622857 1.287028 -1.262788 0
M  V30 20 C -5.464427 1.765714 -0.282602 0
M  V30 21 C -5.089149 2.921223 0.387100 0
M  V30 22 Cl -6.147051 3.553468 1.646777 0
M  V30 23 C -3.930391 3.619984 0.133497 0
M  V30 24 C 0.691292 1.909697 0.651862 0
M  V30 25 N 0.996647 0.673263 1.131234 0
M  V30 26 C 2.631260 -4.120287 1.168608 0
M  V30 27 C 2.805069 -3.616107 -0.112508 0
M  V30 28 C 3.971826 -3.870885 -0.829645 0
M  V30 29 C 4.981622 -4.640473 -0.262048 0
M  V30 30 C 4.786550 -5.138256 1.031183 0
M  V30 31 C 3.634951 -4.879361 1.721841 0
M  V30 32 H -0.152594 -3.318053 6.129953 0
M  V30 33 H -0.178316 -4.813621 5.201972 0
M  V30 34 H 1.425822 -4.189725 5.905346 0
M  V30 35 H 0.548226 -2.199013 3.925497 0
M  V30 36 H 0.565910 -4.211467 1.006807 0
M  V30 37 H 1.762801 -1.806857 2.058405 0
M  V30 38 H -1.068635 0.213388 -1.401044 0
M  V30 39 H 1.382099 3.946655 -1.687175 0
M  V30 40 H -2.370093 5.642388 -2.214041 0
M  V30 41 H -2.826386 1.587008 -2.284719 0
M  V30 42 H -4.873222 0.392081 -1.808449 0
M  V30 43 H -6.392895 1.276761 -0.024866 0
M  V30 44 H -3.598934 4.518893 0.627029 0
M  V30 45 H 1.151064 2.750756 1.153978 0
M  V30 46 H 1.585930 0.332774 1.891780 0
M  V30 47 H 2.192335 -2.997480 -0.774190 0
M  V30 48 H 4.273615 -3.566259 -1.815792 0
M  V30 49 H 5.921662 -4.912827 -0.699567 0
M  V30 50 H 5.492530 -5.744089 1.569590 0
M  V30 51 H 3.368061 -5.196009 2.706926 0
M  V30 END ATOM
M  V30 BEGIN BOND
M  V30 1 1 1 2
M  V30 2 1 2 3
M  V30 3 2 3 4
M  V30 4 1 3 5
M  V30 5 1 5 6
M  V30 6 1 6 7
M  V30 7 2 7 8
M  V30 8 1 7 9
M  V30 9 2 9 10
M  V30 10 1 10 11
M  V30 11 1 11 12
M  V30 12 1 12 13
M  V30 13 1 13 14
M  V30 14 2 14 15
M  V30 15 1 15 16
M  V30 16 1 16 17
M  V30 17 2 17 18
M  V30 18 1 18 19
M  V30 19 2 19 20
M  V30 20 1 20 21
M  V30 21 1 21 22
M  V30 22 2 21 23
M  V30 23 2 11 24
M  V30 24 1 24 25
M  V30 25 1 5 26
M  V30 26 2 26 27
M  V30 27 1 27 28
M  V30 28 2 28 29
M  V30 29 1 29 30
M  V30 30 2 30 31
M  V30 31 1 25 9
M  V30 32 1 31 26
M  V30 33 2 16 12
M  V30 34 1 23 17
M  V30 35 1 1 32
M  V30 36 1 1 33
M  V30 37 1 1 34
M  V30 38 1 2 35
M  V30 39 1 5 36 CFG=3
M  V30 40 1 6 37
M  V30 41 1 10 38
M  V30 42 1 13 39
M  V30 43 1 15 40
M  V30 44 1 18 41
M  V30 45 1 19 42
M  V30 46 1 20 43
M  V30 47 1 23 44
M  V30 48 1 24 45
M  V30 49 1 25 46
M  V30 50 1 27 47
M  V30 51 1 28 48
M  V30 52 1 29 49
M  V30 53 1 30 50
M  V30 54 1 31 51
M  V30 END BOND
M  V30 END CTAB
M  END
>  <Dataset>  (927) 
ChEMBL_Kinases

>  <Ligand_Instance>  (927) 
nan

>  <PDB_ID>  (927) 
nan

>  <Standardized_SMILES>  (927) 
CNC(=O)[C@@H](NC(=O)c1cc(-c2[nH]ncc2-c2cccc(Cl)c2)c[nH]1)c1ccccc1

>  <Name>  (927) 
nan

>  <Pocket>  (927) 
nan

>  <ATP_Site>  (927) 
nan

>  <Peripheral>  (927) 
nan

>  <Num_H_Atoms_ProtBoundConf>  (927) 
nan

>  <Num_Resolved_Atoms>  (927) 
nan

>  <Num_Not_Resolved_Atoms>  (927) 
nan

$$$$
CHEMBL4570689
     RDKit          3D

  0  0  0  0  0  0  0  0  0  0999 V3000
M  V30 BEGIN CTAB
M  V30 COUNTS 27 28 0 0 0
M  V30 BEGIN ATOM
M  V30 1 N 0.059181 -2.986693 4.920100 0
M  V30 2 C -0.129779 -3.295762 3.544433 0
M  V30 3 O -0.350026 -4.515904 3.510404 0
M  V30 4 C -0.051224 -2.280650 2.498086 0
M  V30 5 C 0.214286 -0.965894 2.826372 0
M  V30 6 C 0.265900 -0.091171 1.759195 0
M  V30 7 C 0.079727 -0.410687 0.428633 0
M  V30 8 C 0.158599 0.597798 -0.602728 0
M  V30 9 C -0.463822 1.821013 -0.448464 0
M  V30 10 C -0.344511 2.741505 -1.482424 0
M  V30 11 C 0.354072 2.522246 -2.658792 0
M  V30 12 N 0.959434 1.306989 -2.786597 0
M  V30 13 C 0.848446 0.401776 -1.782212 0
M  V30 14 N 1.516767 -0.812512 -2.034079 0
M  V30 15 C -0.184964 -1.760982 0.173696 0
M  V30 16 C -0.252145 -2.698094 1.194781 0
M  V30 17 H 0.246722 -2.130558 5.483971 0
M  V30 18 H 0.248396 -2.189074 5.585404 0
M  V30 19 H 0.372458 -0.629544 3.838295 0
M  V30 20 H 0.472691 0.958328 1.968343 0
M  V30 21 H -1.022354 2.050274 0.445144 0
M  V30 22 H -0.845208 3.674454 -1.313927 0
M  V30 23 H 0.385545 3.312317 -3.407444 0
M  V30 24 H 2.521520 -1.141080 -2.073200 0
M  V30 25 H 1.582300 -1.808915 -2.257768 0
M  V30 26 H -0.339701 -2.074221 -0.845123 0
M  V30 27 H -0.456649 -3.739321 0.994132 0
M  V30 END ATOM
M  V30 BEGIN BOND
M  V30 1 1 1 2
M  V30 2 2 2 3
M  V30 3 1 2 4
M  V30 4 2 4 5
M  V30 5 1 5 6
M  V30 6 2 6 7
M  V30 7 1 7 8
M  V30 8 2 8 9
M  V30 9 1 9 10
M  V30 10 2 10 11
M  V30 11 1 11 12
M  V30 12 2 12 13
M  V30 13 1 13 14
M  V30 14 1 7 15
M  V30 15 2 15 16
M  V30 16 1 16 4
M  V30 17 1 13 8
M  V30 18 1 1 17
M  V30 19 1 1 18
M  V30 20 1 5 19
M  V30 21 1 6 20
M  V30 22 1 9 21
M  V30 23 1 10 22
M  V30 24 1 11 23
M  V30 25 1 14 24
M  V30 26 1 14 25
M  V30 27 1 15 26
M  V30 28 1 16 27
M  V30 END BOND
M  V30 END CTAB
M  END
>  <Dataset>  (928) 
ChEMBL_Kinases

>  <Ligand_Instance>  (928) 
nan

>  <PDB_ID>  (928) 
nan

>  <Standardized_SMILES>  (928) 
NC(=O)c1ccc(-c2cccnc2N)cc1

>  <Name>  (928) 
nan

>  <Pocket>  (928) 
nan

>  <ATP_Site>  (928) 
nan

>  <Peripheral>  (928) 
nan

>  <Num_H_Atoms_ProtBoundConf>  (928) 
nan

>  <Num_Resolved_Atoms>  (928) 
nan

>  <Num_Not_Resolved_Atoms>  (928) 
nan

$$$$
CHEMBL4571067
     RDKit          3D

  0  0  0  0  0  0  0  0  0  0999 V3000
M  V30 BEGIN CTAB
M  V30 COUNTS 51 54 0 0 0
M  V30 BEGIN ATOM
M  V30 1 C 0.343841 -3.817406 3.358702 0
M  V30 2 C 1.812167 -3.728757 3.625058 0
M  V30 3 C 2.584620 -2.774702 2.999055 0
M  V30 4 C 3.939780 -2.616320 3.180041 0
M  V30 5 N 4.756811 -1.645162 2.550074 0
M  V30 6 C 4.385832 -0.645168 1.619794 0
M  V30 7 N 5.318525 0.191242 1.131206 0
M  V30 8 C 5.074023 1.166166 0.251591 0
M  V30 9 C 3.787085 1.338331 -0.193398 0
M  V30 10 C 2.791751 0.512526 0.271638 0
M  V30 11 C 1.420105 0.677353 -0.186817 0
M  V30 12 C 1.038281 1.641670 -1.089402 0
M  V30 13 C -0.288216 1.780437 -1.515242 0
M  V30 14 N -1.250987 0.958376 -1.045659 0
M  V30 15 C -2.583233 1.193984 -1.553985 0 CFG=2
M  V30 16 C -3.000670 2.591275 -1.117383 0
M  V30 17 O -4.270937 2.923297 -1.553729 0
M  V30 18 C -3.575078 0.207510 -1.121329 0
M  V30 19 C -4.388422 0.267343 0.016454 0
M  V30 20 C -5.287441 -0.750830 0.296742 0
M  V30 21 C -5.373813 -1.819392 -0.551297 0
M  V30 22 Cl -6.503795 -3.132744 -0.229342 0
M  V30 23 C -4.610310 -1.956483 -1.692316 0
M  V30 24 F -4.681110 -3.007546 -2.545394 0
M  V30 25 C -3.717814 -0.916536 -1.944281 0
M  V30 26 C -0.922136 -0.000399 -0.160163 0
M  V30 27 O -1.837167 -0.754201 0.262800 0
M  V30 28 C 0.389747 -0.126993 0.252023 0
M  V30 29 N 3.158248 -0.429669 1.152049 0
M  V30 30 C 4.484510 -3.519272 4.068777 0
M  V30 31 C 3.712524 -4.472454 4.694161 0
M  V30 32 N 2.393516 -4.569504 4.469787 0
M  V30 33 H -0.138212 -3.386120 4.270325 0
M  V30 34 H 0.064645 -3.161464 2.503830 0
M  V30 35 H 0.024665 -4.852221 3.231049 0
M  V30 36 H 2.070006 -2.126569 2.332488 0
M  V30 37 H 5.781709 -1.678954 2.816522 0
M  V30 38 H 5.911680 1.762522 -0.056525 0
M  V30 39 H 3.644871 2.133631 -0.897617 0
M  V30 40 H 1.743444 2.330015 -1.506114 0
M  V30 41 H -0.527068 2.574337 -2.241099 0
M  V30 42 H -2.524302 1.223660 -2.649748 0
M  V30 43 H -2.307404 3.319398 -1.585622 0
M  V30 44 H -2.886689 2.719255 -0.016822 0
M  V30 45 H -4.728896 3.380376 -0.786023 0
M  V30 46 H -4.243958 1.154592 0.623623 0
M  V30 47 H -5.893921 -0.659921 1.186943 0
M  V30 48 H -3.108386 -1.025852 -2.855058 0
M  V30 49 H 0.553343 -0.910310 0.950885 0
M  V30 50 H 5.555229 -3.515908 4.314596 0
M  V30 51 H 4.156710 -5.173147 5.388812 0
M  V30 END ATOM
M  V30 BEGIN BOND
M  V30 1 1 1 2
M  V30 2 2 2 3
M  V30 3 1 3 4
M  V30 4 1 4 5
M  V30 5 1 5 6
M  V30 6 2 6 7
M  V30 7 1 7 8
M  V30 8 2 8 9
M  V30 9 1 9 10
M  V30 10 1 10 11
M  V30 11 1 11 12
M  V30 12 2 12 13
M  V30 13 1 13 14
M  V30 14 1 14 15
M  V30 15 1 15 16
M  V30 16 1 16 17
M  V30 17 1 15 18
M  V30 18 2 18 19
M  V30 19 1 19 20
M  V30 20 2 20 21
M  V30 21 1 21 22
M  V30 22 1 21 23
M  V30 23 1 23 24
M  V30 24 2 23 25
M  V30 25 1 14 26
M  V30 26 2 26 27
M  V30 27 1 26 28
M  V30 28 2 10 29
M  V30 29 2 4 30
M  V30 30 1 30 31
M  V30 31 2 31 32
M  V30 32 1 32 2
M  V30 33 1 29 6
M  V30 34 2 28 11
M  V30 35 1 25 18
M  V30 36 1 1 33
M  V30 37 1 1 34
M  V30 38 1 1 35
M  V30 39 1 3 36
M  V30 40 1 5 37
M  V30 41 1 8 38
M  V30 42 1 9 39
M  V30 43 1 12 40
M  V30 44 1 13 41
M  V30 45 1 15 42 CFG=3
M  V30 46 1 16 43
M  V30 47 1 16 44
M  V30 48 1 17 45
M  V30 49 1 19 46
M  V30 50 1 20 47
M  V30 51 1 25 48
M  V30 52 1 28 49
M  V30 53 1 30 50
M  V30 54 1 31 51
M  V30 END BOND
M  V30 END CTAB
M  END
>  <Dataset>  (929) 
ChEMBL_Kinases

>  <Ligand_Instance>  (929) 
nan

>  <PDB_ID>  (929) 
nan

>  <Standardized_SMILES>  (929) 
Cc1cc(Nc2nccc(-c3ccn([C@H](CO)c4ccc(Cl)c(F)c4)c(=O)c3)n2)ccn1

>  <Name>  (929) 
nan

>  <Pocket>  (929) 
nan

>  <ATP_Site>  (929) 
nan

>  <Peripheral>  (929) 
nan

>  <Num_H_Atoms_ProtBoundConf>  (929) 
nan

>  <Num_Resolved_Atoms>  (929) 
nan

>  <Num_Not_Resolved_Atoms>  (929) 
nan

$$$$
CHEMBL3702130
     RDKit          3D

  0  0  0  0  0  0  0  0  0  0999 V3000
M  V30 BEGIN CTAB
M  V30 COUNTS 60 65 0 0 0
M  V30 BEGIN ATOM
M  V30 1 O -0.614844 -5.290036 0.403588 0
M  V30 2 S 0.523101 -5.172385 -0.574116 0
M  V30 3 O 1.407280 -6.345675 -0.392340 0
M  V30 4 C 1.338951 -3.661227 -0.234075 0
M  V30 5 C 2.687339 -3.619082 -0.590147 0
M  V30 6 C 3.466609 -2.478683 -0.378637 0
M  V30 7 C 2.801066 -1.417685 0.201596 0
M  V30 8 N 3.498525 -0.183183 0.470817 0
M  V30 9 C 2.871818 0.954372 1.068905 0
M  V30 10 N 3.481022 2.114119 1.334377 0
M  V30 11 C 2.778325 3.126098 1.906418 0
M  V30 12 C 1.463318 2.994145 2.219754 0
M  V30 13 C 0.481542 3.781018 2.784611 0
M  V30 14 C 0.501330 5.067502 3.260014 0
M  V30 15 C -0.611425 5.662811 3.789389 0
M  V30 16 N -1.737363 4.924650 3.823995 0
M  V30 17 C -1.750220 3.660861 3.355181 0
M  V30 18 F -2.935411 3.010750 3.439058 0
M  V30 19 C -0.665127 3.005483 2.810973 0
M  V30 20 N -0.482588 1.774391 2.300489 0
M  V30 21 C -1.440595 0.719536 2.170420 0
M  V30 22 C -2.582895 0.981370 1.238525 0
M  V30 23 C -3.813134 0.370981 1.865231 0
M  V30 24 C -3.423866 -0.141112 3.231946 0
M  V30 25 C -1.968440 0.155529 3.447827 0
M  V30 26 C 0.838471 1.797181 1.944695 0
M  V30 27 N 1.569175 0.813984 1.375683 0
M  V30 28 N 1.499364 -1.460465 0.544551 0
M  V30 29 C 0.739042 -2.555059 0.344950 0
M  V30 30 N -0.133240 -5.073177 -2.163598 0
M  V30 31 C -1.095934 -4.031478 -2.308392 0
M  V30 32 C -1.207290 -3.706999 -3.797651 0
M  V30 33 N -1.045426 -4.912875 -4.605105 0
M  V30 34 C 0.357108 -5.274690 -4.526632 0
M  V30 35 C 0.926067 -5.011684 -3.150842 0
M  V30 36 H 3.184664 -4.462238 -1.042544 0
M  V30 37 H 4.512484 -2.430213 -0.648943 0
M  V30 38 H 4.521497 -0.120359 0.212217 0
M  V30 39 H 3.254233 4.071844 2.128658 0
M  V30 40 H 1.417800 5.632843 3.218589 0
M  V30 41 H -0.549982 6.676252 4.151267 0
M  V30 42 H -0.876051 -0.132945 1.686719 0
M  V30 43 H -2.708453 2.040940 0.938056 0
M  V30 44 H -2.486800 0.447093 0.246264 0
M  V30 45 H -4.335906 -0.359360 1.249405 0
M  V30 46 H -4.539831 1.211900 2.043943 0
M  V30 47 H -4.025546 0.308616 4.054642 0
M  V30 48 H -3.672581 -1.221718 3.229630 0
M  V30 49 H -1.505420 -0.841181 3.714144 0
M  V30 50 H -1.756198 0.769961 4.353478 0
M  V30 51 H -0.310806 -2.643216 0.601523 0
M  V30 52 H -2.088614 -4.284345 -1.904472 0
M  V30 53 H -0.664697 -3.119235 -1.829042 0
M  V30 54 H -0.352299 -3.042373 -4.061364 0
M  V30 55 H -2.134713 -3.173812 -4.037565 0
M  V30 56 H -1.219302 -4.597129 -5.591990 0
M  V30 57 H 0.544171 -6.334315 -4.759490 0
M  V30 58 H 0.952870 -4.682289 -5.258612 0
M  V30 59 H 1.299777 -3.967173 -3.148799 0
M  V30 60 H 1.774720 -5.671795 -2.892306 0
M  V30 END ATOM
M  V30 BEGIN BOND
M  V30 1 2 1 2
M  V30 2 2 2 3
M  V30 3 1 2 4
M  V30 4 2 4 5
M  V30 5 1 5 6
M  V30 6 2 6 7
M  V30 7 1 7 8
M  V30 8 1 8 9
M  V30 9 2 9 10
M  V30 10 1 10 11
M  V30 11 2 11 12
M  V30 12 1 12 13
M  V30 13 2 13 14
M  V30 14 1 14 15
M  V30 15 2 15 16
M  V30 16 1 16 17
M  V30 17 1 17 18
M  V30 18 2 17 19
M  V30 19 1 19 20
M  V30 20 1 20 21
M  V30 21 1 21 22
M  V30 22 1 22 23
M  V30 23 1 23 24
M  V30 24 1 24 25
M  V30 25 1 20 26
M  V30 26 2 26 27
M  V30 27 1 7 28
M  V30 28 2 28 29
M  V30 29 1 2 30
M  V30 30 1 30 31
M  V30 31 1 31 32
M  V30 32 1 32 33
M  V30 33 1 33 34
M  V30 34 1 34 35
M  V30 35 1 29 4
M  V30 36 1 35 30
M  V30 37 1 27 9
M  V30 38 1 26 12
M  V30 39 1 19 13
M  V30 40 1 25 21
M  V30 41 1 5 36
M  V30 42 1 6 37
M  V30 43 1 8 38
M  V30 44 1 11 39
M  V30 45 1 14 40
M  V30 46 1 15 41
M  V30 47 1 21 42
M  V30 48 1 22 43
M  V30 49 1 22 44
M  V30 50 1 23 45
M  V30 51 1 23 46
M  V30 52 1 24 47
M  V30 53 1 24 48
M  V30 54 1 25 49
M  V30 55 1 25 50
M  V30 56 1 29 51
M  V30 57 1 31 52
M  V30 58 1 31 53
M  V30 59 1 32 54
M  V30 60 1 32 55
M  V30 61 1 33 56
M  V30 62 1 34 57
M  V30 63 1 34 58
M  V30 64 1 35 59
M  V30 65 1 35 60
M  V30 END BOND
M  V30 END CTAB
M  END
>  <Dataset>  (930) 
ChEMBL_Kinases

>  <Ligand_Instance>  (930) 
nan

>  <PDB_ID>  (930) 
nan

>  <Standardized_SMILES>  (930) 
O=S(=O)(c1ccc(Nc2ncc3c4ccnc(F)c4n(C4CCCC4)c3n2)nc1)N1CCNCC1

>  <Name>  (930) 
nan

>  <Pocket>  (930) 
nan

>  <ATP_Site>  (930) 
nan

>  <Peripheral>  (930) 
nan

>  <Num_H_Atoms_ProtBoundConf>  (930) 
nan

>  <Num_Resolved_Atoms>  (930) 
nan

>  <Num_Not_Resolved_Atoms>  (930) 
nan

$$$$
CHEMBL4457980
     RDKit          3D

  0  0  0  0  0  0  0  0  0  0999 V3000
M  V30 BEGIN CTAB
M  V30 COUNTS 67 70 0 0 0
M  V30 BEGIN ATOM
M  V30 1 C 3.111106 -3.392769 5.086588 0
M  V30 2 C 3.297350 -1.901898 4.868736 0
M  V30 3 C 4.700000 -1.567539 5.351002 0
M  V30 4 C 3.147198 -1.546515 3.420695 0
M  V30 5 C 1.734706 -1.626330 2.932164 0
M  V30 6 N 1.643277 -0.917089 1.649359 0
M  V30 7 C 1.016172 -1.560196 0.577400 0
M  V30 8 O 0.540853 -2.701815 0.693892 0
M  V30 9 C 0.952335 -0.813291 -0.666213 0
M  V30 10 C 0.063438 -1.205584 -1.652111 0
M  V30 11 C 0.046379 -0.456919 -2.831479 0
M  V30 12 C 0.858947 0.638521 -3.063617 0
M  V30 13 N 0.615843 1.283479 -4.333686 0
M  V30 14 C -0.774809 1.400788 -4.710909 0
M  V30 15 N -1.234335 1.818175 -5.922147 0
M  V30 16 C -2.549483 1.924009 -6.166858 0
M  V30 17 C -3.501579 1.625515 -5.234074 0
M  V30 18 N -4.904873 1.684433 -5.321804 0 CHG=1 VAL=4
M  V30 19 O -5.654008 1.937590 -4.381617 0
M  V30 20 O -5.673990 1.471467 -6.458377 0 CHG=-1 VAL=1
M  V30 21 C -3.060646 1.206260 -4.013027 0
M  V30 22 N -3.727246 0.804275 -2.792670 0
M  V30 23 C -3.790151 -0.606604 -2.638753 0
M  V30 24 C -3.533109 -1.537206 -3.620469 0
M  V30 25 C -3.591976 -2.886180 -3.366522 0
M  V30 26 C -3.908275 -3.380228 -2.129343 0
M  V30 27 C -4.178019 -2.505513 -1.100066 0
M  V30 28 Cl -4.571215 -3.132316 0.483838 0
M  V30 29 C -4.112142 -1.143784 -1.382202 0
M  V30 30 N -1.737298 1.119463 -3.825240 0
M  V30 31 C 1.744077 1.028853 -2.086728 0
M  V30 32 C 1.749096 0.286457 -0.935452 0
M  V30 33 C 0.744956 -1.015071 3.877536 0
M  V30 34 C 1.330458 -0.479338 5.157118 0
M  V30 35 C 0.169887 -0.571160 6.172154 0
M  V30 36 C 1.633752 0.979180 4.990174 0
M  V30 37 N 2.372886 -1.250872 5.729693 0
M  V30 38 O 2.018168 -1.978867 6.810575 0 RAD=2 VAL=1
M  V30 39 H 2.078251 -3.702564 4.793317 0
M  V30 40 H 3.179350 -3.567235 6.194032 0
M  V30 41 H 3.875455 -3.991792 4.547283 0
M  V30 42 H 4.659773 -0.779583 6.105096 0
M  V30 43 H 5.323487 -1.343992 4.459388 0
M  V30 44 H 5.194861 -2.457724 5.831555 0
M  V30 45 H 3.565791 -0.503147 3.309786 0
M  V30 46 H 3.777823 -2.188127 2.789477 0
M  V30 47 H 1.469678 -2.679304 2.775524 0
M  V30 48 H 2.081253 0.027916 1.722282 0
M  V30 49 H -0.536761 -2.057232 -1.414828 0
M  V30 50 H -0.710727 -0.916114 -3.502821 0
M  V30 51 H 1.326122 1.665929 -5.001416 0
M  V30 52 H -2.932842 2.253834 -7.126887 0
M  V30 53 H -4.141364 1.414249 -2.057934 0
M  V30 54 H -3.290272 -1.072527 -4.587020 0
M  V30 55 H -3.370917 -3.526933 -4.210932 0
M  V30 56 H -3.932747 -4.435223 -2.000209 0
M  V30 57 H -4.329022 -0.472720 -0.562523 0
M  V30 58 H 2.352506 1.879407 -2.306083 0
M  V30 59 H 2.471416 0.626820 -0.175163 0
M  V30 60 H -0.026465 -1.809313 4.100188 0
M  V30 61 H 0.173671 -0.238527 3.341895 0
M  V30 62 H -0.258572 -1.615821 6.095082 0
M  V30 63 H -0.563052 0.198073 5.831621 0
M  V30 64 H 0.563338 -0.366257 7.169610 0
M  V30 65 H 0.805730 1.592190 5.400038 0
M  V30 66 H 2.556920 1.317279 5.509046 0
M  V30 67 H 1.660346 1.216843 3.907813 0
M  V30 END ATOM
M  V30 BEGIN BOND
M  V30 1 1 1 2
M  V30 2 1 2 3
M  V30 3 1 2 4
M  V30 4 1 4 5
M  V30 5 1 5 6
M  V30 6 1 6 7
M  V30 7 2 7 8
M  V30 8 1 7 9
M  V30 9 2 9 10
M  V30 10 1 10 11
M  V30 11 2 11 12
M  V30 12 1 12 13
M  V30 13 1 13 14
M  V30 14 2 14 15
M  V30 15 1 15 16
M  V30 16 2 16 17
M  V30 17 1 17 18
M  V30 18 2 18 19
M  V30 19 1 18 20
M  V30 20 1 17 21
M  V30 21 1 21 22
M  V30 22 1 22 23
M  V30 23 2 23 24
M  V30 24 1 24 25
M  V30 25 2 25 26
M  V30 26 1 26 27
M  V30 27 1 27 28
M  V30 28 2 27 29
M  V30 29 2 21 30
M  V30 30 1 12 31
M  V30 31 2 31 32
M  V30 32 1 5 33
M  V30 33 1 33 34
M  V30 34 1 34 35
M  V30 35 1 34 36
M  V30 36 1 34 37
M  V30 37 1 37 38
M  V30 38 1 37 2
M  V30 39 1 32 9
M  V30 40 1 30 14
M  V30 41 1 29 23
M  V30 42 1 1 39
M  V30 43 1 1 40
M  V30 44 1 1 41
M  V30 45 1 3 42
M  V30 46 1 3 43
M  V30 47 1 3 44
M  V30 48 1 4 45
M  V30 49 1 4 46
M  V30 50 1 5 47
M  V30 51 1 6 48
M  V30 52 1 10 49
M  V30 53 1 11 50
M  V30 54 1 13 51
M  V30 55 1 16 52
M  V30 56 1 22 53
M  V30 57 1 24 54
M  V30 58 1 25 55
M  V30 59 1 26 56
M  V30 60 1 29 57
M  V30 61 1 31 58
M  V30 62 1 32 59
M  V30 63 1 33 60
M  V30 64 1 33 61
M  V30 65 1 35 62
M  V30 66 1 35 63
M  V30 67 1 35 64
M  V30 68 1 36 65
M  V30 69 1 36 66
M  V30 70 1 36 67
M  V30 END BOND
M  V30 END CTAB
M  END
>  <Dataset>  (931) 
ChEMBL_Kinases

>  <Ligand_Instance>  (931) 
nan

>  <PDB_ID>  (931) 
nan

>  <Standardized_SMILES>  (931) 
CC1(C)CC(NC(=O)c2ccc(Nc3ncc([N+](=O)[O-])c(Nc4cccc(Cl)c4)n3)cc2)CC(C)(C)N1[O]

>  <Name>  (931) 
nan

>  <Pocket>  (931) 
nan

>  <ATP_Site>  (931) 
nan

>  <Peripheral>  (931) 
nan

>  <Num_H_Atoms_ProtBoundConf>  (931) 
nan

>  <Num_Resolved_Atoms>  (931) 
nan

>  <Num_Not_Resolved_Atoms>  (931) 
nan

$$$$
CHEMBL2393423
     RDKit          3D

  0  0  0  0  0  0  0  0  0  0999 V3000
M  V30 BEGIN CTAB
M  V30 COUNTS 41 42 0 0 0
M  V30 BEGIN ATOM
M  V30 1 C -1.959210 -4.823315 3.337903 0
M  V30 2 O -1.743420 -3.429911 3.490443 0
M  V30 3 C -0.691625 -2.781203 2.862766 0
M  V30 4 C 0.180939 -3.487756 2.064119 0
M  V30 5 C 1.199180 -2.766617 1.477167 0
M  V30 6 C 1.418172 -1.390660 1.623452 0
M  V30 7 C 2.552810 -0.798242 0.928046 0
M  V30 8 C 3.784525 -1.432428 1.024755 0
M  V30 9 S 4.884500 -0.420033 0.064082 0
M  V30 10 C 3.663445 0.801049 -0.424672 0
M  V30 11 N 3.959528 1.899801 -1.231228 0
M  V30 12 C 2.509306 0.349983 0.177958 0
M  V30 13 C 1.318214 1.158128 -0.045664 0
M  V30 14 O 0.803628 2.132122 0.558898 0
M  V30 15 O 0.563715 0.806398 -1.156455 0
M  V30 16 C -0.626311 1.462944 -1.549206 0
M  V30 17 C -1.805531 0.520261 -1.641689 0
M  V30 18 C -0.351098 1.996460 -2.952503 0
M  V30 19 C 0.504523 -0.763053 2.434861 0
M  V30 20 C -0.533135 -1.427857 3.048558 0
M  V30 21 O -1.422458 -0.760975 3.850663 0
M  V30 22 C -1.371892 0.616544 4.121128 0
M  V30 23 H -2.333642 -5.048245 2.308386 0
M  V30 24 H -2.649671 -5.205540 4.097347 0
M  V30 25 H -0.965999 -5.311375 3.448192 0
M  V30 26 H 0.101168 -4.550909 1.885348 0
M  V30 27 H 1.893574 -3.335044 0.840224 0
M  V30 28 H 4.069561 -2.321671 1.539546 0
M  V30 29 H 3.473674 1.764560 -2.153905 0
M  V30 30 H 4.584868 2.667179 -0.842746 0
M  V30 31 H -0.921079 2.295472 -0.894779 0
M  V30 32 H -1.482929 -0.496388 -1.934765 0
M  V30 33 H -2.444847 0.542327 -0.730694 0
M  V30 34 H -2.451864 0.893313 -2.469601 0
M  V30 35 H -0.042380 1.091757 -3.549858 0
M  V30 36 H 0.535166 2.640023 -2.873330 0
M  V30 37 H -1.235578 2.464658 -3.406384 0
M  V30 38 H 0.648343 0.298940 2.570688 0
M  V30 39 H -0.304725 0.960374 4.248511 0
M  V30 40 H -1.886866 1.220660 3.329705 0
M  V30 41 H -1.871746 0.872221 5.079815 0
M  V30 END ATOM
M  V30 BEGIN BOND
M  V30 1 1 1 2
M  V30 2 1 2 3
M  V30 3 2 3 4
M  V30 4 1 4 5
M  V30 5 2 5 6
M  V30 6 1 6 7
M  V30 7 2 7 8
M  V30 8 1 8 9
M  V30 9 1 9 10
M  V30 10 1 10 11
M  V30 11 2 10 12
M  V30 12 1 12 13
M  V30 13 2 13 14
M  V30 14 1 13 15
M  V30 15 1 15 16
M  V30 16 1 16 17
M  V30 17 1 16 18
M  V30 18 1 6 19
M  V30 19 2 19 20
M  V30 20 1 20 21
M  V30 21 1 21 22
M  V30 22 1 20 3
M  V30 23 1 12 7
M  V30 24 1 1 23
M  V30 25 1 1 24
M  V30 26 1 1 25
M  V30 27 1 4 26
M  V30 28 1 5 27
M  V30 29 1 8 28
M  V30 30 1 11 29
M  V30 31 1 11 30
M  V30 32 1 16 31
M  V30 33 1 17 32
M  V30 34 1 17 33
M  V30 35 1 17 34
M  V30 36 1 18 35
M  V30 37 1 18 36
M  V30 38 1 18 37
M  V30 39 1 19 38
M  V30 40 1 22 39
M  V30 41 1 22 40
M  V30 42 1 22 41
M  V30 END BOND
M  V30 END CTAB
M  END
>  <Dataset>  (932) 
ChEMBL_Kinases

>  <Ligand_Instance>  (932) 
nan

>  <PDB_ID>  (932) 
nan

>  <Standardized_SMILES>  (932) 
COc1ccc(-c2csc(N)c2C(=O)OC(C)C)cc1OC

>  <Name>  (932) 
nan

>  <Pocket>  (932) 
nan

>  <ATP_Site>  (932) 
nan

>  <Peripheral>  (932) 
nan

>  <Num_H_Atoms_ProtBoundConf>  (932) 
nan

>  <Num_Resolved_Atoms>  (932) 
nan

>  <Num_Not_Resolved_Atoms>  (932) 
nan

$$$$
CHEMBL3703154
     RDKit          3D

  0  0  0  0  0  0  0  0  0  0999 V3000
M  V30 BEGIN CTAB
M  V30 COUNTS 48 52 0 0 0
M  V30 BEGIN ATOM
M  V30 1 N 0.243241 -5.402159 1.975365 0
M  V30 2 C -0.796575 -4.686692 1.301187 0
M  V30 3 C -0.331052 -3.427245 0.731015 0
M  V30 4 C -0.605072 -2.903627 -0.513134 0
M  V30 5 C -0.149264 -1.701962 -1.008451 0
M  V30 6 C 0.656401 -0.972549 -0.159008 0
M  V30 7 C 1.214883 0.317388 -0.547078 0
M  V30 8 N 2.099167 0.644031 -1.511962 0
M  V30 9 C 2.324797 1.972391 -1.495687 0
M  V30 10 C 3.108714 2.871125 -2.220247 0
M  V30 11 C 3.091023 4.219614 -1.914012 0
M  V30 12 C 2.314411 4.746881 -0.895977 0
M  V30 13 O 2.326106 6.101183 -0.623294 0
M  V30 14 C 1.540749 3.829875 -0.186797 0
M  V30 15 N 1.579973 2.523483 -0.509061 0
M  V30 16 C 0.883475 1.515381 0.092441 0
M  V30 17 C -0.060547 1.660290 1.219175 0
M  V30 18 C -1.384261 1.314367 0.931566 0
M  V30 19 C -2.244679 1.457487 1.994629 0
M  V30 20 C -1.837183 1.905746 3.244022 0
M  V30 21 C -0.521222 2.225561 3.448334 0
M  V30 22 C 0.403630 2.110075 2.435988 0
M  V30 23 C 0.978333 -1.440798 1.120572 0
M  V30 24 C 0.482993 -2.657144 1.548834 0
M  V30 25 C -2.091154 -4.571056 2.121518 0
M  V30 26 C -2.424374 -5.958990 1.615531 0
M  V30 27 C -1.633335 -5.554625 0.360373 0
M  V30 28 H 0.225359 -6.428656 1.867889 0
M  V30 29 H 0.383603 -5.050888 2.928764 0
M  V30 30 H -1.235093 -3.494278 -1.156602 0
M  V30 31 H -0.403376 -1.353214 -1.992850 0
M  V30 32 H 3.711908 2.445980 -3.013630 0
M  V30 33 H 3.724991 4.879113 -2.514074 0
M  V30 34 H 1.619235 6.708519 -0.988971 0
M  V30 35 H 0.938568 4.220698 0.598368 0
M  V30 36 H -1.660795 0.970349 -0.053330 0
M  V30 37 H -3.282915 1.197010 1.804408 0
M  V30 38 H -2.591354 1.984393 4.015829 0
M  V30 39 H -0.189818 2.579333 4.427825 0
M  V30 40 H 1.464342 2.349172 2.537868 0
M  V30 41 H 1.622646 -0.850802 1.790705 0
M  V30 42 H 0.771415 -2.970717 2.563238 0
M  V30 43 H -2.758278 -3.823167 1.693271 0
M  V30 44 H -1.915192 -4.501608 3.212746 0
M  V30 45 H -3.501691 -6.124012 1.407019 0
M  V30 46 H -1.904868 -6.742758 2.192893 0
M  V30 47 H -2.327159 -4.926390 -0.247964 0
M  V30 48 H -1.116682 -6.373322 -0.134520 0
M  V30 END ATOM
M  V30 BEGIN BOND
M  V30 1 1 1 2
M  V30 2 1 2 3
M  V30 3 2 3 4
M  V30 4 1 4 5
M  V30 5 2 5 6
M  V30 6 1 6 7
M  V30 7 1 7 8
M  V30 8 2 8 9
M  V30 9 1 9 10
M  V30 10 2 10 11
M  V30 11 1 11 12
M  V30 12 1 12 13
M  V30 13 2 12 14
M  V30 14 1 14 15
M  V30 15 1 15 16
M  V30 16 1 16 17
M  V30 17 2 17 18
M  V30 18 1 18 19
M  V30 19 2 19 20
M  V30 20 1 20 21
M  V30 21 2 21 22
M  V30 22 1 6 23
M  V30 23 2 23 24
M  V30 24 1 2 25
M  V30 25 1 25 26
M  V30 26 1 26 27
M  V30 27 1 27 2
M  V30 28 1 24 3
M  V30 29 2 16 7
M  V30 30 1 22 17
M  V30 31 1 15 9
M  V30 32 1 1 28
M  V30 33 1 1 29
M  V30 34 1 4 30
M  V30 35 1 5 31
M  V30 36 1 10 32
M  V30 37 1 11 33
M  V30 38 1 13 34
M  V30 39 1 14 35
M  V30 40 1 18 36
M  V30 41 1 19 37
M  V30 42 1 20 38
M  V30 43 1 21 39
M  V30 44 1 22 40
M  V30 45 1 23 41
M  V30 46 1 24 42
M  V30 47 1 25 43
M  V30 48 1 25 44
M  V30 49 1 26 45
M  V30 50 1 26 46
M  V30 51 1 27 47
M  V30 52 1 27 48
M  V30 END BOND
M  V30 END CTAB
M  END
>  <Dataset>  (933) 
ChEMBL_Kinases

>  <Ligand_Instance>  (933) 
nan

>  <PDB_ID>  (933) 
nan

>  <Standardized_SMILES>  (933) 
NC1(c2ccc(-c3nc4ccc(O)cn4c3-c3ccccc3)cc2)CCC1

>  <Name>  (933) 
nan

>  <Pocket>  (933) 
nan

>  <ATP_Site>  (933) 
nan

>  <Peripheral>  (933) 
nan

>  <Num_H_Atoms_ProtBoundConf>  (933) 
nan

>  <Num_Resolved_Atoms>  (933) 
nan

>  <Num_Not_Resolved_Atoms>  (933) 
nan

$$$$
CHEMBL220174
     RDKit          3D

  0  0  0  0  0  0  0  0  0  0999 V3000
M  V30 BEGIN CTAB
M  V30 COUNTS 49 53 0 0 0
M  V30 BEGIN ATOM
M  V30 1 O 0.560014 0.783220 3.502740 0
M  V30 2 C 0.688891 0.020770 2.522953 0
M  V30 3 N 1.766433 0.373501 1.653561 0
M  V30 4 C 2.621701 1.489446 1.873336 0
M  V30 5 C 2.712887 2.481540 0.806867 0
M  V30 6 C 1.870226 2.920888 -0.203078 0
M  V30 7 C 2.274875 3.922504 -1.089361 0
M  V30 8 C 3.512798 4.509045 -0.998790 0
M  V30 9 C 4.375822 4.108748 -0.020644 0
M  V30 10 C 3.963969 3.105916 0.862601 0
M  V30 11 C 4.708055 2.487403 2.014948 0
M  V30 12 C 4.064420 1.111725 2.107515 0
M  V30 13 O 4.177130 0.602135 3.415534 0
M  V30 14 C -0.133711 -1.147901 2.207642 0
M  V30 15 C -0.059192 -2.041461 1.146793 0
M  V30 16 C -1.084227 -2.975989 1.322622 0
M  V30 17 C -1.180392 -4.016949 0.299487 0
M  V30 18 N -0.208369 -4.909825 0.020812 0
M  V30 19 N -0.653422 -5.700868 -0.968377 0
M  V30 20 C -1.897258 -5.300104 -1.302176 0
M  V30 21 C -2.269331 -4.227701 -0.515466 0
M  V30 22 C -3.542506 -3.512104 -0.571987 0
M  V30 23 C -4.611244 -4.371387 -0.291988 0
M  V30 24 C -5.922756 -3.880722 -0.294536 0
M  V30 25 C -6.192231 -2.550040 -0.570546 0
M  V30 26 C -5.112335 -1.763365 -0.835212 0
M  V30 27 Cl -5.349961 -0.046497 -1.199716 0
M  V30 28 C -3.801057 -2.187702 -0.847537 0
M  V30 29 C -1.757508 -2.626643 2.488062 0
M  V30 30 N -1.159718 -1.528181 2.988833 0
M  V30 31 H 1.987861 -0.188638 0.784110 0
M  V30 32 H 2.295462 2.013176 2.810210 0
M  V30 33 H 0.870701 2.487448 -0.321456 0
M  V30 34 H 1.634145 4.282310 -1.886182 0
M  V30 35 H 3.881340 5.285711 -1.652651 0
M  V30 36 H 5.372122 4.531725 0.107378 0
M  V30 37 H 5.788621 2.439902 1.855968 0
M  V30 38 H 4.391832 3.041074 2.924945 0
M  V30 39 H 4.480438 0.418989 1.374439 0
M  V30 40 H 4.102466 1.344247 4.077815 0
M  V30 41 H 0.717873 -1.879667 0.417829 0
M  V30 42 H 0.734870 -5.038715 0.436589 0
M  V30 43 H -2.464551 -5.795534 -2.085458 0
M  V30 44 H -4.544146 -5.437318 -0.058752 0
M  V30 45 H -6.773763 -4.535254 -0.078317 0
M  V30 46 H -7.197633 -2.185313 -0.570089 0
M  V30 47 H -2.917442 -1.627937 -1.045408 0
M  V30 48 H -2.577177 -3.267596 2.744508 0
M  V30 49 H -1.552119 -1.125462 3.885230 0
M  V30 END ATOM
M  V30 BEGIN BOND
M  V30 1 2 1 2
M  V30 2 1 2 3
M  V30 3 1 3 4
M  V30 4 1 4 5
M  V30 5 2 5 6
M  V30 6 1 6 7
M  V30 7 2 7 8
M  V30 8 1 8 9
M  V30 9 2 9 10
M  V30 10 1 10 11
M  V30 11 1 11 12
M  V30 12 1 12 13
M  V30 13 1 2 14
M  V30 14 2 14 15
M  V30 15 1 15 16
M  V30 16 1 16 17
M  V30 17 1 17 18
M  V30 18 1 18 19
M  V30 19 2 19 20
M  V30 20 1 20 21
M  V30 21 1 21 22
M  V30 22 2 22 23
M  V30 23 1 23 24
M  V30 24 2 24 25
M  V30 25 1 25 26
M  V30 26 1 26 27
M  V30 27 2 26 28
M  V30 28 2 16 29
M  V30 29 1 29 30
M  V30 30 1 12 4
M  V30 31 1 30 14
M  V30 32 1 10 5
M  V30 33 2 21 17
M  V30 34 1 28 22
M  V30 35 1 3 31
M  V30 36 1 4 32
M  V30 37 1 6 33
M  V30 38 1 7 34
M  V30 39 1 8 35
M  V30 40 1 9 36
M  V30 41 1 11 37
M  V30 42 1 11 38
M  V30 43 1 12 39
M  V30 44 1 13 40
M  V30 45 1 15 41
M  V30 46 1 18 42
M  V30 47 1 20 43
M  V30 48 1 23 44
M  V30 49 1 24 45
M  V30 50 1 25 46
M  V30 51 1 28 47
M  V30 52 1 29 48
M  V30 53 1 30 49
M  V30 END BOND
M  V30 END CTAB
M  END
>  <Dataset>  (934) 
ChEMBL_Kinases

>  <Ligand_Instance>  (934) 
nan

>  <PDB_ID>  (934) 
nan

>  <Standardized_SMILES>  (934) 
O=C(NC1c2ccccc2CC1O)c1cc(-c2[nH]ncc2-c2cccc(Cl)c2)c[nH]1

>  <Name>  (934) 
nan

>  <Pocket>  (934) 
nan

>  <ATP_Site>  (934) 
nan

>  <Peripheral>  (934) 
nan

>  <Num_H_Atoms_ProtBoundConf>  (934) 
nan

>  <Num_Resolved_Atoms>  (934) 
nan

>  <Num_Not_Resolved_Atoms>  (934) 
nan

$$$$
CHEMBL2393431
     RDKit          3D

  0  0  0  0  0  0  0  0  0  0999 V3000
M  V30 BEGIN CTAB
M  V30 COUNTS 49 51 0 0 0
M  V30 BEGIN ATOM
M  V30 1 C 2.422464 -3.536583 2.134482 0
M  V30 2 O 3.065221 -2.291645 1.974937 0
M  V30 3 C 2.890177 -1.505837 0.844298 0
M  V30 4 C 3.522365 -0.289604 0.695985 0
M  V30 5 C 3.305905 0.442888 -0.453138 0
M  V30 6 C 2.473485 -0.017039 -1.449985 0
M  V30 7 C 1.814612 -1.219699 -1.361832 0
M  V30 8 C 0.881844 -1.832719 -2.335524 0
M  V30 9 O -0.421429 -1.552163 -1.972038 0
M  V30 10 C -0.948251 -0.289460 -1.864913 0
M  V30 11 O -0.331250 0.778860 -2.079421 0
M  V30 12 C -2.349409 -0.317537 -1.461803 0
M  V30 13 C -2.828952 -0.301775 -0.179595 0
M  V30 14 C -2.062863 -0.245901 1.031222 0
M  V30 15 C -2.328981 -1.125591 2.087064 0
M  V30 16 C -1.640480 -1.126664 3.281998 0
M  V30 17 C -0.625132 -0.210466 3.461615 0
M  V30 18 O 0.073306 -0.207401 4.666428 0
M  V30 19 C -0.312873 -1.159176 5.638212 0
M  V30 20 C -0.309489 0.688744 2.458231 0
M  V30 21 O 0.708952 1.561127 2.719229 0
M  V30 22 C 1.218773 2.556113 1.888404 0
M  V30 23 C -1.037868 0.635624 1.287716 0
M  V30 24 C -4.222876 -0.337892 -0.025548 0
M  V30 25 S -4.891605 -0.396322 -1.754578 0
M  V30 26 C -3.254003 -0.367195 -2.512527 0
M  V30 27 N -3.122579 -0.395295 -3.905841 0
M  V30 28 C 2.070750 -1.907166 -0.190017 0
M  V30 29 H 2.863047 -4.018188 3.053465 0
M  V30 30 H 1.340460 -3.463975 2.323844 0
M  V30 31 H 2.609824 -4.227395 1.302813 0
M  V30 32 H 4.181638 0.098326 1.460790 0
M  V30 33 H 3.795455 1.407973 -0.592317 0
M  V30 34 H 2.323182 0.560957 -2.350192 0
M  V30 35 H 1.130232 -1.535280 -3.378608 0
M  V30 36 H 1.024362 -2.940635 -2.254477 0
M  V30 37 H -3.131907 -1.848990 1.943164 0
M  V30 38 H -1.936879 -1.860166 4.033194 0
M  V30 39 H -1.398498 -1.010116 5.825091 0
M  V30 40 H -0.215805 -2.165495 5.143647 0
M  V30 41 H 0.303196 -1.108386 6.548915 0
M  V30 42 H 2.233478 2.294549 1.502250 0
M  V30 43 H 1.357295 3.510154 2.471745 0
M  V30 44 H 0.557174 2.817992 1.051469 0
M  V30 45 H -0.761469 1.348124 0.547644 0
M  V30 46 H -4.851535 -0.336345 0.826743 0
M  V30 47 H -2.568733 -1.154285 -4.371389 0
M  V30 48 H -3.605273 0.376394 -4.430170 0
M  V30 49 H 1.583843 -2.882888 -0.035086 0
M  V30 END ATOM
M  V30 BEGIN BOND
M  V30 1 1 1 2
M  V30 2 1 2 3
M  V30 3 2 3 4
M  V30 4 1 4 5
M  V30 5 2 5 6
M  V30 6 1 6 7
M  V30 7 1 7 8
M  V30 8 1 8 9
M  V30 9 1 9 10
M  V30 10 2 10 11
M  V30 11 1 10 12
M  V30 12 1 12 13
M  V30 13 1 13 14
M  V30 14 2 14 15
M  V30 15 1 15 16
M  V30 16 2 16 17
M  V30 17 1 17 18
M  V30 18 1 18 19
M  V30 19 1 17 20
M  V30 20 1 20 21
M  V30 21 1 21 22
M  V30 22 2 20 23
M  V30 23 2 13 24
M  V30 24 1 24 25
M  V30 25 1 25 26
M  V30 26 1 26 27
M  V30 27 2 7 28
M  V30 28 1 28 3
M  V30 29 2 26 12
M  V30 30 1 23 14
M  V30 31 1 1 29
M  V30 32 1 1 30
M  V30 33 1 1 31
M  V30 34 1 4 32
M  V30 35 1 5 33
M  V30 36 1 6 34
M  V30 37 1 8 35
M  V30 38 1 8 36
M  V30 39 1 15 37
M  V30 40 1 16 38
M  V30 41 1 19 39
M  V30 42 1 19 40
M  V30 43 1 19 41
M  V30 44 1 22 42
M  V30 45 1 22 43
M  V30 46 1 22 44
M  V30 47 1 23 45
M  V30 48 1 24 46
M  V30 49 1 27 47
M  V30 50 1 27 48
M  V30 51 1 28 49
M  V30 END BOND
M  V30 END CTAB
M  END
>  <Dataset>  (935) 
ChEMBL_Kinases

>  <Ligand_Instance>  (935) 
nan

>  <PDB_ID>  (935) 
nan

>  <Standardized_SMILES>  (935) 
COc1cccc(COC(=O)c2c(-c3ccc(OC)c(OC)c3)csc2N)c1

>  <Name>  (935) 
nan

>  <Pocket>  (935) 
nan

>  <ATP_Site>  (935) 
nan

>  <Peripheral>  (935) 
nan

>  <Num_H_Atoms_ProtBoundConf>  (935) 
nan

>  <Num_Resolved_Atoms>  (935) 
nan

>  <Num_Not_Resolved_Atoms>  (935) 
nan

$$$$
CHEMBL3703155
     RDKit          3D

  0  0  0  0  0  0  0  0  0  0999 V3000
M  V30 BEGIN CTAB
M  V30 COUNTS 48 52 0 0 0
M  V30 BEGIN ATOM
M  V30 1 N 0.040455 -5.324223 1.662958 0
M  V30 2 C -1.000204 -4.625602 0.930410 0
M  V30 3 C -0.540401 -3.304256 0.429482 0
M  V30 4 C -0.945200 -2.681005 -0.731335 0
M  V30 5 C -0.432150 -1.447510 -1.079437 0
M  V30 6 C 0.497137 -0.836821 -0.250300 0
M  V30 7 C 1.037456 0.462792 -0.608974 0
M  V30 8 N 1.725968 1.028745 -1.638817 0
M  V30 9 C 1.939760 2.325717 -1.376566 0
M  V30 10 C 2.594739 3.265281 -2.149895 0
M  V30 11 O 3.136669 2.905654 -3.378860 0
M  V30 12 C 2.693720 4.561876 -1.668475 0
M  V30 13 C 2.143883 4.881933 -0.444732 0
M  V30 14 C 1.511957 3.872279 0.247712 0
M  V30 15 N 1.399918 2.605284 -0.193418 0
M  V30 16 C 0.828145 1.480026 0.321698 0
M  V30 17 C 0.152209 1.510080 1.635202 0
M  V30 18 C -1.199514 1.268177 1.760546 0
M  V30 19 C -1.727506 1.320275 3.040260 0
M  V30 20 C -0.921256 1.602767 4.125581 0
M  V30 21 C 0.431123 1.844624 3.998518 0
M  V30 22 C 0.962018 1.794013 2.726419 0
M  V30 23 C 0.928244 -1.427832 0.919952 0
M  V30 24 C 0.395168 -2.659223 1.236879 0
M  V30 25 C -2.242170 -4.460752 1.768177 0
M  V30 26 C -2.907560 -5.527405 0.944839 0
M  V30 27 C -1.716572 -5.525198 0.018486 0
M  V30 28 H 0.984722 -4.993176 1.364370 0
M  V30 29 H -0.105419 -5.101185 2.692029 0
M  V30 30 H -1.657934 -3.195793 -1.325085 0
M  V30 31 H -0.789373 -1.000500 -2.010430 0
M  V30 32 H 2.492980 2.413470 -4.017281 0
M  V30 33 H 3.205611 5.343088 -2.249346 0
M  V30 34 H 2.230218 5.893663 -0.087717 0
M  V30 35 H 1.092440 4.156799 1.203012 0
M  V30 36 H -1.727647 1.057942 0.835985 0
M  V30 37 H -2.798316 1.125435 3.110889 0
M  V30 38 H -1.411710 1.624249 5.090502 0
M  V30 39 H 1.033093 2.062536 4.871070 0
M  V30 40 H 2.026022 1.981284 2.599352 0
M  V30 41 H 1.658959 -0.911273 1.537858 0
M  V30 42 H 0.778397 -3.075884 2.178271 0
M  V30 43 H -2.104626 -4.704620 2.840725 0
M  V30 44 H -2.715684 -3.445680 1.638620 0
M  V30 45 H -3.845762 -5.140198 0.486502 0
M  V30 46 H -3.039631 -6.436865 1.569102 0
M  V30 47 H -1.328606 -6.561671 -0.095387 0
M  V30 48 H -2.019747 -5.168529 -0.984627 0
M  V30 END ATOM
M  V30 BEGIN BOND
M  V30 1 1 1 2
M  V30 2 1 2 3
M  V30 3 2 3 4
M  V30 4 1 4 5
M  V30 5 2 5 6
M  V30 6 1 6 7
M  V30 7 1 7 8
M  V30 8 2 8 9
M  V30 9 1 9 10
M  V30 10 1 10 11
M  V30 11 2 10 12
M  V30 12 1 12 13
M  V30 13 2 13 14
M  V30 14 1 14 15
M  V30 15 1 15 16
M  V30 16 1 16 17
M  V30 17 2 17 18
M  V30 18 1 18 19
M  V30 19 2 19 20
M  V30 20 1 20 21
M  V30 21 2 21 22
M  V30 22 1 6 23
M  V30 23 2 23 24
M  V30 24 1 2 25
M  V30 25 1 25 26
M  V30 26 1 26 27
M  V30 27 1 27 2
M  V30 28 1 24 3
M  V30 29 2 16 7
M  V30 30 1 22 17
M  V30 31 1 15 9
M  V30 32 1 1 28
M  V30 33 1 1 29
M  V30 34 1 4 30
M  V30 35 1 5 31
M  V30 36 1 11 32
M  V30 37 1 12 33
M  V30 38 1 13 34
M  V30 39 1 14 35
M  V30 40 1 18 36
M  V30 41 1 19 37
M  V30 42 1 20 38
M  V30 43 1 21 39
M  V30 44 1 22 40
M  V30 45 1 23 41
M  V30 46 1 24 42
M  V30 47 1 25 43
M  V30 48 1 25 44
M  V30 49 1 26 45
M  V30 50 1 26 46
M  V30 51 1 27 47
M  V30 52 1 27 48
M  V30 END BOND
M  V30 END CTAB
M  END
>  <Dataset>  (936) 
ChEMBL_Kinases

>  <Ligand_Instance>  (936) 
nan

>  <PDB_ID>  (936) 
nan

>  <Standardized_SMILES>  (936) 
NC1(c2ccc(-c3nc4c(O)cccn4c3-c3ccccc3)cc2)CCC1

>  <Name>  (936) 
nan

>  <Pocket>  (936) 
nan

>  <ATP_Site>  (936) 
nan

>  <Peripheral>  (936) 
nan

>  <Num_H_Atoms_ProtBoundConf>  (936) 
nan

>  <Num_Resolved_Atoms>  (936) 
nan

>  <Num_Not_Resolved_Atoms>  (936) 
nan

$$$$
CHEMBL3703156
     RDKit          3D

  0  0  0  0  0  0  0  0  0  0999 V3000
M  V30 BEGIN CTAB
M  V30 COUNTS 51 55 0 0 0
M  V30 BEGIN ATOM
M  V30 1 N 1.020742 -2.907215 5.275545 0
M  V30 2 C 2.219816 -2.255593 5.737254 0
M  V30 3 O 2.888033 -2.415028 6.772841 0
M  V30 4 C 2.755859 -1.222107 4.838234 0
M  V30 5 C 3.898943 -0.512948 5.144313 0
M  V30 6 C 4.463252 0.466858 4.359672 0
M  V30 7 C 3.768512 0.710491 3.171052 0
M  V30 8 N 2.649139 0.058299 2.808451 0
M  V30 9 C 1.869258 0.168390 1.717495 0
M  V30 10 C 2.001327 1.042011 0.574361 0
M  V30 11 C 1.003352 1.964368 0.332086 0
M  V30 12 C 1.097413 2.812157 -0.749148 0
M  V30 13 C 2.198849 2.742127 -1.601527 0
M  V30 14 C 3.158276 1.798008 -1.300817 0
M  V30 15 C 3.132783 0.917387 -0.238772 0
M  V30 16 C 0.852366 -0.750634 1.873705 0
M  V30 17 C -0.279976 -1.046766 0.968980 0
M  V30 18 C -1.609844 -0.903752 1.308293 0
M  V30 19 C -2.603864 -1.202966 0.400335 0
M  V30 20 C -2.300101 -1.659151 -0.888524 0
M  V30 21 C -3.501099 -1.928220 -1.717498 0
M  V30 22 N -4.600522 -2.490632 -0.919428 0
M  V30 23 C -4.008515 -0.755533 -2.531492 0
M  V30 24 C -4.370465 -1.756286 -3.610497 0
M  V30 25 C -3.292755 -2.664813 -3.001600 0
M  V30 26 C -0.954694 -1.806415 -1.239364 0
M  V30 27 C 0.013572 -1.496331 -0.301387 0
M  V30 28 N 1.051254 -1.392546 3.063586 0
M  V30 29 C 2.178213 -0.874822 3.634755 0
M  V30 30 H 0.227994 -2.444490 5.794720 0
M  V30 31 H 0.904128 -3.681739 4.574540 0
M  V30 32 H 4.431135 -0.717584 6.080964 0
M  V30 33 H 5.359743 1.002741 4.630410 0
M  V30 34 H 4.142022 1.479293 2.474867 0
M  V30 35 H 0.130609 2.057238 0.963367 0
M  V30 36 H 0.377571 3.572343 -1.036443 0
M  V30 37 H 2.337032 3.378565 -2.470473 0
M  V30 38 H 4.026985 1.736661 -1.965485 0
M  V30 39 H 3.922598 0.203554 -0.066430 0
M  V30 40 H -1.834932 -0.551204 2.305894 0
M  V30 41 H -3.608216 -1.059495 0.757685 0
M  V30 42 H -4.203975 -2.972902 -0.065287 0
M  V30 43 H -5.253361 -1.773813 -0.570440 0
M  V30 44 H -4.907999 -0.257483 -2.133426 0
M  V30 45 H -3.267396 -0.037184 -2.882778 0
M  V30 46 H -4.139373 -1.437804 -4.631603 0
M  V30 47 H -5.358897 -2.231515 -3.496507 0
M  V30 48 H -2.349686 -2.478134 -3.513409 0
M  V30 49 H -3.610332 -3.741805 -2.970904 0
M  V30 50 H -0.802497 -2.158081 -2.238948 0
M  V30 51 H 1.025424 -1.652209 -0.696557 0
M  V30 END ATOM
M  V30 BEGIN BOND
M  V30 1 1 1 2
M  V30 2 2 2 3
M  V30 3 1 2 4
M  V30 4 2 4 5
M  V30 5 1 5 6
M  V30 6 2 6 7
M  V30 7 1 7 8
M  V30 8 1 8 9
M  V30 9 1 9 10
M  V30 10 2 10 11
M  V30 11 1 11 12
M  V30 12 2 12 13
M  V30 13 1 13 14
M  V30 14 2 14 15
M  V30 15 2 9 16
M  V30 16 1 16 17
M  V30 17 2 17 18
M  V30 18 1 18 19
M  V30 19 2 19 20
M  V30 20 1 20 21
M  V30 21 1 21 22
M  V30 22 1 21 23
M  V30 23 1 23 24
M  V30 24 1 24 25
M  V30 25 1 20 26
M  V30 26 2 26 27
M  V30 27 1 16 28
M  V30 28 2 28 29
M  V30 29 1 29 4
M  V30 30 1 29 8
M  V30 31 1 15 10
M  V30 32 1 27 17
M  V30 33 1 25 21
M  V30 34 1 1 30
M  V30 35 1 1 31
M  V30 36 1 5 32
M  V30 37 1 6 33
M  V30 38 1 7 34
M  V30 39 1 11 35
M  V30 40 1 12 36
M  V30 41 1 13 37
M  V30 42 1 14 38
M  V30 43 1 15 39
M  V30 44 1 18 40
M  V30 45 1 19 41
M  V30 46 1 22 42
M  V30 47 1 22 43
M  V30 48 1 23 44
M  V30 49 1 23 45
M  V30 50 1 24 46
M  V30 51 1 24 47
M  V30 52 1 25 48
M  V30 53 1 25 49
M  V30 54 1 26 50
M  V30 55 1 27 51
M  V30 END BOND
M  V30 END CTAB
M  END
>  <Dataset>  (937) 
ChEMBL_Kinases

>  <Ligand_Instance>  (937) 
nan

>  <PDB_ID>  (937) 
nan

>  <Standardized_SMILES>  (937) 
NC(=O)c1cccn2c(-c3ccccc3)c(-c3ccc(C4(N)CCC4)cc3)nc12

>  <Name>  (937) 
nan

>  <Pocket>  (937) 
nan

>  <ATP_Site>  (937) 
nan

>  <Peripheral>  (937) 
nan

>  <Num_H_Atoms_ProtBoundConf>  (937) 
nan

>  <Num_Resolved_Atoms>  (937) 
nan

>  <Num_Not_Resolved_Atoms>  (937) 
nan

$$$$
CHEMBL3703157
     RDKit          3D

  0  0  0  0  0  0  0  0  0  0999 V3000
M  V30 BEGIN CTAB
M  V30 COUNTS 51 55 0 0 0
M  V30 BEGIN ATOM
M  V30 1 N -0.374281 -8.350990 -0.856135 0
M  V30 2 C -0.998134 -7.120887 -0.539095 0
M  V30 3 O -2.249922 -7.100593 -0.361214 0
M  V30 4 C -0.164187 -5.926360 -0.431443 0
M  V30 5 C 1.210495 -5.986367 -0.648823 0
M  V30 6 C 1.997998 -4.853805 -0.545496 0
M  V30 7 Cl 3.705347 -4.932434 -0.816248 0
M  V30 8 C 1.372234 -3.645956 -0.216016 0
M  V30 9 N 1.840473 -2.378179 -0.038707 0
M  V30 10 C 0.784359 -1.578064 0.275391 0
M  V30 11 C 0.994116 -0.155281 0.521010 0
M  V30 12 C 1.809865 0.295870 1.560306 0
M  V30 13 C 1.990123 1.659224 1.765301 0
M  V30 14 C 1.368077 2.602825 0.947693 0
M  V30 15 C 1.719515 3.980247 1.370014 0
M  V30 16 N 3.150156 4.109645 1.584265 0
M  V30 17 C 1.114182 5.107098 0.602073 0
M  V30 18 C 0.569201 5.690095 1.885902 0
M  V30 19 C 0.999323 4.448367 2.611662 0
M  V30 20 C 0.566291 2.142931 -0.073344 0
M  V30 21 C 0.383778 0.793770 -0.281543 0
M  V30 22 C -0.350556 -2.361350 0.292420 0
M  V30 23 C -1.677544 -1.843573 0.592517 0
M  V30 24 C -2.029444 -1.268910 1.816187 0
M  V30 25 C -3.327162 -0.827171 1.947308 0
M  V30 26 C -4.258241 -0.934496 0.933005 0
M  V30 27 C -3.895247 -1.504963 -0.271295 0
M  V30 28 C -2.606068 -1.949301 -0.415827 0
M  V30 29 N 0.044670 -3.621615 -0.012659 0
M  V30 30 C -0.731456 -4.716371 -0.110373 0
M  V30 31 H 0.324254 -9.059914 -0.478964 0
M  V30 32 H 0.139810 -9.239159 -0.979900 0
M  V30 33 H 1.697760 -6.899468 -0.900397 0
M  V30 34 H 2.250554 -0.494847 2.141869 0
M  V30 35 H 2.651875 1.822326 2.612830 0
M  V30 36 H 3.347624 3.737344 2.540640 0
M  V30 37 H 3.344131 5.148921 1.531625 0
M  V30 38 H 1.894183 5.811571 0.191117 0
M  V30 39 H 0.292319 4.893063 -0.076162 0
M  V30 40 H 1.107030 6.586658 2.256350 0
M  V30 41 H -0.537490 5.832152 1.903883 0
M  V30 42 H 0.166951 3.724932 2.845505 0
M  V30 43 H 1.639248 4.627311 3.489420 0
M  V30 44 H 0.135553 2.952804 -0.643348 0
M  V30 45 H -0.249269 0.505945 -1.089417 0
M  V30 46 H -1.256821 -1.213506 2.570277 0
M  V30 47 H -3.566947 -0.394504 2.889191 0
M  V30 48 H -5.228267 -0.555083 1.159184 0
M  V30 49 H -4.707372 -1.531408 -0.980861 0
M  V30 50 H -2.371147 -2.390160 -1.382989 0
M  V30 51 H -1.784236 -4.765086 0.037970 0
M  V30 END ATOM
M  V30 BEGIN BOND
M  V30 1 1 1 2
M  V30 2 2 2 3
M  V30 3 1 2 4
M  V30 4 1 4 5
M  V30 5 2 5 6
M  V30 6 1 6 7
M  V30 7 1 6 8
M  V30 8 2 8 9
M  V30 9 1 9 10
M  V30 10 1 10 11
M  V30 11 2 11 12
M  V30 12 1 12 13
M  V30 13 2 13 14
M  V30 14 1 14 15
M  V30 15 1 15 16
M  V30 16 1 15 17
M  V30 17 1 17 18
M  V30 18 1 18 19
M  V30 19 1 14 20
M  V30 20 2 20 21
M  V30 21 2 10 22
M  V30 22 1 22 23
M  V30 23 2 23 24
M  V30 24 1 24 25
M  V30 25 2 25 26
M  V30 26 1 26 27
M  V30 27 2 27 28
M  V30 28 1 22 29
M  V30 29 1 29 30
M  V30 30 2 30 4
M  V30 31 1 29 8
M  V30 32 1 21 11
M  V30 33 1 28 23
M  V30 34 1 19 15
M  V30 35 1 1 31
M  V30 36 1 1 32
M  V30 37 1 5 33
M  V30 38 1 12 34
M  V30 39 1 13 35
M  V30 40 1 16 36
M  V30 41 1 16 37
M  V30 42 1 17 38
M  V30 43 1 17 39
M  V30 44 1 18 40
M  V30 45 1 18 41
M  V30 46 1 19 42
M  V30 47 1 19 43
M  V30 48 1 20 44
M  V30 49 1 21 45
M  V30 50 1 24 46
M  V30 51 1 25 47
M  V30 52 1 26 48
M  V30 53 1 27 49
M  V30 54 1 28 50
M  V30 55 1 30 51
M  V30 END BOND
M  V30 END CTAB
M  END
>  <Dataset>  (938) 
ChEMBL_Kinases

>  <Ligand_Instance>  (938) 
nan

>  <PDB_ID>  (938) 
nan

>  <Standardized_SMILES>  (938) 
NC(=O)c1cc(Cl)c2nc(-c3ccc(C4(N)CCC4)cc3)c(-c3ccccc3)n2c1

>  <Name>  (938) 
nan

>  <Pocket>  (938) 
nan

>  <ATP_Site>  (938) 
nan

>  <Peripheral>  (938) 
nan

>  <Num_H_Atoms_ProtBoundConf>  (938) 
nan

>  <Num_Resolved_Atoms>  (938) 
nan

>  <Num_Not_Resolved_Atoms>  (938) 
nan

$$$$
CHEMBL4570327
     RDKit          3D

  0  0  0  0  0  0  0  0  0  0999 V3000
M  V30 BEGIN CTAB
M  V30 COUNTS 63 66 0 0 0
M  V30 BEGIN ATOM
M  V30 1 C 2.172641 -1.545929 4.698908 0
M  V30 2 O 1.696525 -0.267708 5.093856 0
M  V30 3 C 1.844091 0.850358 4.288682 0
M  V30 4 C 1.398887 2.136162 4.617726 0
M  V30 5 C 1.584121 3.200743 3.759763 0
M  V30 6 C 2.214228 3.048221 2.542496 0
M  V30 7 C 2.642317 1.779226 2.240883 0
M  V30 8 C 2.484478 0.680090 3.058464 0
M  V30 9 C 3.331361 1.521655 0.950969 0
M  V30 10 C 2.709980 2.461449 -0.078257 0
M  V30 11 C 1.240890 2.241150 -0.020122 0
M  V30 12 O 0.515768 3.199872 0.259343 0
M  V30 13 N 0.656893 0.974819 -0.273691 0
M  V30 14 C -0.710441 0.610259 -0.257735 0
M  V30 15 C -1.785544 1.424581 0.007745 0
M  V30 16 C -3.101763 1.016663 0.009884 0
M  V30 17 C -3.398530 -0.302133 -0.271529 0
M  V30 18 C -4.806709 -0.688003 -0.257911 0
M  V30 19 C -5.709689 -0.307032 0.731463 0
M  V30 20 N -6.893097 -0.874941 0.360186 0
M  V30 21 N -6.796049 -1.565306 -0.760988 0
M  V30 22 C -5.515722 -1.460388 -1.155457 0
M  V30 23 C -4.959928 -2.090853 -2.380735 0
M  V30 24 C -2.336716 -1.140639 -0.541545 0
M  V30 25 C -1.030096 -0.700780 -0.535739 0
M  V30 26 O -0.051302 -1.610817 -0.816247 0
M  V30 27 C -0.204565 -2.969794 -1.117262 0
M  V30 28 C 1.174034 -3.522918 -1.344689 0
M  V30 29 N 1.258646 -4.895418 -1.665850 0
M  V30 30 C 0.736534 -5.274838 -2.935141 0
M  V30 31 C 0.966527 -5.816170 -0.623148 0
M  V30 32 C 3.049139 3.853356 0.365056 0
M  V30 33 O 2.436773 4.068275 1.628440 0
M  V30 34 H 1.711906 -1.813138 3.719810 0
M  V30 35 H 3.260722 -1.514026 4.544114 0
M  V30 36 H 1.951148 -2.252176 5.505135 0
M  V30 37 H 0.910984 2.228915 5.571503 0
M  V30 38 H 1.235966 4.189492 4.024791 0
M  V30 39 H 2.844468 -0.316164 2.773162 0
M  V30 40 H 3.181961 0.463434 0.606500 0
M  V30 41 H 4.425875 1.722013 1.048778 0
M  V30 42 H 3.120649 2.213483 -1.078633 0
M  V30 43 H 1.372126 0.248070 -0.497485 0
M  V30 44 H -1.615691 2.453540 0.231732 0
M  V30 45 H -3.898913 1.718802 0.229506 0
M  V30 46 H -5.576288 0.298281 1.619328 0
M  V30 47 H -7.827706 -0.831498 0.835783 0
M  V30 48 H -5.749132 -2.316255 -3.125312 0
M  V30 49 H -4.481756 -3.054477 -2.051889 0
M  V30 50 H -4.135580 -1.495560 -2.822487 0
M  V30 51 H -2.564534 -2.171982 -0.761623 0
M  V30 52 H -0.830071 -3.088792 -2.029871 0
M  V30 53 H -0.747367 -3.466528 -0.289086 0
M  V30 54 H 1.594014 -2.937926 -2.207038 0
M  V30 55 H 1.818503 -3.276705 -0.477704 0
M  V30 56 H 0.444166 -4.381993 -3.509765 0
M  V30 57 H 1.598255 -5.732141 -3.504666 0
M  V30 58 H -0.109394 -5.996039 -2.891085 0
M  V30 59 H 1.815468 -6.547489 -0.592587 0
M  V30 60 H 0.067707 -6.465655 -0.833849 0
M  V30 61 H 0.946801 -5.361468 0.376148 0
M  V30 62 H 4.143108 3.955043 0.419928 0
M  V30 63 H 2.623460 4.563158 -0.390665 0
M  V30 END ATOM
M  V30 BEGIN BOND
M  V30 1 1 1 2
M  V30 2 1 2 3
M  V30 3 2 3 4
M  V30 4 1 4 5
M  V30 5 2 5 6
M  V30 6 1 6 7
M  V30 7 2 7 8
M  V30 8 1 7 9
M  V30 9 1 9 10
M  V30 10 1 10 11
M  V30 11 2 11 12
M  V30 12 1 11 13
M  V30 13 1 13 14
M  V30 14 2 14 15
M  V30 15 1 15 16
M  V30 16 2 16 17
M  V30 17 1 17 18
M  V30 18 2 18 19
M  V30 19 1 19 20
M  V30 20 1 20 21
M  V30 21 2 21 22
M  V30 22 1 22 23
M  V30 23 1 17 24
M  V30 24 2 24 25
M  V30 25 1 25 26
M  V30 26 1 26 27
M  V30 27 1 27 28
M  V30 28 1 28 29
M  V30 29 1 29 30
M  V30 30 1 29 31
M  V30 31 1 10 32
M  V30 32 1 32 33
M  V30 33 1 8 3
M  V30 34 1 25 14
M  V30 35 1 33 6
M  V30 36 1 22 18
M  V30 37 1 1 34
M  V30 38 1 1 35
M  V30 39 1 1 36
M  V30 40 1 4 37
M  V30 41 1 5 38
M  V30 42 1 8 39
M  V30 43 1 9 40
M  V30 44 1 9 41
M  V30 45 1 10 42
M  V30 46 1 13 43
M  V30 47 1 15 44
M  V30 48 1 16 45
M  V30 49 1 19 46
M  V30 50 1 20 47
M  V30 51 1 23 48
M  V30 52 1 23 49
M  V30 53 1 23 50
M  V30 54 1 24 51
M  V30 55 1 27 52
M  V30 56 1 27 53
M  V30 57 1 28 54
M  V30 58 1 28 55
M  V30 59 1 30 56
M  V30 60 1 30 57
M  V30 61 1 30 58
M  V30 62 1 31 59
M  V30 63 1 31 60
M  V30 64 1 31 61
M  V30 65 1 32 62
M  V30 66 1 32 63
M  V30 END BOND
M  V30 END CTAB
M  END
>  <Dataset>  (939) 
ChEMBL_Kinases

>  <Ligand_Instance>  (939) 
nan

>  <PDB_ID>  (939) 
nan

>  <Standardized_SMILES>  (939) 
COc1ccc2c(c1)CC(C(=O)Nc1ccc(-c3c[nH]nc3C)cc1OCCN(C)C)CO2

>  <Name>  (939) 
nan

>  <Pocket>  (939) 
nan

>  <ATP_Site>  (939) 
nan

>  <Peripheral>  (939) 
nan

>  <Num_H_Atoms_ProtBoundConf>  (939) 
nan

>  <Num_Resolved_Atoms>  (939) 
nan

>  <Num_Not_Resolved_Atoms>  (939) 
nan

$$$$
CHEMBL3703164
     RDKit          3D

  0  0  0  0  0  0  0  0  0  0999 V3000
M  V30 BEGIN CTAB
M  V30 COUNTS 52 56 0 0 0
M  V30 BEGIN ATOM
M  V30 1 C 5.072143 -5.143163 7.738305 0 CHG=-1 VAL=3
M  V30 2 N 4.385326 -4.702509 6.914616 0 CHG=1 VAL=4
M  V30 3 C 3.533749 -4.180594 5.906896 0
M  V30 4 O 4.196156 -3.059506 5.325015 0
M  V30 5 C 3.561642 -2.355432 4.291831 0
M  V30 6 C 4.260222 -1.269578 3.764615 0
M  V30 7 C 3.699828 -0.511264 2.729230 0
M  V30 8 N 2.474957 -0.862516 2.264266 0
M  V30 9 C 1.729224 -0.294746 1.280038 0
M  V30 10 C 1.987292 0.838516 0.435223 0
M  V30 11 C 2.171547 0.965398 -0.925427 0
M  V30 12 C 2.404154 2.196103 -1.498584 0
M  V30 13 C 2.463533 3.350493 -0.746236 0
M  V30 14 C 2.281710 3.260785 0.633946 0
M  V30 15 C 2.046499 2.007851 1.204721 0
M  V30 16 C 0.562579 -1.024523 1.189224 0
M  V30 17 C -0.631506 -0.958518 0.357586 0
M  V30 18 C -1.872840 -0.605291 0.898707 0
M  V30 19 C -3.037823 -0.538555 0.125077 0
M  V30 20 C -2.985253 -0.827092 -1.221766 0
M  V30 21 C -4.208015 -0.754321 -2.016128 0
M  V30 22 N -5.424288 -1.187427 -1.308130 0
M  V30 23 C -4.525207 0.581236 -2.673822 0
M  V30 24 C -5.203959 -0.261219 -3.764421 0
M  V30 25 C -4.216640 -1.371616 -3.373859 0
M  V30 26 C -1.774184 -1.178360 -1.780867 0
M  V30 27 C -0.639536 -1.236830 -0.996940 0
M  V30 28 N 0.599252 -2.014542 2.099990 0
M  V30 29 C 1.783019 -1.910110 2.761563 0
M  V30 30 C 2.318540 -2.674761 3.786823 0
M  V30 31 H 2.582019 -3.907088 6.405586 0
M  V30 32 H 3.280707 -4.945424 5.134220 0
M  V30 33 H 5.253801 -1.005063 4.159825 0
M  V30 34 H 4.220379 0.341451 2.297328 0
M  V30 35 H 2.108875 0.009395 -1.417891 0
M  V30 36 H 2.532045 2.163703 -2.574433 0
M  V30 37 H 2.648997 4.292943 -1.247625 0
M  V30 38 H 2.333489 4.179341 1.199670 0
M  V30 39 H 1.923309 2.091235 2.298364 0
M  V30 40 H -1.938872 -0.374391 1.955746 0
M  V30 41 H -3.949777 -0.252792 0.649170 0
M  V30 42 H -5.204900 -2.113494 -0.887653 0
M  V30 43 H -5.583499 -0.480463 -0.551414 0
M  V30 44 H -5.195624 1.179332 -2.055077 0
M  V30 45 H -3.645421 1.147123 -3.052403 0
M  V30 46 H -5.112645 0.115194 -4.782122 0
M  V30 47 H -6.248113 -0.515051 -3.417615 0
M  V30 48 H -3.342843 -1.270147 -4.015579 0
M  V30 49 H -4.710791 -2.385430 -3.425909 0
M  V30 50 H -1.698603 -1.408995 -2.825333 0
M  V30 51 H 0.282404 -1.520227 -1.484498 0
M  V30 52 H 1.817286 -3.515605 4.219838 0
M  V30 END ATOM
M  V30 BEGIN BOND
M  V30 1 3 1 2
M  V30 2 1 2 3
M  V30 3 1 3 4
M  V30 4 1 4 5
M  V30 5 1 5 6
M  V30 6 2 6 7
M  V30 7 1 7 8
M  V30 8 1 8 9
M  V30 9 1 9 10
M  V30 10 2 10 11
M  V30 11 1 11 12
M  V30 12 2 12 13
M  V30 13 1 13 14
M  V30 14 2 14 15
M  V30 15 2 9 16
M  V30 16 1 16 17
M  V30 17 2 17 18
M  V30 18 1 18 19
M  V30 19 2 19 20
M  V30 20 1 20 21
M  V30 21 1 21 22
M  V30 22 1 21 23
M  V30 23 1 23 24
M  V30 24 1 24 25
M  V30 25 1 20 26
M  V30 26 2 26 27
M  V30 27 1 16 28
M  V30 28 2 28 29
M  V30 29 1 29 30
M  V30 30 2 30 5
M  V30 31 1 29 8
M  V30 32 1 15 10
M  V30 33 1 27 17
M  V30 34 1 25 21
M  V30 35 1 3 31
M  V30 36 1 3 32
M  V30 37 1 6 33
M  V30 38 1 7 34
M  V30 39 1 11 35
M  V30 40 1 12 36
M  V30 41 1 13 37
M  V30 42 1 14 38
M  V30 43 1 15 39
M  V30 44 1 18 40
M  V30 45 1 19 41
M  V30 46 1 22 42
M  V30 47 1 22 43
M  V30 48 1 23 44
M  V30 49 1 23 45
M  V30 50 1 24 46
M  V30 51 1 24 47
M  V30 52 1 25 48
M  V30 53 1 25 49
M  V30 54 1 26 50
M  V30 55 1 27 51
M  V30 56 1 30 52
M  V30 END BOND
M  V30 END CTAB
M  END
>  <Dataset>  (940) 
ChEMBL_Kinases

>  <Ligand_Instance>  (940) 
nan

>  <PDB_ID>  (940) 
nan

>  <Standardized_SMILES>  (940) 
[C-]#[N+]COc1ccn2c(-c3ccccc3)c(-c3ccc(C4(N)CCC4)cc3)nc2c1

>  <Name>  (940) 
nan

>  <Pocket>  (940) 
nan

>  <ATP_Site>  (940) 
nan

>  <Peripheral>  (940) 
nan

>  <Num_H_Atoms_ProtBoundConf>  (940) 
nan

>  <Num_Resolved_Atoms>  (940) 
nan

>  <Num_Not_Resolved_Atoms>  (940) 
nan

$$$$
CHEMBL3703158
     RDKit          3D

  0  0  0  0  0  0  0  0  0  0999 V3000
M  V30 BEGIN CTAB
M  V30 COUNTS 49 53 0 0 0
M  V30 BEGIN ATOM
M  V30 1 C 5.270750 -6.429723 4.122836 0
M  V30 2 C 4.683655 -5.550297 3.527325 0
M  V30 3 C 3.972345 -4.528848 2.822268 0
M  V30 4 C 4.652299 -3.690401 1.959855 0
M  V30 5 C 4.040021 -2.676372 1.238795 0
M  V30 6 N 2.693890 -2.510120 1.400140 0
M  V30 7 C 1.793994 -1.654215 0.877498 0
M  V30 8 C 2.180141 -0.643934 -0.064860 0
M  V30 9 C 1.552417 -0.839722 -1.300418 0
M  V30 10 C 1.775747 0.022692 -2.378787 0
M  V30 11 C 2.633518 1.087364 -2.216872 0
M  V30 12 C 3.265710 1.294426 -0.991482 0
M  V30 13 C 3.033199 0.434951 0.057704 0
M  V30 14 C 0.529022 -1.922735 1.388704 0
M  V30 15 C -0.678099 -1.184531 1.035294 0
M  V30 16 C -0.569725 0.154516 1.425690 0
M  V30 17 C -1.613437 1.047891 1.184423 0
M  V30 18 C -2.764656 0.582343 0.548083 0
M  V30 19 C -3.928077 1.416230 0.238048 0
M  V30 20 N -4.302256 1.353720 -1.184120 0
M  V30 21 C -3.844446 2.871297 0.649622 0
M  V30 22 C -5.354115 2.792082 0.902730 0
M  V30 23 C -5.140396 1.286966 1.103706 0
M  V30 24 C -2.855773 -0.742703 0.168997 0
M  V30 25 C -1.823494 -1.630451 0.406497 0
M  V30 26 N 0.708798 -2.962639 2.228659 0
M  V30 27 C 2.025973 -3.323139 2.238289 0
M  V30 28 C 2.596002 -4.342842 2.973684 0
M  V30 29 H 5.775664 -7.214027 4.644514 0
M  V30 30 H 5.729841 -3.766164 1.782279 0
M  V30 31 H 4.599096 -2.029047 0.565305 0
M  V30 32 H 0.851732 -1.644510 -1.556598 0
M  V30 33 H 1.310304 -0.100141 -3.336760 0
M  V30 34 H 2.833284 1.780113 -3.031295 0
M  V30 35 H 3.946585 2.116674 -0.818872 0
M  V30 36 H 3.465559 0.496262 1.048203 0
M  V30 37 H 0.270431 0.620205 1.922305 0
M  V30 38 H -1.583383 2.089089 1.463692 0
M  V30 39 H -4.826558 0.492429 -1.417492 0
M  V30 40 H -3.489300 1.535064 -1.809837 0
M  V30 41 H -3.564249 3.588691 -0.122767 0
M  V30 42 H -3.352565 3.093222 1.603407 0
M  V30 43 H -5.703424 3.341877 1.781351 0
M  V30 44 H -5.926257 2.936799 -0.043756 0
M  V30 45 H -5.930672 0.679439 0.617569 0
M  V30 46 H -4.866661 0.998111 2.128482 0
M  V30 47 H -3.725232 -1.173767 -0.332093 0
M  V30 48 H -1.784474 -2.680599 0.155863 0
M  V30 49 H 2.030173 -4.978977 3.639796 0
M  V30 END ATOM
M  V30 BEGIN BOND
M  V30 1 3 1 2
M  V30 2 1 2 3
M  V30 3 1 3 4
M  V30 4 2 4 5
M  V30 5 1 5 6
M  V30 6 1 6 7
M  V30 7 1 7 8
M  V30 8 2 8 9
M  V30 9 1 9 10
M  V30 10 2 10 11
M  V30 11 1 11 12
M  V30 12 2 12 13
M  V30 13 2 7 14
M  V30 14 1 14 15
M  V30 15 2 15 16
M  V30 16 1 16 17
M  V30 17 2 17 18
M  V30 18 1 18 19
M  V30 19 1 19 20
M  V30 20 1 19 21
M  V30 21 1 21 22
M  V30 22 1 22 23
M  V30 23 1 18 24
M  V30 24 2 24 25
M  V30 25 1 14 26
M  V30 26 2 26 27
M  V30 27 1 27 28
M  V30 28 2 28 3
M  V30 29 1 27 6
M  V30 30 1 13 8
M  V30 31 1 25 15
M  V30 32 1 23 19
M  V30 33 1 1 29
M  V30 34 1 4 30
M  V30 35 1 5 31
M  V30 36 1 9 32
M  V30 37 1 10 33
M  V30 38 1 11 34
M  V30 39 1 12 35
M  V30 40 1 13 36
M  V30 41 1 16 37
M  V30 42 1 17 38
M  V30 43 1 20 39
M  V30 44 1 20 40
M  V30 45 1 21 41
M  V30 46 1 21 42
M  V30 47 1 22 43
M  V30 48 1 22 44
M  V30 49 1 23 45
M  V30 50 1 23 46
M  V30 51 1 24 47
M  V30 52 1 25 48
M  V30 53 1 28 49
M  V30 END BOND
M  V30 END CTAB
M  END
>  <Dataset>  (941) 
ChEMBL_Kinases

>  <Ligand_Instance>  (941) 
nan

>  <PDB_ID>  (941) 
nan

>  <Standardized_SMILES>  (941) 
C#Cc1ccn2c(-c3ccccc3)c(-c3ccc(C4(N)CCC4)cc3)nc2c1

>  <Name>  (941) 
nan

>  <Pocket>  (941) 
nan

>  <ATP_Site>  (941) 
nan

>  <Peripheral>  (941) 
nan

>  <Num_H_Atoms_ProtBoundConf>  (941) 
nan

>  <Num_Resolved_Atoms>  (941) 
nan

>  <Num_Not_Resolved_Atoms>  (941) 
nan

$$$$
CHEMBL2393448
     RDKit          3D

  0  0  0  0  0  0  0  0  0  0999 V3000
M  V30 BEGIN CTAB
M  V30 COUNTS 38 39 0 0 0
M  V30 BEGIN ATOM
M  V30 1 C -2.039232 -2.747274 3.540743 0
M  V30 2 C -0.671669 -3.187226 3.952289 0
M  V30 3 O 0.141358 -3.548737 2.851238 0
M  V30 4 C 0.460321 -2.666527 1.836606 0
M  V30 5 O -0.193652 -1.745837 2.363611 0
M  V30 6 C 1.286754 -2.970692 0.681619 0
M  V30 7 C 1.495717 -1.987616 -0.224688 0
M  V30 8 C 1.005908 -0.620344 -0.309845 0
M  V30 9 C -0.322289 -0.256936 -0.216211 0
M  V30 10 C -0.791932 1.037507 -0.280441 0
M  V30 11 C 0.153545 2.025531 -0.451585 0
M  V30 12 N -0.296048 3.372570 -0.522075 0
M  V30 13 C -1.735821 3.628096 -0.408621 0
M  V30 14 C 0.613831 4.487599 -0.700468 0
M  V30 15 C 1.501676 1.754346 -0.555211 0
M  V30 16 C 1.893848 0.434623 -0.481450 0
M  V30 17 C 2.314402 -2.355612 -1.285421 0
M  V30 18 S 2.737957 -4.070170 -0.936612 0
M  V30 19 C 1.823102 -4.204687 0.570782 0
M  V30 20 N 1.728665 -5.334163 1.383090 0
M  V30 21 H -2.183410 -1.639825 3.639966 0
M  V30 22 H -2.849930 -3.220182 4.110758 0
M  V30 23 H -2.258669 -2.971683 2.467510 0
M  V30 24 H -0.180045 -2.296814 4.442509 0
M  V30 25 H -0.644380 -4.007558 4.691252 0
M  V30 26 H -1.073774 -1.023409 -0.090807 0
M  V30 27 H -1.848373 1.246231 -0.198943 0
M  V30 28 H -2.117286 3.369831 0.578197 0
M  V30 29 H -1.969561 4.681646 -0.654048 0
M  V30 30 H -2.224230 2.985341 -1.196461 0
M  V30 31 H 0.901842 4.953208 0.278507 0
M  V30 32 H 0.027472 5.273211 -1.250710 0
M  V30 33 H 1.471810 4.268307 -1.351339 0
M  V30 34 H 2.264642 2.509091 -0.689911 0
M  V30 35 H 2.954145 0.190641 -0.560432 0
M  V30 36 H 2.695587 -1.875004 -2.163185 0
M  V30 37 H 1.338087 -6.162292 0.872204 0
M  V30 38 H 2.064352 -5.146323 2.349764 0
M  V30 END ATOM
M  V30 BEGIN BOND
M  V30 1 1 1 2
M  V30 2 1 2 3
M  V30 3 1 3 4
M  V30 4 2 4 5
M  V30 5 1 4 6
M  V30 6 1 6 7
M  V30 7 1 7 8
M  V30 8 2 8 9
M  V30 9 1 9 10
M  V30 10 2 10 11
M  V30 11 1 11 12
M  V30 12 1 12 13
M  V30 13 1 12 14
M  V30 14 1 11 15
M  V30 15 2 15 16
M  V30 16 2 7 17
M  V30 17 1 17 18
M  V30 18 1 18 19
M  V30 19 1 19 20
M  V30 20 2 19 6
M  V30 21 1 16 8
M  V30 22 1 1 21
M  V30 23 1 1 22
M  V30 24 1 1 23
M  V30 25 1 2 24
M  V30 26 1 2 25
M  V30 27 1 9 26
M  V30 28 1 10 27
M  V30 29 1 13 28
M  V30 30 1 13 29
M  V30 31 1 13 30
M  V30 32 1 14 31
M  V30 33 1 14 32
M  V30 34 1 14 33
M  V30 35 1 15 34
M  V30 36 1 16 35
M  V30 37 1 17 36
M  V30 38 1 20 37
M  V30 39 1 20 38
M  V30 END BOND
M  V30 END CTAB
M  END
>  <Dataset>  (942) 
ChEMBL_Kinases

>  <Ligand_Instance>  (942) 
nan

>  <PDB_ID>  (942) 
nan

>  <Standardized_SMILES>  (942) 
CCOC(=O)c1c(-c2ccc(N(C)C)cc2)csc1N

>  <Name>  (942) 
nan

>  <Pocket>  (942) 
nan

>  <ATP_Site>  (942) 
nan

>  <Peripheral>  (942) 
nan

>  <Num_H_Atoms_ProtBoundConf>  (942) 
nan

>  <Num_Resolved_Atoms>  (942) 
nan

>  <Num_Not_Resolved_Atoms>  (942) 
nan

$$$$
CHEMBL2393450
     RDKit          3D

  0  0  0  0  0  0  0  0  0  0999 V3000
M  V30 BEGIN CTAB
M  V30 COUNTS 33 35 0 0 0
M  V30 BEGIN ATOM
M  V30 1 C -2.144978 -1.214400 3.969070 0
M  V30 2 C -0.821764 -1.545929 3.338550 0
M  V30 3 O -1.011426 -1.813785 1.964970 0
M  V30 4 C -1.535556 -0.869329 1.124650 0
M  V30 5 O -1.783406 0.164386 1.757345 0
M  V30 6 C -1.666841 -1.302520 -0.260907 0
M  V30 7 C -0.657093 -1.124082 -1.169490 0
M  V30 8 C 0.652731 -0.513063 -0.984205 0
M  V30 9 C 1.801833 -1.147867 -1.457886 0
M  V30 10 C 3.073040 -0.629696 -1.324650 0
M  V30 11 C 3.225760 0.584968 -0.688033 0
M  V30 12 C 2.122725 1.255454 -0.200515 0
M  V30 13 C 0.873827 0.695239 -0.359031 0
M  V30 14 O 2.609049 2.423960 0.373000 0
M  V30 15 C 4.012369 2.260249 0.619625 0
M  V30 16 O 4.351828 1.345857 -0.407373 0
M  V30 17 C -0.930008 -1.599117 -2.482634 0
M  V30 18 S -2.647200 -2.281497 -2.322026 0
M  V30 19 C -2.814371 -1.888580 -0.628531 0
M  V30 20 N -3.999241 -2.197696 0.073087 0
M  V30 21 H -2.138301 -0.236722 4.507662 0
M  V30 22 H -2.408249 -2.007872 4.699109 0
M  V30 23 H -2.991486 -1.165215 3.253008 0
M  V30 24 H -0.270228 -2.352437 3.844872 0
M  V30 25 H -0.202887 -0.604462 3.395287 0
M  V30 26 H 1.680562 -2.105630 -1.959770 0
M  V30 27 H 3.929252 -1.149182 -1.702619 0
M  V30 28 H 0.028913 1.243917 0.029401 0
M  V30 29 H 4.138137 1.774141 1.618144 0
M  V30 30 H 4.543743 3.226567 0.535396 0
M  V30 31 H -0.337548 -1.594087 -3.379467 0
M  V30 32 H -4.925340 -2.097526 -0.401279 0
M  V30 33 H -3.816865 -2.516115 1.060348 0
M  V30 END ATOM
M  V30 BEGIN BOND
M  V30 1 1 1 2
M  V30 2 1 2 3
M  V30 3 1 3 4
M  V30 4 2 4 5
M  V30 5 1 4 6
M  V30 6 1 6 7
M  V30 7 1 7 8
M  V30 8 2 8 9
M  V30 9 1 9 10
M  V30 10 2 10 11
M  V30 11 1 11 12
M  V30 12 2 12 13
M  V30 13 1 12 14
M  V30 14 1 14 15
M  V30 15 1 15 16
M  V30 16 2 7 17
M  V30 17 1 17 18
M  V30 18 1 18 19
M  V30 19 1 19 20
M  V30 20 2 19 6
M  V30 21 1 13 8
M  V30 22 1 16 11
M  V30 23 1 1 21
M  V30 24 1 1 22
M  V30 25 1 1 23
M  V30 26 1 2 24
M  V30 27 1 2 25
M  V30 28 1 9 26
M  V30 29 1 10 27
M  V30 30 1 13 28
M  V30 31 1 15 29
M  V30 32 1 15 30
M  V30 33 1 17 31
M  V30 34 1 20 32
M  V30 35 1 20 33
M  V30 END BOND
M  V30 END CTAB
M  END
>  <Dataset>  (943) 
ChEMBL_Kinases

>  <Ligand_Instance>  (943) 
nan

>  <PDB_ID>  (943) 
nan

>  <Standardized_SMILES>  (943) 
CCOC(=O)c1c(-c2ccc3c(c2)OCO3)csc1N

>  <Name>  (943) 
nan

>  <Pocket>  (943) 
nan

>  <ATP_Site>  (943) 
nan

>  <Peripheral>  (943) 
nan

>  <Num_H_Atoms_ProtBoundConf>  (943) 
nan

>  <Num_Resolved_Atoms>  (943) 
nan

>  <Num_Not_Resolved_Atoms>  (943) 
nan

$$$$
CHEMBL220112
     RDKit          3D

  0  0  0  0  0  0  0  0  0  0999 V3000
M  V30 BEGIN CTAB
M  V30 COUNTS 48 51 0 0 0
M  V30 BEGIN ATOM
M  V30 1 O 1.161602 0.814175 -2.168560 0
M  V30 2 C 0.979747 0.316350 -1.023422 0
M  V30 3 N 2.097204 -0.246404 -0.336800 0
M  V30 4 C 3.492325 -0.371256 -0.711056 0 CFG=2
M  V30 5 C 4.039158 -1.756320 -0.586263 0
M  V30 6 O 5.380529 -1.870266 -0.947083 0
M  V30 7 C 4.266273 0.494910 0.246528 0
M  V30 8 C 5.269338 1.350328 -0.214666 0
M  V30 9 C 6.023831 2.172260 0.575000 0
M  V30 10 C 5.777636 2.157316 1.929398 0
M  V30 11 C 4.798672 1.332562 2.444208 0
M  V30 12 C 4.061058 0.519218 1.610027 0
M  V30 13 C -0.321092 0.281055 -0.350027 0
M  V30 14 C -0.613712 -0.251181 0.910797 0
M  V30 15 C -1.970849 -0.040550 1.093981 0
M  V30 16 C -2.738602 -0.431001 2.274649 0
M  V30 17 N -2.365482 0.121188 3.460188 0
M  V30 18 N -3.148739 -0.327434 4.425245 0
M  V30 19 C -4.056609 -1.179518 3.929471 0
M  V30 20 C -3.812479 -1.257738 2.568850 0
M  V30 21 C -4.406097 -1.980009 1.438212 0
M  V30 22 C -5.747694 -1.625419 1.264312 0
M  V30 23 C -6.485320 -2.199745 0.245901 0
M  V30 24 C -5.848831 -3.115419 -0.567964 0
M  V30 25 C -4.538855 -3.446966 -0.380437 0
M  V30 26 Cl -3.722591 -4.611817 -1.412712 0
M  V30 27 C -3.797396 -2.886342 0.623043 0
M  V30 28 C -2.465175 0.600099 -0.031801 0
M  V30 29 N -1.436089 0.784624 -0.898512 0
M  V30 30 H 1.942432 -0.658608 0.609770 0
M  V30 31 H 3.683476 0.049197 -1.727040 0
M  V30 32 H 3.942060 -2.056661 0.478973 0
M  V30 33 H 3.408530 -2.497559 -1.153774 0
M  V30 34 H 5.892536 -2.415105 -0.282965 0
M  V30 35 H 5.474605 1.371227 -1.290203 0
M  V30 36 H 6.788914 2.816545 0.170458 0
M  V30 37 H 6.313526 2.766071 2.645676 0
M  V30 38 H 4.582281 1.297954 3.497903 0
M  V30 39 H 3.298882 -0.121466 2.024207 0
M  V30 40 H 0.093405 -0.724350 1.583284 0
M  V30 41 H -1.608953 0.798886 3.716753 0
M  V30 42 H -4.871641 -1.768544 4.339985 0
M  V30 43 H -6.303125 -0.908227 1.876213 0
M  V30 44 H -7.539453 -1.934545 0.092877 0
M  V30 45 H -6.416581 -3.573681 -1.371511 0
M  V30 46 H -2.760405 -3.084681 0.848428 0
M  V30 47 H -3.505592 0.884306 -0.151303 0
M  V30 48 H -1.542632 1.245332 -1.823512 0
M  V30 END ATOM
M  V30 BEGIN BOND
M  V30 1 2 1 2
M  V30 2 1 2 3
M  V30 3 1 3 4
M  V30 4 1 4 5
M  V30 5 1 5 6
M  V30 6 1 4 7
M  V30 7 2 7 8
M  V30 8 1 8 9
M  V30 9 2 9 10
M  V30 10 1 10 11
M  V30 11 2 11 12
M  V30 12 1 2 13
M  V30 13 2 13 14
M  V30 14 1 14 15
M  V30 15 1 15 16
M  V30 16 1 16 17
M  V30 17 1 17 18
M  V30 18 2 18 19
M  V30 19 1 19 20
M  V30 20 1 20 21
M  V30 21 2 21 22
M  V30 22 1 22 23
M  V30 23 2 23 24
M  V30 24 1 24 25
M  V30 25 1 25 26
M  V30 26 2 25 27
M  V30 27 2 15 28
M  V30 28 1 28 29
M  V30 29 1 12 7
M  V30 30 1 29 13
M  V30 31 2 20 16
M  V30 32 1 27 21
M  V30 33 1 3 30
M  V30 34 1 4 31 CFG=3
M  V30 35 1 5 32
M  V30 36 1 5 33
M  V30 37 1 6 34
M  V30 38 1 8 35
M  V30 39 1 9 36
M  V30 40 1 10 37
M  V30 41 1 11 38
M  V30 42 1 12 39
M  V30 43 1 14 40
M  V30 44 1 17 41
M  V30 45 1 19 42
M  V30 46 1 22 43
M  V30 47 1 23 44
M  V30 48 1 24 45
M  V30 49 1 27 46
M  V30 50 1 28 47
M  V30 51 1 29 48
M  V30 END BOND
M  V30 END CTAB
M  END
>  <Dataset>  (944) 
ChEMBL_Kinases

>  <Ligand_Instance>  (944) 
nan

>  <PDB_ID>  (944) 
nan

>  <Standardized_SMILES>  (944) 
O=C(N[C@H](CO)c1ccccc1)c1cc(-c2[nH]ncc2-c2cccc(Cl)c2)c[nH]1

>  <Name>  (944) 
nan

>  <Pocket>  (944) 
nan

>  <ATP_Site>  (944) 
nan

>  <Peripheral>  (944) 
nan

>  <Num_H_Atoms_ProtBoundConf>  (944) 
nan

>  <Num_Resolved_Atoms>  (944) 
nan

>  <Num_Not_Resolved_Atoms>  (944) 
nan

$$$$
CHEMBL2396661
     RDKit          3D

  0  0  0  0  0  0  0  0  0  0999 V3000
M  V30 BEGIN CTAB
M  V30 COUNTS 52 54 0 0 0
M  V30 BEGIN ATOM
M  V30 1 C -3.664624 1.007821 0.826288 0
M  V30 2 C -2.307606 0.413061 0.960874 0
M  V30 3 N -1.343422 1.170766 1.423008 0
M  V30 4 C -0.160309 0.695614 1.555119 0
M  V30 5 N 1.038099 1.283549 2.019538 0
M  V30 6 C 1.821600 1.899555 1.008662 0
M  V30 7 O 1.598511 1.994188 -0.236725 0
M  V30 8 N 3.067901 2.584533 1.075101 0
M  V30 9 C 3.651165 3.123818 -0.138735 0
M  V30 10 C 3.912005 4.562759 0.290842 0
M  V30 11 C 4.113438 4.488661 1.804244 0
M  V30 12 C 4.119941 3.007919 2.013399 0 CFG=1
M  V30 13 C 3.880846 2.595467 3.389391 0
M  V30 14 N 5.012079 3.122983 4.115593 0
M  V30 15 O 3.578365 2.191039 4.534109 0
M  V30 16 S -0.342665 -1.010880 0.983740 0
M  V30 17 C -2.072319 -0.923281 0.602583 0
M  V30 18 C -2.827434 -1.986475 0.095720 0
M  V30 19 C -4.152119 -2.094219 -0.256737 0
M  V30 20 C -4.847049 -3.171180 -0.751377 0
M  V30 21 N -4.095907 -4.272757 -0.904525 0
M  V30 22 C -2.794278 -4.323257 -0.605790 0
M  V30 23 C -2.105670 -5.615473 -0.827541 0
M  V30 24 C -3.101636 -6.650292 -1.327052 0
M  V30 25 C -1.554544 -6.098198 0.483338 0
M  V30 26 C -0.980979 -5.493828 -1.836654 0
M  V30 27 F -1.501393 -5.065248 -3.028696 0
M  V30 28 F -0.376267 -6.750206 -1.971682 0
M  V30 29 F 0.014472 -4.665317 -1.365798 0
M  V30 30 C -2.172333 -3.208193 -0.117080 0
M  V30 31 H -3.990252 1.011398 -0.235921 0
M  V30 32 H -3.729821 2.059451 1.186143 0
M  V30 33 H -4.422965 0.470532 1.468569 0
M  V30 34 H 1.488619 1.370461 2.955406 0
M  V30 35 H 4.604192 2.582795 -0.325138 0
M  V30 36 H 3.030351 3.057684 -1.026960 0
M  V30 37 H 3.040177 5.148937 -0.004014 0
M  V30 38 H 4.857913 4.927549 -0.121634 0
M  V30 39 H 3.296259 5.002177 2.356624 0
M  V30 40 H 5.055094 4.992334 2.126024 0
M  V30 41 H 5.089459 2.614622 1.602766 0
M  V30 42 H 5.994178 3.086966 4.522806 0
M  V30 43 H 5.523204 3.870900 4.673420 0
M  V30 44 H -4.725596 -1.194181 -0.122918 0
M  V30 45 H -5.898735 -3.092195 -0.981156 0
M  V30 46 H -2.764966 -7.632679 -0.971320 0
M  V30 47 H -4.122218 -6.379117 -1.035824 0
M  V30 48 H -3.026718 -6.642477 -2.439378 0
M  V30 49 H -1.535961 -7.219398 0.544468 0
M  V30 50 H -0.522618 -5.727931 0.611035 0
M  V30 51 H -2.162172 -5.669401 1.290293 0
M  V30 52 H -1.120948 -3.347897 0.097240 0
M  V30 END ATOM
M  V30 BEGIN BOND
M  V30 1 1 1 2
M  V30 2 1 2 3
M  V30 3 2 3 4
M  V30 4 1 4 5
M  V30 5 1 5 6
M  V30 6 2 6 7
M  V30 7 1 6 8
M  V30 8 1 8 9
M  V30 9 1 9 10
M  V30 10 1 10 11
M  V30 11 1 11 12
M  V30 12 1 12 13
M  V30 13 1 13 14
M  V30 14 2 13 15
M  V30 15 1 4 16
M  V30 16 1 16 17
M  V30 17 1 17 18
M  V30 18 2 18 19
M  V30 19 1 19 20
M  V30 20 2 20 21
M  V30 21 1 21 22
M  V30 22 1 22 23
M  V30 23 1 23 24
M  V30 24 1 23 25
M  V30 25 1 23 26
M  V30 26 1 26 27
M  V30 27 1 26 28
M  V30 28 1 26 29
M  V30 29 2 22 30
M  V30 30 2 17 2
M  V30 31 1 30 18
M  V30 32 1 12 8
M  V30 33 1 1 31
M  V30 34 1 1 32
M  V30 35 1 1 33
M  V30 36 1 5 34
M  V30 37 1 9 35
M  V30 38 1 9 36
M  V30 39 1 10 37
M  V30 40 1 10 38
M  V30 41 1 11 39
M  V30 42 1 11 40
M  V30 43 1 12 41 CFG=3
M  V30 44 1 14 42
M  V30 45 1 14 43
M  V30 46 1 19 44
M  V30 47 1 20 45
M  V30 48 1 24 46
M  V30 49 1 24 47
M  V30 50 1 24 48
M  V30 51 1 25 49
M  V30 52 1 25 50
M  V30 53 1 25 51
M  V30 54 1 30 52
M  V30 END BOND
M  V30 END CTAB
M  END
>  <Dataset>  (945) 
ChEMBL_Kinases

>  <Ligand_Instance>  (945) 
nan

>  <PDB_ID>  (945) 
nan

>  <Standardized_SMILES>  (945) 
Cc1nc(NC(=O)N2CCC[C@H]2C(N)=O)sc1-c1ccnc(C(C)(C)C(F)(F)F)c1

>  <Name>  (945) 
ALPELISIB

>  <Pocket>  (945) 
nan

>  <ATP_Site>  (945) 
nan

>  <Peripheral>  (945) 
nan

>  <Num_H_Atoms_ProtBoundConf>  (945) 
nan

>  <Num_Resolved_Atoms>  (945) 
nan

>  <Num_Not_Resolved_Atoms>  (945) 
nan

$$$$
CHEMBL3703161
     RDKit          3D

  0  0  0  0  0  0  0  0  0  0999 V3000
M  V30 BEGIN CTAB
M  V30 COUNTS 57 61 0 0 0
M  V30 BEGIN ATOM
M  V30 1 C 5.510484 -1.545550 5.474406 0
M  V30 2 O 6.646226 -1.938347 4.724254 0
M  V30 3 C 6.577349 -2.495866 3.476521 0
M  V30 4 O 5.332275 -2.381631 3.596531 0
M  V30 5 C 6.368914 -3.084156 2.145915 0
M  V30 6 O 5.061375 -3.141699 1.692460 0
M  V30 7 C 4.235312 -2.073088 1.452808 0
M  V30 8 C 4.322834 -0.700375 1.529898 0
M  V30 9 C 3.241145 0.082196 1.197275 0
M  V30 10 N 2.089421 -0.475816 0.793683 0
M  V30 11 C 0.977888 0.190776 0.441594 0
M  V30 12 C 0.551638 1.568178 0.349155 0
M  V30 13 C 0.229137 2.340390 -0.748042 0
M  V30 14 C -0.163233 3.648015 -0.592666 0
M  V30 15 C -0.245975 4.219805 0.638240 0
M  V30 16 C 0.066874 3.489120 1.772420 0
M  V30 17 C 0.463504 2.164795 1.607185 0
M  V30 18 C 0.051216 -0.763868 0.095104 0
M  V30 19 C -1.311009 -0.971989 -0.383834 0
M  V30 20 C -1.579648 -0.563356 -1.671834 0
M  V30 21 C -2.839611 -0.729555 -2.216959 0
M  V30 22 C -3.829566 -1.301559 -1.481702 0
M  V30 23 C -5.241150 -1.597041 -1.838500 0
M  V30 24 N -6.164119 -1.107908 -0.841162 0
M  V30 25 C -5.693762 -1.238152 -3.205333 0
M  V30 26 C -6.368278 -2.608913 -3.308818 0
M  V30 27 C -5.477518 -3.068883 -2.177552 0
M  V30 28 C -3.582124 -1.725338 -0.168923 0
M  V30 29 C -2.304848 -1.556847 0.383542 0
M  V30 30 N 0.650616 -1.962660 0.255671 0
M  V30 31 C 1.914798 -1.808655 0.688124 0
M  V30 32 C 3.012354 -2.613458 1.025925 0
M  V30 33 H 4.783387 -2.356059 5.649913 0
M  V30 34 H 5.798727 -1.111316 6.442309 0
M  V30 35 H 5.016976 -0.723856 4.913040 0
M  V30 36 H 6.841977 -4.104854 2.184545 0
M  V30 37 H 6.994600 -2.547802 1.374667 0
M  V30 38 H 5.291384 -0.383178 1.851707 0
M  V30 39 H 3.373051 1.149244 1.279725 0
M  V30 40 H 0.324578 1.813535 -1.669953 0
M  V30 41 H -0.391372 4.160280 -1.496138 0
M  V30 42 H -0.557446 5.249868 0.724335 0
M  V30 43 H -0.013634 3.985258 2.723961 0
M  V30 44 H 0.681685 1.693927 2.559693 0
M  V30 45 H -0.898839 -0.094654 -2.383179 0
M  V30 46 H -3.152211 -0.445365 -3.209946 0
M  V30 47 H -7.138490 -1.002981 -1.256999 0
M  V30 48 H -6.315258 -1.820668 -0.075199 0
M  V30 49 H -4.904429 -1.121344 -3.977829 0
M  V30 50 H -6.432551 -0.417696 -3.235840 0
M  V30 51 H -7.424992 -2.634516 -2.984147 0
M  V30 52 H -6.179863 -3.126293 -4.278443 0
M  V30 53 H -4.547231 -3.547500 -2.590723 0
M  V30 54 H -5.946379 -3.645320 -1.373481 0
M  V30 55 H -4.283366 -2.196780 0.530231 0
M  V30 56 H -2.071277 -1.869808 1.394767 0
M  V30 57 H 2.710469 -3.664438 0.888688 0
M  V30 END ATOM
M  V30 BEGIN BOND
M  V30 1 1 1 2
M  V30 2 1 2 3
M  V30 3 2 3 4
M  V30 4 1 3 5
M  V30 5 1 5 6
M  V30 6 1 6 7
M  V30 7 1 7 8
M  V30 8 2 8 9
M  V30 9 1 9 10
M  V30 10 1 10 11
M  V30 11 1 11 12
M  V30 12 2 12 13
M  V30 13 1 13 14
M  V30 14 2 14 15
M  V30 15 1 15 16
M  V30 16 2 16 17
M  V30 17 2 11 18
M  V30 18 1 18 19
M  V30 19 2 19 20
M  V30 20 1 20 21
M  V30 21 2 21 22
M  V30 22 1 22 23
M  V30 23 1 23 24
M  V30 24 1 23 25
M  V30 25 1 25 26
M  V30 26 1 26 27
M  V30 27 1 22 28
M  V30 28 2 28 29
M  V30 29 1 18 30
M  V30 30 2 30 31
M  V30 31 1 31 32
M  V30 32 2 32 7
M  V30 33 1 31 10
M  V30 34 1 17 12
M  V30 35 1 29 19
M  V30 36 1 27 23
M  V30 37 1 1 33
M  V30 38 1 1 34
M  V30 39 1 1 35
M  V30 40 1 5 36
M  V30 41 1 5 37
M  V30 42 1 8 38
M  V30 43 1 9 39
M  V30 44 1 13 40
M  V30 45 1 14 41
M  V30 46 1 15 42
M  V30 47 1 16 43
M  V30 48 1 17 44
M  V30 49 1 20 45
M  V30 50 1 21 46
M  V30 51 1 24 47
M  V30 52 1 24 48
M  V30 53 1 25 49
M  V30 54 1 25 50
M  V30 55 1 26 51
M  V30 56 1 26 52
M  V30 57 1 27 53
M  V30 58 1 27 54
M  V30 59 1 28 55
M  V30 60 1 29 56
M  V30 61 1 32 57
M  V30 END BOND
M  V30 END CTAB
M  END
>  <Dataset>  (946) 
ChEMBL_Kinases

>  <Ligand_Instance>  (946) 
nan

>  <PDB_ID>  (946) 
nan

>  <Standardized_SMILES>  (946) 
COC(=O)COc1ccn2c(-c3ccccc3)c(-c3ccc(C4(N)CCC4)cc3)nc2c1

>  <Name>  (946) 
nan

>  <Pocket>  (946) 
nan

>  <ATP_Site>  (946) 
nan

>  <Peripheral>  (946) 
nan

>  <Num_H_Atoms_ProtBoundConf>  (946) 
nan

>  <Num_Resolved_Atoms>  (946) 
nan

>  <Num_Not_Resolved_Atoms>  (946) 
nan

$$$$
CHEMBL3703162
     RDKit          3D

  0  0  0  0  0  0  0  0  0  0999 V3000
M  V30 BEGIN CTAB
M  V30 COUNTS 55 59 0 0 0
M  V30 BEGIN ATOM
M  V30 1 N 3.210363 -3.357336 6.897957 0
M  V30 2 C 3.588110 -2.560248 5.760378 0
M  V30 3 O 3.739391 -3.256823 4.726190 0
M  V30 4 C 3.653062 -1.178134 6.274366 0
M  V30 5 O 4.016792 -0.245730 5.272497 0
M  V30 6 C 3.278849 -0.045432 4.121488 0
M  V30 7 C 3.821594 0.920220 3.274563 0
M  V30 8 C 3.195629 1.242548 2.066541 0
M  V30 9 N 2.053063 0.627021 1.693257 0
M  V30 10 C 1.230844 0.710155 0.625127 0
M  V30 11 C 1.386156 1.572758 -0.511938 0
M  V30 12 C 0.620864 2.619725 -0.977044 0
M  V30 13 C 0.963912 3.318517 -2.111827 0
M  V30 14 C 2.096220 2.970831 -2.804694 0
M  V30 15 C 2.903323 1.932002 -2.389039 0
M  V30 16 C 2.533134 1.247947 -1.245329 0
M  V30 17 C 0.198510 -0.164093 0.772575 0
M  V30 18 C -0.966490 -0.506318 -0.034828 0
M  V30 19 C -2.054486 0.274739 -0.364522 0
M  V30 20 C -3.077838 -0.212446 -1.149686 0
M  V30 21 C -3.029161 -1.515071 -1.627819 0
M  V30 22 C -4.175190 -1.919248 -2.451410 0
M  V30 23 N -4.757668 -0.868935 -3.273059 0
M  V30 24 C -5.309388 -2.535288 -1.623058 0
M  V30 25 C -4.796165 -3.906647 -2.065786 0
M  V30 26 C -4.079944 -3.198405 -3.204396 0
M  V30 27 C -1.942420 -2.299232 -1.299968 0
M  V30 28 C -0.899712 -1.823676 -0.508011 0
M  V30 29 N 0.400297 -0.792613 1.959519 0
M  V30 30 C 1.532363 -0.303082 2.511494 0
M  V30 31 C 2.116068 -0.652904 3.712758 0
M  V30 32 H 2.268576 -3.763757 7.101113 0
M  V30 33 H 3.271057 -3.880657 7.800482 0
M  V30 34 H 4.400165 -1.084106 7.100136 0
M  V30 35 H 2.664132 -0.851904 6.676289 0
M  V30 36 H 4.740367 1.470483 3.490852 0
M  V30 37 H 3.604654 1.991011 1.397021 0
M  V30 38 H -0.237288 2.804215 -0.356525 0
M  V30 39 H 0.277427 4.096858 -2.344882 0
M  V30 40 H 2.309014 3.569546 -3.698419 0
M  V30 41 H 3.778009 1.707177 -2.974802 0
M  V30 42 H 3.245102 0.443568 -1.006978 0
M  V30 43 H -2.017471 1.264725 0.044067 0
M  V30 44 H -3.853003 0.523496 -1.314668 0
M  V30 45 H -5.219349 -0.116217 -2.689849 0
M  V30 46 H -5.537582 -1.315448 -3.806578 0
M  V30 47 H -5.122389 -2.446786 -0.516322 0
M  V30 48 H -6.322882 -2.311399 -1.958233 0
M  V30 49 H -5.571117 -4.610616 -2.391350 0
M  V30 50 H -4.128511 -4.408701 -1.334300 0
M  V30 51 H -4.680444 -3.259247 -4.120024 0
M  V30 52 H -3.067130 -3.602433 -3.400359 0
M  V30 53 H -1.937924 -3.314354 -1.692090 0
M  V30 54 H -0.112081 -2.550432 -0.332216 0
M  V30 55 H 1.743666 -1.390758 4.408588 0
M  V30 END ATOM
M  V30 BEGIN BOND
M  V30 1 1 1 2
M  V30 2 2 2 3
M  V30 3 1 2 4
M  V30 4 1 4 5
M  V30 5 1 5 6
M  V30 6 1 6 7
M  V30 7 2 7 8
M  V30 8 1 8 9
M  V30 9 1 9 10
M  V30 10 1 10 11
M  V30 11 2 11 12
M  V30 12 1 12 13
M  V30 13 2 13 14
M  V30 14 1 14 15
M  V30 15 2 15 16
M  V30 16 2 10 17
M  V30 17 1 17 18
M  V30 18 2 18 19
M  V30 19 1 19 20
M  V30 20 2 20 21
M  V30 21 1 21 22
M  V30 22 1 22 23
M  V30 23 1 22 24
M  V30 24 1 24 25
M  V30 25 1 25 26
M  V30 26 1 21 27
M  V30 27 2 27 28
M  V30 28 1 17 29
M  V30 29 2 29 30
M  V30 30 1 30 31
M  V30 31 2 31 6
M  V30 32 1 30 9
M  V30 33 1 16 11
M  V30 34 1 28 18
M  V30 35 1 26 22
M  V30 36 1 1 32
M  V30 37 1 1 33
M  V30 38 1 4 34
M  V30 39 1 4 35
M  V30 40 1 7 36
M  V30 41 1 8 37
M  V30 42 1 12 38
M  V30 43 1 13 39
M  V30 44 1 14 40
M  V30 45 1 15 41
M  V30 46 1 16 42
M  V30 47 1 19 43
M  V30 48 1 20 44
M  V30 49 1 23 45
M  V30 50 1 23 46
M  V30 51 1 24 47
M  V30 52 1 24 48
M  V30 53 1 25 49
M  V30 54 1 25 50
M  V30 55 1 26 51
M  V30 56 1 26 52
M  V30 57 1 27 53
M  V30 58 1 28 54
M  V30 59 1 31 55
M  V30 END BOND
M  V30 END CTAB
M  END
>  <Dataset>  (947) 
ChEMBL_Kinases

>  <Ligand_Instance>  (947) 
nan

>  <PDB_ID>  (947) 
nan

>  <Standardized_SMILES>  (947) 
NC(=O)COc1ccn2c(-c3ccccc3)c(-c3ccc(C4(N)CCC4)cc3)nc2c1

>  <Name>  (947) 
nan

>  <Pocket>  (947) 
nan

>  <ATP_Site>  (947) 
nan

>  <Peripheral>  (947) 
nan

>  <Num_H_Atoms_ProtBoundConf>  (947) 
nan

>  <Num_Resolved_Atoms>  (947) 
nan

>  <Num_Not_Resolved_Atoms>  (947) 
nan

$$$$
CHEMBL3703163
     RDKit          3D

  0  0  0  0  0  0  0  0  0  0999 V3000
M  V30 BEGIN CTAB
M  V30 COUNTS 61 65 0 0 0
M  V30 BEGIN ATOM
M  V30 1 C 4.496362 1.220928 2.364106 0
M  V30 2 N 5.393055 0.859217 1.256154 0
M  V30 3 C 6.113064 -0.309312 1.785731 0
M  V30 4 C 5.728102 1.281090 -0.082450 0
M  V30 5 O 6.656852 0.611173 -0.668332 0
M  V30 6 C 5.357864 2.273853 -1.080254 0
M  V30 7 O 4.269994 3.117310 -0.729087 0
M  V30 8 C 3.001603 2.631605 -0.472272 0
M  V30 9 C 1.970080 3.507329 -0.131435 0
M  V30 10 C 0.693643 3.057562 0.131021 0
M  V30 11 N 0.499231 1.729616 0.040119 0
M  V30 12 C -0.665825 1.080884 0.254601 0
M  V30 13 C -2.016224 1.488795 0.624717 0
M  V30 14 C -2.381731 2.132785 1.775619 0
M  V30 15 C -3.699523 2.453312 1.986527 0
M  V30 16 C -4.682014 2.142428 1.061693 0
M  V30 17 C -4.335481 1.488182 -0.115423 0
M  V30 18 C -3.000904 1.173101 -0.310336 0
M  V30 19 C -0.433452 -0.264777 0.058204 0
M  V30 20 C -1.193944 -1.511441 0.111051 0
M  V30 21 C -1.791330 -1.980350 1.263434 0
M  V30 22 C -2.499383 -3.179745 1.230874 0
M  V30 23 C -2.622563 -3.928093 0.052996 0
M  V30 24 C -3.418329 -5.140293 0.308877 0
M  V30 25 N -4.610505 -4.927246 1.107896 0
M  V30 26 C -3.623843 -6.054527 -0.880103 0
M  V30 27 C -2.298938 -6.710163 -0.491903 0
M  V30 28 C -2.635566 -6.299438 0.944043 0
M  V30 29 C -2.017447 -3.440918 -1.087070 0
M  V30 30 C -1.318137 -2.252219 -1.046300 0
M  V30 31 N 0.881342 -0.394022 -0.273482 0
M  V30 32 C 1.457337 0.828640 -0.285610 0
M  V30 33 C 2.738941 1.275042 -0.549635 0
M  V30 34 H 5.059328 1.338906 3.318046 0
M  V30 35 H 4.062998 2.224597 2.125349 0
M  V30 36 H 3.747062 0.417696 2.442450 0
M  V30 37 H 5.417803 -1.129846 2.073412 0
M  V30 38 H 6.850678 -0.672100 1.041675 0
M  V30 39 H 6.689610 -0.034126 2.712780 0
M  V30 40 H 6.224301 2.884333 -1.439549 0
M  V30 41 H 4.987886 1.730153 -2.000804 0
M  V30 42 H 2.169618 4.562795 -0.069996 0
M  V30 43 H -0.092555 3.743284 0.392728 0
M  V30 44 H -1.597287 2.353833 2.460634 0
M  V30 45 H -3.970440 2.957670 2.892842 0
M  V30 46 H -5.730967 2.378938 1.192962 0
M  V30 47 H -5.103230 1.244310 -0.839474 0
M  V30 48 H -2.808117 0.658618 -1.261480 0
M  V30 49 H -1.667920 -1.369046 2.142220 0
M  V30 50 H -2.913565 -3.416982 2.221087 0
M  V30 51 H -4.556972 -5.367804 2.058234 0
M  V30 52 H -5.410674 -5.406280 0.600610 0
M  V30 53 H -4.464456 -6.763625 -0.729123 0
M  V30 54 H -3.598694 -5.540134 -1.843822 0
M  V30 55 H -1.462782 -6.100591 -0.830129 0
M  V30 56 H -2.234028 -7.796000 -0.666993 0
M  V30 57 H -1.777682 -5.982402 1.551993 0
M  V30 58 H -3.283031 -7.005119 1.478304 0
M  V30 59 H -2.177301 -4.093987 -1.925838 0
M  V30 60 H -0.892031 -1.982613 -2.008694 0
M  V30 61 H 3.492299 0.544602 -0.807963 0
M  V30 END ATOM
M  V30 BEGIN BOND
M  V30 1 1 1 2
M  V30 2 1 2 3
M  V30 3 1 2 4
M  V30 4 2 4 5
M  V30 5 1 4 6
M  V30 6 1 6 7
M  V30 7 1 7 8
M  V30 8 1 8 9
M  V30 9 2 9 10
M  V30 10 1 10 11
M  V30 11 1 11 12
M  V30 12 1 12 13
M  V30 13 2 13 14
M  V30 14 1 14 15
M  V30 15 2 15 16
M  V30 16 1 16 17
M  V30 17 2 17 18
M  V30 18 2 12 19
M  V30 19 1 19 20
M  V30 20 2 20 21
M  V30 21 1 21 22
M  V30 22 2 22 23
M  V30 23 1 23 24
M  V30 24 1 24 25
M  V30 25 1 24 26
M  V30 26 1 26 27
M  V30 27 1 27 28
M  V30 28 1 23 29
M  V30 29 2 29 30
M  V30 30 1 19 31
M  V30 31 2 31 32
M  V30 32 1 32 33
M  V30 33 2 33 8
M  V30 34 1 32 11
M  V30 35 1 18 13
M  V30 36 1 30 20
M  V30 37 1 28 24
M  V30 38 1 1 34
M  V30 39 1 1 35
M  V30 40 1 1 36
M  V30 41 1 3 37
M  V30 42 1 3 38
M  V30 43 1 3 39
M  V30 44 1 6 40
M  V30 45 1 6 41
M  V30 46 1 9 42
M  V30 47 1 10 43
M  V30 48 1 14 44
M  V30 49 1 15 45
M  V30 50 1 16 46
M  V30 51 1 17 47
M  V30 52 1 18 48
M  V30 53 1 21 49
M  V30 54 1 22 50
M  V30 55 1 25 51
M  V30 56 1 25 52
M  V30 57 1 26 53
M  V30 58 1 26 54
M  V30 59 1 27 55
M  V30 60 1 27 56
M  V30 61 1 28 57
M  V30 62 1 28 58
M  V30 63 1 29 59
M  V30 64 1 30 60
M  V30 65 1 33 61
M  V30 END BOND
M  V30 END CTAB
M  END
>  <Dataset>  (948) 
ChEMBL_Kinases

>  <Ligand_Instance>  (948) 
nan

>  <PDB_ID>  (948) 
nan

>  <Standardized_SMILES>  (948) 
CN(C)C(=O)COc1ccn2c(-c3ccccc3)c(-c3ccc(C4(N)CCC4)cc3)nc2c1

>  <Name>  (948) 
nan

>  <Pocket>  (948) 
nan

>  <ATP_Site>  (948) 
nan

>  <Peripheral>  (948) 
nan

>  <Num_H_Atoms_ProtBoundConf>  (948) 
nan

>  <Num_Resolved_Atoms>  (948) 
nan

>  <Num_Not_Resolved_Atoms>  (948) 
nan

$$$$
CHEMBL220110
     RDKit          3D

  0  0  0  0  0  0  0  0  0  0999 V3000
M  V30 BEGIN CTAB
M  V30 COUNTS 41 44 0 0 0
M  V30 BEGIN ATOM
M  V30 1 O -2.082895 -0.801755 3.831445 0
M  V30 2 C -1.370311 -1.213485 2.902279 0
M  V30 3 C -1.338213 -1.212536 1.448144 0
M  V30 4 C -0.193206 -1.070349 0.697412 0
M  V30 5 C -0.621290 -1.129320 -0.611506 0
M  V30 6 C 0.251952 -1.031183 -1.774680 0
M  V30 7 N 0.376605 -2.093944 -2.587521 0
M  V30 8 N 1.232338 -1.751047 -3.565186 0
M  V30 9 C 1.640103 -0.484800 -3.366066 0
M  V30 10 C 1.031578 0.003129 -2.229973 0
M  V30 11 C 1.172092 1.318058 -1.662536 0
M  V30 12 C 1.618713 1.804801 -0.464699 0
M  V30 13 C 1.695789 3.115281 -0.064070 0
M  V30 14 C 1.257949 4.043826 -1.013890 0
M  V30 15 C 0.789922 3.641920 -2.251504 0
M  V30 16 Cl 0.279507 4.917836 -3.336682 0
M  V30 17 C 0.743036 2.287770 -2.583734 0
M  V30 18 C -2.014905 -1.305647 -0.590702 0
M  V30 19 N -2.454192 -1.356267 0.697375 0
M  V30 20 N -0.274256 -1.876134 3.566939 0
M  V30 21 C -0.366789 -1.838928 5.029371 0
M  V30 22 C 0.932769 -2.507708 5.490979 0
M  V30 23 C 1.240670 -3.444965 4.332646 0
M  V30 24 C 0.920310 -2.585185 3.131465 0
M  V30 25 H 0.804695 -0.942311 1.053966 0
M  V30 26 H -0.002782 -3.072001 -2.655213 0
M  V30 27 H 2.338255 0.121697 -3.963576 0
M  V30 28 H 1.936208 0.978549 0.186094 0
M  V30 29 H 2.076140 3.309778 0.916516 0
M  V30 30 H 1.308973 5.090105 -0.715953 0
M  V30 31 H 0.351841 2.108395 -3.597988 0
M  V30 32 H -2.660473 -1.390833 -1.444683 0
M  V30 33 H -3.431435 -1.477350 1.023498 0
M  V30 34 H -1.209605 -2.420704 5.400536 0
M  V30 35 H -0.352469 -0.789788 5.387127 0
M  V30 36 H 1.779084 -1.808579 5.538947 0
M  V30 37 H 0.815297 -3.031874 6.458461 0
M  V30 38 H 0.500180 -4.295693 4.370848 0
M  V30 39 H 2.293482 -3.800140 4.340474 0
M  V30 40 H 1.801092 -1.903099 3.007339 0
M  V30 41 H 0.737079 -3.201572 2.223381 0
M  V30 END ATOM
M  V30 BEGIN BOND
M  V30 1 2 1 2
M  V30 2 1 2 3
M  V30 3 2 3 4
M  V30 4 1 4 5
M  V30 5 1 5 6
M  V30 6 1 6 7
M  V30 7 1 7 8
M  V30 8 2 8 9
M  V30 9 1 9 10
M  V30 10 1 10 11
M  V30 11 2 11 12
M  V30 12 1 12 13
M  V30 13 2 13 14
M  V30 14 1 14 15
M  V30 15 1 15 16
M  V30 16 2 15 17
M  V30 17 2 5 18
M  V30 18 1 18 19
M  V30 19 1 2 20
M  V30 20 1 20 21
M  V30 21 1 21 22
M  V30 22 1 22 23
M  V30 23 1 23 24
M  V30 24 1 19 3
M  V30 25 1 24 20
M  V30 26 2 10 6
M  V30 27 1 17 11
M  V30 28 1 4 25
M  V30 29 1 7 26
M  V30 30 1 9 27
M  V30 31 1 12 28
M  V30 32 1 13 29
M  V30 33 1 14 30
M  V30 34 1 17 31
M  V30 35 1 18 32
M  V30 36 1 19 33
M  V30 37 1 21 34
M  V30 38 1 21 35
M  V30 39 1 22 36
M  V30 40 1 22 37
M  V30 41 1 23 38
M  V30 42 1 23 39
M  V30 43 1 24 40
M  V30 44 1 24 41
M  V30 END BOND
M  V30 END CTAB
M  END
>  <Dataset>  (949) 
ChEMBL_Kinases

>  <Ligand_Instance>  (949) 
nan

>  <PDB_ID>  (949) 
nan

>  <Standardized_SMILES>  (949) 
O=C(c1cc(-c2[nH]ncc2-c2cccc(Cl)c2)c[nH]1)N1CCCC1

>  <Name>  (949) 
nan

>  <Pocket>  (949) 
nan

>  <ATP_Site>  (949) 
nan

>  <Peripheral>  (949) 
nan

>  <Num_H_Atoms_ProtBoundConf>  (949) 
nan

>  <Num_Resolved_Atoms>  (949) 
nan

>  <Num_Not_Resolved_Atoms>  (949) 
nan

$$$$
CHEMBL4458451
     RDKit          3D

  0  0  0  0  0  0  0  0  0  0999 V3000
M  V30 BEGIN CTAB
M  V30 COUNTS 38 40 0 0 0
M  V30 BEGIN ATOM
M  V30 1 O 0.643599 -2.632387 3.409570 0
M  V30 2 C 0.114482 -2.014425 2.448826 0
M  V30 3 N 0.171699 -2.529632 1.127142 0
M  V30 4 C 0.795808 -3.751935 0.706573 0
M  V30 5 C 2.276130 -3.616587 0.643175 0
M  V30 6 C 3.206229 -3.880536 1.644141 0
M  V30 7 C 4.531407 -3.676027 1.343982 0
M  V30 8 N 4.953472 -3.240892 0.146485 0
M  V30 9 C 4.128792 -2.970880 -0.851333 0
M  V30 10 C 2.785024 -3.166591 -0.580314 0
M  V30 11 C -0.571002 -0.748584 2.683367 0
M  V30 12 C -1.139467 0.070066 1.735289 0
M  V30 13 C -1.725014 1.186113 2.281249 0
M  V30 14 C -2.405422 2.261136 1.555757 0
M  V30 15 O -3.258500 3.011361 2.092640 0
M  V30 16 C -2.078844 2.477487 0.134667 0
M  V30 17 C -0.687654 2.499731 -0.047908 0
M  V30 18 C -0.127777 2.716559 -1.318798 0
M  V30 19 C -1.030284 2.902081 -2.356186 0
M  V30 20 C -2.404240 2.880578 -2.184089 0
M  V30 21 F -3.268583 3.063790 -3.214905 0
M  V30 22 C -2.929180 2.667656 -0.933031 0
M  V30 23 F -4.229476 2.620107 -0.617510 0
M  V30 24 C -1.505823 1.046375 3.636072 0
M  V30 25 N -0.823007 -0.103069 3.840426 0
M  V30 26 H -0.294348 -1.954027 0.378552 0
M  V30 27 H 0.412615 -4.063351 -0.274834 0
M  V30 28 H 0.541435 -4.566692 1.434212 0
M  V30 29 H 2.749188 -4.219648 2.550173 0
M  V30 30 H 5.217654 -3.900997 2.173137 0
M  V30 31 H 4.436554 -2.614594 -1.839238 0
M  V30 32 H 2.102451 -2.942528 -1.409883 0
M  V30 33 H -1.138171 -0.123989 0.664974 0
M  V30 34 H 0.056858 2.359419 0.748025 0
M  V30 35 H 0.944995 2.732885 -1.446463 0
M  V30 36 H -0.599366 3.074683 -3.354836 0
M  V30 37 H -1.858365 1.787042 4.343061 0
M  V30 38 H -0.519149 -0.460834 4.790013 0
M  V30 END ATOM
M  V30 BEGIN BOND
M  V30 1 2 1 2
M  V30 2 1 2 3
M  V30 3 1 3 4
M  V30 4 1 4 5
M  V30 5 2 5 6
M  V30 6 1 6 7
M  V30 7 2 7 8
M  V30 8 1 8 9
M  V30 9 2 9 10
M  V30 10 1 2 11
M  V30 11 2 11 12
M  V30 12 1 12 13
M  V30 13 1 13 14
M  V30 14 2 14 15
M  V30 15 1 14 16
M  V30 16 2 16 17
M  V30 17 1 17 18
M  V30 18 2 18 19
M  V30 19 1 19 20
M  V30 20 1 20 21
M  V30 21 2 20 22
M  V30 22 1 22 23
M  V30 23 2 13 24
M  V30 24 1 24 25
M  V30 25 1 10 5
M  V30 26 1 25 11
M  V30 27 1 22 16
M  V30 28 1 3 26
M  V30 29 1 4 27
M  V30 30 1 4 28
M  V30 31 1 6 29
M  V30 32 1 7 30
M  V30 33 1 9 31
M  V30 34 1 10 32
M  V30 35 1 12 33
M  V30 36 1 17 34
M  V30 37 1 18 35
M  V30 38 1 19 36
M  V30 39 1 24 37
M  V30 40 1 25 38
M  V30 END BOND
M  V30 END CTAB
M  END
>  <Dataset>  (950) 
ChEMBL_Kinases

>  <Ligand_Instance>  (950) 
nan

>  <PDB_ID>  (950) 
nan

>  <Standardized_SMILES>  (950) 
O=C(NCc1ccncc1)c1cc(C(=O)c2cccc(F)c2F)c[nH]1

>  <Name>  (950) 
nan

>  <Pocket>  (950) 
nan

>  <ATP_Site>  (950) 
nan

>  <Peripheral>  (950) 
nan

>  <Num_H_Atoms_ProtBoundConf>  (950) 
nan

>  <Num_Resolved_Atoms>  (950) 
nan

>  <Num_Not_Resolved_Atoms>  (950) 
nan

$$$$
CHEMBL3695594
     RDKit          3D

  0  0  0  0  0  0  0  0  0  0999 V3000
M  V30 BEGIN CTAB
M  V30 COUNTS 75 80 0 0 0
M  V30 BEGIN ATOM
M  V30 1 C 2.961784 -0.763246 5.562724 0
M  V30 2 O 2.430727 0.273646 4.773757 0
M  V30 3 C 2.678153 0.444381 3.420634 0
M  V30 4 C 3.468031 -0.353273 2.630065 0
M  V30 5 C 3.611411 -0.044676 1.294198 0
M  V30 6 C 2.979540 1.060313 0.700091 0
M  V30 7 N 3.303605 1.162666 -0.670898 0
M  V30 8 N 4.413963 1.912596 -0.766749 0
M  V30 9 C 4.758440 2.028414 -2.068693 0
M  V30 10 C 5.879781 2.731822 -2.770607 0
M  V30 11 C 5.487772 4.120404 -3.145471 0
M  V30 12 C 6.342736 1.913993 -3.961230 0
M  V30 13 C 7.087552 2.805166 -1.826912 0
M  V30 14 C 3.838964 1.331564 -2.815523 0
M  V30 15 C 2.949940 0.809324 -1.889735 0
M  V30 16 N 1.818827 0.014564 -2.108591 0
M  V30 17 C 0.756036 -0.624625 -1.492765 0
M  V30 18 O 0.864724 -0.383626 -0.297735 0
M  V30 19 N -0.299676 -1.414283 -1.993457 0
M  V30 20 C -1.218765 -1.891099 -0.989350 0
M  V30 21 C -2.267330 -1.020406 -0.775266 0
M  V30 22 C -3.170540 -1.445093 0.176110 0
M  V30 23 C -3.128063 -2.605339 0.901699 0
M  V30 24 O -3.877250 -3.155668 1.819112 0
M  V30 25 C -4.964190 -3.103777 2.592606 0
M  V30 26 C -6.302202 -3.037223 1.994472 0
M  V30 27 C -6.984873 -4.260556 1.878952 0
M  V30 28 C -8.242289 -4.436974 1.322488 0
M  V30 29 N -8.849850 -3.338522 0.858286 0
M  V30 30 C -8.282189 -2.120637 0.922255 0
M  V30 31 N -8.854370 -0.981785 0.480761 0
M  V30 32 C -8.247652 0.218471 0.578565 0
M  V30 33 O -8.843545 1.248245 0.142664 0
M  V30 34 C -7.008721 0.315795 1.140525 0
M  V30 35 N -6.426097 -0.805430 1.583595 0
M  V30 36 C -7.032788 -1.997503 1.483970 0
M  V30 37 C -2.028138 -3.427045 0.617835 0
M  V30 38 C -1.757778 -4.657751 1.220851 0
M  V30 39 C -0.680449 -5.469135 0.947663 0
M  V30 40 C 0.207433 -5.022830 -0.006531 0
M  V30 41 C 0.052187 -3.826129 -0.673037 0
M  V30 42 C -1.053779 -3.088662 -0.330147 0
M  V30 43 C 2.176749 1.863799 1.522656 0
M  V30 44 C 2.036396 1.551742 2.855794 0
M  V30 45 H 3.847547 -0.322293 6.083204 0
M  V30 46 H 3.294434 -1.634379 4.975142 0
M  V30 47 H 2.272038 -1.128410 6.349476 0
M  V30 48 H 3.944594 -1.196297 3.102016 0
M  V30 49 H 4.263882 -0.754010 0.770953 0
M  V30 50 H 5.902037 4.827537 -2.402272 0
M  V30 51 H 4.384515 4.236156 -3.089362 0
M  V30 52 H 5.883340 4.343182 -4.156744 0
M  V30 53 H 6.130171 0.831389 -3.819763 0
M  V30 54 H 7.451070 1.989646 -4.092614 0
M  V30 55 H 5.915299 2.309405 -4.917148 0
M  V30 56 H 7.956080 3.118478 -2.403051 0
M  V30 57 H 7.278454 1.844401 -1.328017 0
M  V30 58 H 6.773767 3.519700 -1.036996 0
M  V30 59 H 3.774147 1.188349 -3.886629 0
M  V30 60 H 1.680208 -0.219109 -3.114847 0
M  V30 61 H -0.275564 -1.549764 -3.028525 0
M  V30 62 H -2.400995 -0.082449 -1.287045 0
M  V30 63 H -4.007375 -0.813257 0.394176 0
M  V30 64 H -4.896153 -2.146922 3.226551 0
M  V30 65 H -4.944792 -3.974526 3.336938 0
M  V30 66 H -6.516300 -5.184077 2.250433 0
M  V30 67 H -8.689511 -5.417178 1.275492 0
M  V30 68 H -9.795070 -1.057301 0.054985 0
M  V30 69 H -6.548988 1.288269 1.207033 0
M  V30 70 H -2.472166 -4.991940 1.972202 0
M  V30 71 H -0.587258 -6.390552 1.482071 0
M  V30 72 H 1.061136 -5.644860 -0.236721 0
M  V30 73 H 0.738825 -3.486666 -1.407068 0
M  V30 74 H 1.753252 2.665091 0.966469 0
M  V30 75 H 1.401279 2.219656 3.420876 0
M  V30 END ATOM
M  V30 BEGIN BOND
M  V30 1 1 1 2
M  V30 2 1 2 3
M  V30 3 2 3 4
M  V30 4 1 4 5
M  V30 5 2 5 6
M  V30 6 1 6 7
M  V30 7 1 7 8
M  V30 8 2 8 9
M  V30 9 1 9 10
M  V30 10 1 10 11
M  V30 11 1 10 12
M  V30 12 1 10 13
M  V30 13 1 9 14
M  V30 14 2 14 15
M  V30 15 1 15 16
M  V30 16 1 16 17
M  V30 17 2 17 18
M  V30 18 1 17 19
M  V30 19 1 19 20
M  V30 20 2 20 21
M  V30 21 1 21 22
M  V30 22 2 22 23
M  V30 23 1 23 24
M  V30 24 1 24 25
M  V30 25 1 25 26
M  V30 26 2 26 27
M  V30 27 1 27 28
M  V30 28 2 28 29
M  V30 29 1 29 30
M  V30 30 1 30 31
M  V30 31 1 31 32
M  V30 32 2 32 33
M  V30 33 1 32 34
M  V30 34 2 34 35
M  V30 35 1 35 36
M  V30 36 1 23 37
M  V30 37 2 37 38
M  V30 38 1 38 39
M  V30 39 2 39 40
M  V30 40 1 40 41
M  V30 41 2 41 42
M  V30 42 1 6 43
M  V30 43 2 43 44
M  V30 44 1 44 3
M  V30 45 1 15 7
M  V30 46 1 42 20
M  V30 47 1 36 26
M  V30 48 1 42 37
M  V30 49 2 36 30
M  V30 50 1 1 45
M  V30 51 1 1 46
M  V30 52 1 1 47
M  V30 53 1 4 48
M  V30 54 1 5 49
M  V30 55 1 11 50
M  V30 56 1 11 51
M  V30 57 1 11 52
M  V30 58 1 12 53
M  V30 59 1 12 54
M  V30 60 1 12 55
M  V30 61 1 13 56
M  V30 62 1 13 57
M  V30 63 1 13 58
M  V30 64 1 14 59
M  V30 65 1 16 60
M  V30 66 1 19 61
M  V30 67 1 21 62
M  V30 68 1 22 63
M  V30 69 1 25 64
M  V30 70 1 25 65
M  V30 71 1 27 66
M  V30 72 1 28 67
M  V30 73 1 31 68
M  V30 74 1 34 69
M  V30 75 1 38 70
M  V30 76 1 39 71
M  V30 77 1 40 72
M  V30 78 1 41 73
M  V30 79 1 43 74
M  V30 80 1 44 75
M  V30 END BOND
M  V30 END CTAB
M  END
>  <Dataset>  (951) 
ChEMBL_Kinases

>  <Ligand_Instance>  (951) 
nan

>  <PDB_ID>  (951) 
nan

>  <Standardized_SMILES>  (951) 
COc1ccc(-n2nc(C(C)(C)C)cc2NC(=O)Nc2ccc(OCc3ccnc4[nH]c(=O)cnc34)c3ccccc23)cc1

>  <Name>  (951) 
nan

>  <Pocket>  (951) 
nan

>  <ATP_Site>  (951) 
nan

>  <Peripheral>  (951) 
nan

>  <Num_H_Atoms_ProtBoundConf>  (951) 
nan

>  <Num_Resolved_Atoms>  (951) 
nan

>  <Num_Not_Resolved_Atoms>  (951) 
nan

$$$$
CHEMBL2391102
     RDKit          3D

  0  0  0  0  0  0  0  0  0  0999 V3000
M  V30 BEGIN CTAB
M  V30 COUNTS 48 51 0 0 0
M  V30 BEGIN ATOM
M  V30 1 C -0.037992 -4.755403 2.853896 0
M  V30 2 C 0.574728 -4.034597 1.711583 0
M  V30 3 O -0.237110 -3.925210 0.764730 0
M  V30 4 N 1.919835 -3.595071 1.845322 0
M  V30 5 C 2.801955 -2.890306 0.970219 0
M  V30 6 C 2.823412 -1.504249 1.017980 0
M  V30 7 C 3.625872 -0.746515 0.227315 0
M  V30 8 C 3.588966 0.730458 0.339300 0
M  V30 9 N 4.272006 1.650917 -0.319134 0
M  V30 10 N 3.915246 2.863036 0.109595 0
M  V30 11 C 2.978884 2.676469 1.066144 0
M  V30 12 S 1.996060 3.722761 2.132435 0
M  V30 13 C 0.428477 4.166953 1.330183 0
M  V30 14 C -0.460827 2.997281 1.129585 0
M  V30 15 C -0.343027 2.283889 -0.066364 0
M  V30 16 C -1.115974 1.175363 -0.370705 0
M  V30 17 C -2.052754 0.756557 0.562335 0
M  V30 18 C -2.818425 -0.415886 0.156326 0
M  V30 19 C -2.185727 -1.521100 -0.415969 0
M  V30 20 C -2.802477 -2.677834 -0.835547 0
M  V30 21 C -4.178958 -2.732836 -0.666589 0
M  V30 22 C -4.874930 -1.663504 -0.101107 0
M  V30 23 C -4.196664 -0.512985 0.307173 0
M  V30 24 C -4.916338 0.585307 0.888283 0
M  V30 25 N -5.499927 1.461925 1.366468 0
M  V30 26 C -2.185969 1.445540 1.748995 0
M  V30 27 C -1.404150 2.547049 2.029141 0
M  V30 28 O 2.803207 1.362097 1.181436 0
M  V30 29 C 4.471196 -1.356559 -0.676505 0
M  V30 30 C 4.443140 -2.755359 -0.718015 0
M  V30 31 N 3.631922 -3.471227 0.083717 0
M  V30 32 H -0.403457 -5.762107 2.553636 0
M  V30 33 H 0.622045 -4.896066 3.711307 0
M  V30 34 H -0.956983 -4.184704 3.176248 0
M  V30 35 H 2.430483 -3.790578 2.734380 0
M  V30 36 H 2.162363 -1.021002 1.725200 0
M  V30 37 H 0.687035 4.583308 0.325113 0
M  V30 38 H -0.070236 4.972103 1.902300 0
M  V30 39 H 0.392237 2.616005 -0.794364 0
M  V30 40 H -0.955144 0.685666 -1.321788 0
M  V30 41 H -1.094929 -1.456894 -0.541145 0
M  V30 42 H -2.229772 -3.479781 -1.266774 0
M  V30 43 H -4.669224 -3.649222 -0.999036 0
M  V30 44 H -5.935401 -1.766842 0.002571 0
M  V30 45 H -2.931384 1.075005 2.439340 0
M  V30 46 H -1.504337 3.087513 2.952544 0
M  V30 47 H 5.133278 -0.777581 -1.330886 0
M  V30 48 H 5.103792 -3.268998 -1.426146 0
M  V30 END ATOM
M  V30 BEGIN BOND
M  V30 1 1 1 2
M  V30 2 2 2 3
M  V30 3 1 2 4
M  V30 4 1 4 5
M  V30 5 2 5 6
M  V30 6 1 6 7
M  V30 7 1 7 8
M  V30 8 2 8 9
M  V30 9 1 9 10
M  V30 10 2 10 11
M  V30 11 1 11 12
M  V30 12 1 12 13
M  V30 13 1 13 14
M  V30 14 2 14 15
M  V30 15 1 15 16
M  V30 16 2 16 17
M  V30 17 1 17 18
M  V30 18 2 18 19
M  V30 19 1 19 20
M  V30 20 2 20 21
M  V30 21 1 21 22
M  V30 22 2 22 23
M  V30 23 1 23 24
M  V30 24 3 24 25
M  V30 25 1 17 26
M  V30 26 2 26 27
M  V30 27 1 11 28
M  V30 28 2 7 29
M  V30 29 1 29 30
M  V30 30 2 30 31
M  V30 31 1 31 5
M  V30 32 1 28 8
M  V30 33 1 27 14
M  V30 34 1 23 18
M  V30 35 1 1 32
M  V30 36 1 1 33
M  V30 37 1 1 34
M  V30 38 1 4 35
M  V30 39 1 6 36
M  V30 40 1 13 37
M  V30 41 1 13 38
M  V30 42 1 15 39
M  V30 43 1 16 40
M  V30 44 1 19 41
M  V30 45 1 20 42
M  V30 46 1 21 43
M  V30 47 1 22 44
M  V30 48 1 26 45
M  V30 49 1 27 46
M  V30 50 1 29 47
M  V30 51 1 30 48
M  V30 END BOND
M  V30 END CTAB
M  END
>  <Dataset>  (952) 
ChEMBL_Kinases

>  <Ligand_Instance>  (952) 
nan

>  <PDB_ID>  (952) 
nan

>  <Standardized_SMILES>  (952) 
CC(=O)Nc1cc(-c2nnc(SCc3ccc(-c4ccccc4C#N)cc3)o2)ccn1

>  <Name>  (952) 
nan

>  <Pocket>  (952) 
nan

>  <ATP_Site>  (952) 
nan

>  <Peripheral>  (952) 
nan

>  <Num_H_Atoms_ProtBoundConf>  (952) 
nan

>  <Num_Resolved_Atoms>  (952) 
nan

>  <Num_Not_Resolved_Atoms>  (952) 
nan

$$$$
CHEMBL2391117
     RDKit          3D

  0  0  0  0  0  0  0  0  0  0999 V3000
M  V30 BEGIN CTAB
M  V30 COUNTS 44 48 0 0 0
M  V30 BEGIN ATOM
M  V30 1 F -0.119768 -5.302975 -2.220479 0
M  V30 2 C 0.780598 -4.617520 -1.456687 0
M  V30 3 C 1.512662 -5.254744 -0.451790 0
M  V30 4 C 2.424519 -4.565669 0.323322 0
M  V30 5 F 3.150753 -5.164581 1.309482 0
M  V30 6 C 2.642351 -3.216379 0.127700 0
M  V30 7 C 1.923317 -2.576070 -0.863955 0
M  V30 8 C 2.033794 -1.160007 -1.198915 0
M  V30 9 C 1.862029 -0.585460 -2.413552 0
M  V30 10 C 1.991332 0.772826 -2.619692 0
M  V30 11 C 2.306485 1.603411 -1.570451 0
M  V30 12 C 2.468768 3.091837 -1.693172 0
M  V30 13 S 0.837494 3.846992 -1.396507 0
M  V30 14 C 0.346571 3.566887 0.302006 0
M  V30 15 N 0.495469 4.201608 1.476240 0
M  V30 16 N -0.119411 3.450480 2.373435 0
M  V30 17 C -0.649558 2.364096 1.798681 0
M  V30 18 C -1.412633 1.274176 2.427245 0
M  V30 19 C -1.849786 0.267323 1.610656 0
M  V30 20 C -2.575071 -0.803224 2.101657 0
M  V30 21 C -2.816398 -0.770473 3.461778 0
M  V30 22 C -2.385157 0.236263 4.308806 0
M  V30 23 C -1.657775 1.297658 3.778697 0
M  V30 24 O -2.838948 -0.115387 5.594837 0
M  V30 25 C -3.044707 -1.527606 5.579903 0
M  V30 26 O -3.517942 -1.704902 4.247753 0
M  V30 27 O -0.350476 2.458610 0.530068 0
M  V30 28 C 2.483735 1.011066 -0.317347 0
M  V30 29 C 2.355515 -0.339482 -0.110595 0
M  V30 30 C 1.002045 -3.256019 -1.652277 0
M  V30 31 H 1.355003 -6.322237 -0.280951 0
M  V30 32 H 3.336396 -2.582508 0.682640 0
M  V30 33 H 1.614455 -1.264756 -3.221031 0
M  V30 34 H 1.850221 1.212664 -3.597493 0
M  V30 35 H 2.896190 3.403112 -2.644014 0
M  V30 36 H 3.129794 3.416376 -0.866333 0
M  V30 37 H -1.644145 0.265139 0.530578 0
M  V30 38 H -2.917459 -1.588812 1.471072 0
M  V30 39 H -1.322059 2.078123 4.428451 0
M  V30 40 H -2.101500 -2.085051 5.657078 0
M  V30 41 H -3.739782 -1.861840 6.349761 0
M  V30 42 H 2.734055 1.681780 0.509164 0
M  V30 43 H 2.516092 -0.701919 0.915509 0
M  V30 44 H 0.410814 -2.803624 -2.443690 0
M  V30 END ATOM
M  V30 BEGIN BOND
M  V30 1 1 1 2
M  V30 2 2 2 3
M  V30 3 1 3 4
M  V30 4 1 4 5
M  V30 5 2 4 6
M  V30 6 1 6 7
M  V30 7 1 7 8
M  V30 8 2 8 9
M  V30 9 1 9 10
M  V30 10 2 10 11
M  V30 11 1 11 12
M  V30 12 1 12 13
M  V30 13 1 13 14
M  V30 14 2 14 15
M  V30 15 1 15 16
M  V30 16 2 16 17
M  V30 17 1 17 18
M  V30 18 2 18 19
M  V30 19 1 19 20
M  V30 20 2 20 21
M  V30 21 1 21 22
M  V30 22 2 22 23
M  V30 23 1 22 24
M  V30 24 1 24 25
M  V30 25 1 25 26
M  V30 26 1 17 27
M  V30 27 1 11 28
M  V30 28 2 28 29
M  V30 29 2 7 30
M  V30 30 1 30 2
M  V30 31 1 29 8
M  V30 32 1 27 14
M  V30 33 1 23 18
M  V30 34 1 26 21
M  V30 35 1 3 31
M  V30 36 1 6 32
M  V30 37 1 9 33
M  V30 38 1 10 34
M  V30 39 1 12 35
M  V30 40 1 12 36
M  V30 41 1 19 37
M  V30 42 1 20 38
M  V30 43 1 23 39
M  V30 44 1 25 40
M  V30 45 1 25 41
M  V30 46 1 28 42
M  V30 47 1 29 43
M  V30 48 1 30 44
M  V30 END BOND
M  V30 END CTAB
M  END
>  <Dataset>  (953) 
ChEMBL_Kinases

>  <Ligand_Instance>  (953) 
nan

>  <PDB_ID>  (953) 
nan

>  <Standardized_SMILES>  (953) 
Fc1cc(F)cc(-c2ccc(CSc3nnc(-c4ccc5c(c4)OCO5)o3)cc2)c1

>  <Name>  (953) 
nan

>  <Pocket>  (953) 
nan

>  <ATP_Site>  (953) 
nan

>  <Peripheral>  (953) 
nan

>  <Num_H_Atoms_ProtBoundConf>  (953) 
nan

>  <Num_Resolved_Atoms>  (953) 
nan

>  <Num_Not_Resolved_Atoms>  (953) 
nan

$$$$
CHEMBL3695593
     RDKit          3D

  0  0  0  0  0  0  0  0  0  0999 V3000
M  V30 BEGIN CTAB
M  V30 COUNTS 68 73 0 0 0
M  V30 BEGIN ATOM
M  V30 1 C 6.213411 -2.416835 3.934900 0
M  V30 2 C 5.382188 -2.167860 2.766414 0
M  V30 3 C 4.123733 -2.642501 2.571623 0
M  V30 4 C 3.378900 -2.385385 1.465083 0
M  V30 5 C 4.129478 -1.520774 0.509939 0
M  V30 6 N 3.612632 -1.011198 -0.867166 0
M  V30 7 N 3.919596 -1.706968 -1.922054 0
M  V30 8 C 3.395546 -1.120152 -3.032120 0
M  V30 9 C 3.472456 -1.533752 -4.456640 0
M  V30 10 C 4.283323 -2.817008 -4.530637 0
M  V30 11 C 4.115741 -0.478056 -5.319732 0
M  V30 12 C 2.076269 -1.870862 -4.926701 0
M  V30 13 C 2.751773 -0.012557 -2.521610 0
M  V30 14 C 2.882375 0.066564 -1.152924 0
M  V30 15 N 2.432590 0.972083 -0.155553 0
M  V30 16 C 1.173336 0.752368 0.470627 0
M  V30 17 O 0.506221 -0.257357 0.099333 0
M  V30 18 N 0.561448 1.554068 1.489725 0
M  V30 19 C -0.714281 1.085531 1.930289 0
M  V30 20 C -1.766059 1.608101 1.205809 0
M  V30 21 C -3.051484 1.231009 1.535667 0
M  V30 22 C -3.326721 0.351835 2.561379 0
M  V30 23 O -4.524374 -0.119807 3.011995 0
M  V30 24 C -5.778290 0.149690 2.559006 0
M  V30 25 C -6.656503 0.730510 3.453354 0
M  V30 26 C -7.963208 1.040952 3.073820 0
M  V30 27 N -8.361255 0.763598 1.809486 0
M  V30 28 C -7.525226 0.196453 0.914388 0
M  V30 29 N -7.958292 -0.065236 -0.332736 0
M  V30 30 C -7.162501 -0.633375 -1.267190 0
M  V30 31 O -7.533856 -0.892984 -2.444980 0
M  V30 32 C -5.883450 -0.919404 -0.840555 0
M  V30 33 N -5.398468 -0.678299 0.396061 0
M  V30 34 C -6.215888 -0.118571 1.282525 0
M  V30 35 C -2.250164 -0.164542 3.280894 0
M  V30 36 C -2.363012 -1.050986 4.330672 0
M  V30 37 C -1.259330 -1.528170 5.005687 0
M  V30 38 C 0.010147 -1.134104 4.654095 0
M  V30 39 C 0.184849 -0.246412 3.608684 0
M  V30 40 C -0.944071 0.201967 2.965693 0
M  V30 41 S 5.795107 -1.212331 1.356721 0
M  V30 42 H 6.763851 -3.348697 3.804568 0
M  V30 43 H 5.606828 -2.460939 4.879721 0
M  V30 44 H 6.918844 -1.567105 4.039316 0
M  V30 45 H 3.586400 -3.269175 3.270013 0
M  V30 46 H 2.413810 -2.618681 1.074749 0
M  V30 47 H 4.959818 -2.804314 -5.411713 0
M  V30 48 H 3.612951 -3.713496 -4.575090 0
M  V30 49 H 4.926100 -2.975475 -3.634697 0
M  V30 50 H 3.802111 0.507209 -4.907746 0
M  V30 51 H 5.208731 -0.592649 -5.263282 0
M  V30 52 H 3.723411 -0.613932 -6.333522 0
M  V30 53 H 1.813104 -2.922820 -4.737985 0
M  V30 54 H 1.986248 -1.682730 -6.017760 0
M  V30 55 H 1.313213 -1.242418 -4.412833 0
M  V30 56 H 2.186603 0.754312 -3.069341 0
M  V30 57 H 2.953237 1.831978 0.190633 0
M  V30 58 H 1.137867 2.385162 1.778254 0
M  V30 59 H -1.657908 2.304951 0.382211 0
M  V30 60 H -3.910661 1.594004 1.023068 0
M  V30 61 H -6.416505 0.982343 4.477441 0
M  V30 62 H -8.679812 1.500808 3.759742 0
M  V30 63 H -8.939174 0.160743 -0.639454 0
M  V30 64 H -5.195785 -1.376202 -1.543374 0
M  V30 65 H -3.362961 -1.358040 4.603595 0
M  V30 66 H -1.393792 -2.222932 5.824249 0
M  V30 67 H 0.889551 -1.495923 5.169893 0
M  V30 68 H 1.172012 0.063911 3.330838 0
M  V30 END ATOM
M  V30 BEGIN BOND
M  V30 1 1 1 2
M  V30 2 2 2 3
M  V30 3 1 3 4
M  V30 4 2 4 5
M  V30 5 1 5 6
M  V30 6 1 6 7
M  V30 7 2 7 8
M  V30 8 1 8 9
M  V30 9 1 9 10
M  V30 10 1 9 11
M  V30 11 1 9 12
M  V30 12 1 8 13
M  V30 13 2 13 14
M  V30 14 1 14 15
M  V30 15 1 15 16
M  V30 16 2 16 17
M  V30 17 1 16 18
M  V30 18 1 18 19
M  V30 19 2 19 20
M  V30 20 1 20 21
M  V30 21 2 21 22
M  V30 22 1 22 23
M  V30 23 1 23 24
M  V30 24 2 24 25
M  V30 25 1 25 26
M  V30 26 2 26 27
M  V30 27 1 27 28
M  V30 28 1 28 29
M  V30 29 1 29 30
M  V30 30 2 30 31
M  V30 31 1 30 32
M  V30 32 2 32 33
M  V30 33 1 33 34
M  V30 34 1 22 35
M  V30 35 2 35 36
M  V30 36 1 36 37
M  V30 37 2 37 38
M  V30 38 1 38 39
M  V30 39 2 39 40
M  V30 40 1 5 41
M  V30 41 1 41 2
M  V30 42 1 14 6
M  V30 43 1 40 19
M  V30 44 1 34 24
M  V30 45 1 40 35
M  V30 46 2 34 28
M  V30 47 1 1 42
M  V30 48 1 1 43
M  V30 49 1 1 44
M  V30 50 1 3 45
M  V30 51 1 4 46
M  V30 52 1 10 47
M  V30 53 1 10 48
M  V30 54 1 10 49
M  V30 55 1 11 50
M  V30 56 1 11 51
M  V30 57 1 11 52
M  V30 58 1 12 53
M  V30 59 1 12 54
M  V30 60 1 12 55
M  V30 61 1 13 56
M  V30 62 1 15 57
M  V30 63 1 18 58
M  V30 64 1 20 59
M  V30 65 1 21 60
M  V30 66 1 25 61
M  V30 67 1 26 62
M  V30 68 1 29 63
M  V30 69 1 32 64
M  V30 70 1 36 65
M  V30 71 1 37 66
M  V30 72 1 38 67
M  V30 73 1 39 68
M  V30 END BOND
M  V30 END CTAB
M  END
>  <Dataset>  (954) 
ChEMBL_Kinases

>  <Ligand_Instance>  (954) 
nan

>  <PDB_ID>  (954) 
nan

>  <Standardized_SMILES>  (954) 
Cc1ccc(-n2nc(C(C)(C)C)cc2NC(=O)Nc2ccc(Oc3ccnc4[nH]c(=O)cnc34)c3ccccc23)s1

>  <Name>  (954) 
nan

>  <Pocket>  (954) 
nan

>  <ATP_Site>  (954) 
nan

>  <Peripheral>  (954) 
nan

>  <Num_H_Atoms_ProtBoundConf>  (954) 
nan

>  <Num_Resolved_Atoms>  (954) 
nan

>  <Num_Not_Resolved_Atoms>  (954) 
nan

$$$$
CHEMBL3695592
     RDKit          3D

  0  0  0  0  0  0  0  0  0  0999 V3000
M  V30 BEGIN CTAB
M  V30 COUNTS 71 76 0 0 0
M  V30 BEGIN ATOM
M  V30 1 C 0.852968 -2.224682 5.848543 0
M  V30 2 C 2.174055 -1.472723 5.788313 0
M  V30 3 C 2.075448 -0.192781 6.590144 0
M  V30 4 C 3.210746 -2.400494 6.423115 0
M  V30 5 C 2.490118 -1.178180 4.363474 0
M  V30 6 C 2.070904 -0.008853 3.733287 0
M  V30 7 C 2.535249 -0.069198 2.434433 0
M  V30 8 N 2.425601 0.828792 1.312261 0
M  V30 9 C 1.294490 0.663884 0.435059 0
M  V30 10 O 0.462722 -0.263588 0.705103 0
M  V30 11 N 0.990247 1.432790 -0.723958 0
M  V30 12 C -0.208213 1.038034 -1.403303 0
M  V30 13 C -0.326826 0.110835 -2.412905 0
M  V30 14 C -1.574209 -0.148312 -2.958383 0
M  V30 15 C -2.720089 0.514025 -2.503817 0
M  V30 16 O -3.839338 0.100126 -3.184863 0
M  V30 17 C -4.943746 -0.524511 -2.689326 0
M  V30 18 C -5.288275 -0.951404 -1.400570 0
M  V30 19 C -6.486605 -1.573473 -1.133614 0
M  V30 20 N -7.384236 -1.799371 -2.106736 0
M  V30 21 C -7.092839 -1.403830 -3.365193 0
M  V30 22 N -8.067655 -1.684219 -4.250305 0
M  V30 23 C -7.877313 -1.331402 -5.533285 0
M  V30 24 O -8.723216 -1.548146 -6.431066 0
M  V30 25 C -6.707985 -0.709610 -5.865798 0
M  V30 26 N -5.750878 -0.440388 -4.967266 0
M  V30 27 C -5.896401 -0.771597 -3.686298 0
M  V30 28 C -2.557685 1.435445 -1.491990 0
M  V30 29 C -3.736215 2.042318 -1.115011 0
M  V30 30 C -3.706475 2.989560 -0.113629 0
M  V30 31 C -2.495654 3.284030 0.462620 0
M  V30 32 C -1.330415 2.665037 0.068979 0
M  V30 33 C -1.324874 1.700111 -0.943535 0
M  V30 34 N 3.196586 -1.206470 2.284609 0
M  V30 35 C 3.869437 -1.752508 1.144652 0
M  V30 36 C 3.442118 -2.820847 0.369249 0
M  V30 37 C 4.224591 -3.219306 -0.705845 0
M  V30 38 C 5.406919 -2.578569 -1.013528 0
M  V30 39 C 6.209526 -3.046236 -2.179129 0
M  V30 40 O 5.803507 -2.364035 -3.308987 0
M  V30 41 N 5.784879 -1.546578 -0.235484 0
M  V30 42 C 5.059088 -1.125286 0.816538 0
M  V30 43 N 3.181693 -1.891385 3.437018 0
M  V30 44 H 0.487271 -2.435374 4.806668 0
M  V30 45 H 0.071026 -1.617827 6.370093 0
M  V30 46 H 0.922474 -3.183165 6.379790 0
M  V30 47 H 1.081674 0.296259 6.411887 0
M  V30 48 H 2.151314 -0.461100 7.672698 0
M  V30 49 H 2.934613 0.425934 6.329406 0
M  V30 50 H 2.729154 -3.131065 7.106472 0
M  V30 51 H 4.056013 -1.870188 6.866165 0
M  V30 52 H 3.611174 -3.015396 5.583048 0
M  V30 53 H 1.500391 0.845946 4.066678 0
M  V30 54 H 3.045812 1.603802 1.016317 0
M  V30 55 H 1.683115 2.195438 -0.937869 0
M  V30 56 H 0.591190 -0.360350 -2.713703 0
M  V30 57 H -1.544148 -0.905211 -3.755513 0
M  V30 58 H -4.495538 -0.719975 -0.701437 0
M  V30 59 H -6.543013 -1.817992 -0.069537 0
M  V30 60 H -8.951980 -2.150951 -4.015815 0
M  V30 61 H -6.501058 -0.403158 -6.883488 0
M  V30 62 H -4.696705 1.830003 -1.561411 0
M  V30 63 H -4.597003 3.499982 0.226052 0
M  V30 64 H -2.419946 4.015105 1.247405 0
M  V30 65 H -0.359969 2.884429 0.513299 0
M  V30 66 H 2.506023 -3.267597 0.676892 0
M  V30 67 H 3.828275 -4.072507 -1.279276 0
M  V30 68 H 7.306846 -2.839171 -2.048411 0
M  V30 69 H 6.135856 -4.142944 -2.315401 0
M  V30 70 H 4.882791 -2.614147 -3.564400 0
M  V30 71 H 5.499873 -0.275218 1.349420 0
M  V30 END ATOM
M  V30 BEGIN BOND
M  V30 1 1 1 2
M  V30 2 1 2 3
M  V30 3 1 2 4
M  V30 4 1 2 5
M  V30 5 1 5 6
M  V30 6 2 6 7
M  V30 7 1 7 8
M  V30 8 1 8 9
M  V30 9 2 9 10
M  V30 10 1 9 11
M  V30 11 1 11 12
M  V30 12 2 12 13
M  V30 13 1 13 14
M  V30 14 2 14 15
M  V30 15 1 15 16
M  V30 16 1 16 17
M  V30 17 2 17 18
M  V30 18 1 18 19
M  V30 19 2 19 20
M  V30 20 1 20 21
M  V30 21 1 21 22
M  V30 22 1 22 23
M  V30 23 2 23 24
M  V30 24 1 23 25
M  V30 25 2 25 26
M  V30 26 1 26 27
M  V30 27 1 15 28
M  V30 28 2 28 29
M  V30 29 1 29 30
M  V30 30 2 30 31
M  V30 31 1 31 32
M  V30 32 2 32 33
M  V30 33 1 7 34
M  V30 34 1 34 35
M  V30 35 2 35 36
M  V30 36 1 36 37
M  V30 37 2 37 38
M  V30 38 1 38 39
M  V30 39 1 39 40
M  V30 40 1 38 41
M  V30 41 2 41 42
M  V30 42 1 34 43
M  V30 43 2 43 5
M  V30 44 1 33 12
M  V30 45 1 42 35
M  V30 46 1 27 17
M  V30 47 1 33 28
M  V30 48 2 27 21
M  V30 49 1 1 44
M  V30 50 1 1 45
M  V30 51 1 1 46
M  V30 52 1 3 47
M  V30 53 1 3 48
M  V30 54 1 3 49
M  V30 55 1 4 50
M  V30 56 1 4 51
M  V30 57 1 4 52
M  V30 58 1 6 53
M  V30 59 1 8 54
M  V30 60 1 11 55
M  V30 61 1 13 56
M  V30 62 1 14 57
M  V30 63 1 18 58
M  V30 64 1 19 59
M  V30 65 1 22 60
M  V30 66 1 25 61
M  V30 67 1 29 62
M  V30 68 1 30 63
M  V30 69 1 31 64
M  V30 70 1 32 65
M  V30 71 1 36 66
M  V30 72 1 37 67
M  V30 73 1 39 68
M  V30 74 1 39 69
M  V30 75 1 40 70
M  V30 76 1 42 71
M  V30 END BOND
M  V30 END CTAB
M  END
>  <Dataset>  (955) 
ChEMBL_Kinases

>  <Ligand_Instance>  (955) 
nan

>  <PDB_ID>  (955) 
nan

>  <Standardized_SMILES>  (955) 
CC(C)(C)c1cc(NC(=O)Nc2ccc(Oc3ccnc4[nH]c(=O)cnc34)c3ccccc23)n(-c2ccc(CO)nc2)n1

>  <Name>  (955) 
nan

>  <Pocket>  (955) 
nan

>  <ATP_Site>  (955) 
nan

>  <Peripheral>  (955) 
nan

>  <Num_H_Atoms_ProtBoundConf>  (955) 
nan

>  <Num_Resolved_Atoms>  (955) 
nan

>  <Num_Not_Resolved_Atoms>  (955) 
nan

$$$$
CHEMBL2391118
     RDKit          3D

  0  0  0  0  0  0  0  0  0  0999 V3000
M  V30 BEGIN CTAB
M  V30 COUNTS 49 53 0 0 0
M  V30 BEGIN ATOM
M  V30 1 C 0.297178 -4.714104 5.764100 0
M  V30 2 O 0.960092 -3.461258 5.597818 0
M  V30 3 C 1.267135 -2.978260 4.333279 0
M  V30 4 C 1.916396 -1.737628 4.337021 0
M  V30 5 C 2.246800 -1.208197 3.094800 0
M  V30 6 C 1.984386 -1.809085 1.879493 0
M  V30 7 C 2.372472 -1.170687 0.625390 0
M  V30 8 C 2.059746 0.189233 0.579343 0
M  V30 9 C 2.393794 0.876109 -0.577513 0
M  V30 10 C 3.015529 0.301045 -1.685826 0
M  V30 11 C 3.317753 1.157305 -2.866326 0
M  V30 12 S 1.909904 1.144165 -4.036317 0
M  V30 13 C 0.551500 1.950878 -3.195046 0
M  V30 14 N 0.050216 3.180284 -3.039308 0
M  V30 15 N -1.006443 3.095065 -2.266421 0
M  V30 16 C -1.189570 1.799833 -1.919783 0
M  V30 17 C -2.261080 1.254997 -1.059806 0
M  V30 18 C -2.212819 -0.114975 -0.866295 0
M  V30 19 C -3.172152 -0.695284 -0.080335 0
M  V30 20 C -4.139105 0.142582 0.474886 0
M  V30 21 C -4.185746 1.501096 0.282111 0
M  V30 22 C -3.202902 2.084105 -0.521199 0
M  V30 23 O -5.283302 1.977356 0.991399 0
M  V30 24 C -5.835520 0.891923 1.726770 0
M  V30 25 O -5.183397 -0.278623 1.295433 0
M  V30 26 O -0.234196 1.134216 -2.495254 0
M  V30 27 C 3.299965 -1.040144 -1.585114 0
M  V30 28 C 2.981261 -1.753072 -0.448948 0
M  V30 29 C 1.335073 -3.045919 1.922932 0
M  V30 30 C 1.031826 -3.724593 0.703526 0
M  V30 31 N 0.778356 -4.270147 -0.270305 0
M  V30 32 C 0.988136 -3.609246 3.136835 0
M  V30 33 H 0.891603 -5.543871 5.340192 0
M  V30 34 H -0.687987 -4.696127 5.239490 0
M  V30 35 H 0.065449 -4.892479 6.832857 0
M  V30 36 H 2.194090 -1.137928 5.183159 0
M  V30 37 H 2.757184 -0.238344 3.031663 0
M  V30 38 H 1.577420 0.742096 1.378938 0
M  V30 39 H 2.155358 1.948808 -0.632821 0
M  V30 40 H 4.253053 0.850850 -3.375245 0
M  V30 41 H 3.427535 2.190950 -2.501983 0
M  V30 42 H -1.456717 -0.758540 -1.302466 0
M  V30 43 H -3.152919 -1.762822 0.083637 0
M  V30 44 H -3.216960 3.145816 -0.687986 0
M  V30 45 H -5.603969 1.049574 2.799608 0
M  V30 46 H -6.923535 0.806844 1.585110 0
M  V30 47 H 3.778826 -1.512022 -2.422340 0
M  V30 48 H 3.197067 -2.807281 -0.351895 0
M  V30 49 H 0.486117 -4.561941 3.214341 0
M  V30 END ATOM
M  V30 BEGIN BOND
M  V30 1 1 1 2
M  V30 2 1 2 3
M  V30 3 2 3 4
M  V30 4 1 4 5
M  V30 5 2 5 6
M  V30 6 1 6 7
M  V30 7 2 7 8
M  V30 8 1 8 9
M  V30 9 2 9 10
M  V30 10 1 10 11
M  V30 11 1 11 12
M  V30 12 1 12 13
M  V30 13 2 13 14
M  V30 14 1 14 15
M  V30 15 2 15 16
M  V30 16 1 16 17
M  V30 17 2 17 18
M  V30 18 1 18 19
M  V30 19 2 19 20
M  V30 20 1 20 21
M  V30 21 2 21 22
M  V30 22 1 21 23
M  V30 23 1 23 24
M  V30 24 1 24 25
M  V30 25 1 16 26
M  V30 26 1 10 27
M  V30 27 2 27 28
M  V30 28 1 6 29
M  V30 29 1 29 30
M  V30 30 3 30 31
M  V30 31 2 29 32
M  V30 32 1 32 3
M  V30 33 1 28 7
M  V30 34 1 26 13
M  V30 35 1 22 17
M  V30 36 1 25 20
M  V30 37 1 1 33
M  V30 38 1 1 34
M  V30 39 1 1 35
M  V30 40 1 4 36
M  V30 41 1 5 37
M  V30 42 1 8 38
M  V30 43 1 9 39
M  V30 44 1 11 40
M  V30 45 1 11 41
M  V30 46 1 18 42
M  V30 47 1 19 43
M  V30 48 1 22 44
M  V30 49 1 24 45
M  V30 50 1 24 46
M  V30 51 1 27 47
M  V30 52 1 28 48
M  V30 53 1 32 49
M  V30 END BOND
M  V30 END CTAB
M  END
>  <Dataset>  (956) 
ChEMBL_Kinases

>  <Ligand_Instance>  (956) 
nan

>  <PDB_ID>  (956) 
nan

>  <Standardized_SMILES>  (956) 
COc1ccc(-c2ccc(CSc3nnc(-c4ccc5c(c4)OCO5)o3)cc2)c(C#N)c1

>  <Name>  (956) 
nan

>  <Pocket>  (956) 
nan

>  <ATP_Site>  (956) 
nan

>  <Peripheral>  (956) 
nan

>  <Num_H_Atoms_ProtBoundConf>  (956) 
nan

>  <Num_Resolved_Atoms>  (956) 
nan

>  <Num_Not_Resolved_Atoms>  (956) 
nan

$$$$
CHEMBL2391119
     RDKit          3D

  0  0  0  0  0  0  0  0  0  0999 V3000
M  V30 BEGIN CTAB
M  V30 COUNTS 48 52 0 0 0
M  V30 BEGIN ATOM
M  V30 1 C -2.817948 -5.093881 5.330333 0
M  V30 2 O -1.469776 -5.028048 4.935039 0
M  V30 3 C -0.866044 -3.859870 4.494149 0
M  V30 4 C -1.436551 -2.612424 4.365584 0
M  V30 5 C -0.743157 -1.509078 3.914541 0
M  V30 6 C 0.606995 -1.662273 3.569840 0
M  V30 7 C 1.388780 -0.528532 3.086347 0
M  V30 8 C 2.743105 -0.377338 3.299533 0
M  V30 9 C 3.433455 0.733880 2.807550 0
M  V30 10 C 2.747229 1.698642 2.094497 0
M  V30 11 C 3.429654 2.911287 1.541701 0
M  V30 12 S 4.045001 2.569853 -0.147779 0
M  V30 13 C 2.599217 2.328285 -1.167926 0
M  V30 14 N 2.069389 3.432866 -1.765371 0
M  V30 15 N 1.032558 3.051419 -2.457715 0
M  V30 16 C 0.882976 1.724900 -2.319321 0
M  V30 17 C -0.133236 0.857340 -2.905586 0
M  V30 18 C -0.101705 -0.493612 -2.631815 0
M  V30 19 C -1.079469 -1.314246 -3.197556 0
M  V30 20 C -2.071844 -0.784371 -4.024631 0
M  V30 21 C -2.066323 0.590469 -4.275699 0
M  V30 22 C -1.102934 1.407660 -3.719790 0
M  V30 23 O -3.163532 0.826568 -5.125138 0
M  V30 24 C -4.002919 -0.310483 -5.092593 0
M  V30 25 O -3.137473 -1.362119 -4.699955 0
M  V30 26 O 1.850482 1.322014 -1.530973 0
M  V30 27 C 1.392209 1.507345 1.904464 0
M  V30 28 C 0.661022 0.425585 2.370395 0
M  V30 29 C 1.218212 -2.895086 3.683645 0
M  V30 30 C 0.483641 -3.970063 4.139612 0
M  V30 31 H -3.204723 -6.104017 5.018437 0
M  V30 32 H -2.907912 -4.951593 6.424236 0
M  V30 33 H -3.466408 -4.323566 4.856426 0
M  V30 34 H -2.473675 -2.551850 4.643519 0
M  V30 35 H -1.229073 -0.558603 3.830822 0
M  V30 36 H 3.256127 -1.148167 3.861078 0
M  V30 37 H 4.491861 0.833063 2.985448 0
M  V30 38 H 2.727534 3.769413 1.472262 0
M  V30 39 H 4.275058 3.223865 2.157324 0
M  V30 40 H 0.638400 -0.948797 -2.003771 0
M  V30 41 H -1.109234 -2.385974 -3.020829 0
M  V30 42 H -1.162117 2.476282 -3.961283 0
M  V30 43 H -4.426660 -0.562003 -6.081261 0
M  V30 44 H -4.789648 -0.239323 -4.302188 0
M  V30 45 H 0.883664 2.289531 1.337232 0
M  V30 46 H -0.406554 0.365370 2.168178 0
M  V30 47 H 2.261396 -3.019864 3.419262 0
M  V30 48 H 0.994977 -4.917669 4.214454 0
M  V30 END ATOM
M  V30 BEGIN BOND
M  V30 1 1 1 2
M  V30 2 1 2 3
M  V30 3 2 3 4
M  V30 4 1 4 5
M  V30 5 2 5 6
M  V30 6 1 6 7
M  V30 7 2 7 8
M  V30 8 1 8 9
M  V30 9 2 9 10
M  V30 10 1 10 11
M  V30 11 1 11 12
M  V30 12 1 12 13
M  V30 13 2 13 14
M  V30 14 1 14 15
M  V30 15 2 15 16
M  V30 16 1 16 17
M  V30 17 2 17 18
M  V30 18 1 18 19
M  V30 19 2 19 20
M  V30 20 1 20 21
M  V30 21 2 21 22
M  V30 22 1 21 23
M  V30 23 1 23 24
M  V30 24 1 24 25
M  V30 25 1 16 26
M  V30 26 1 10 27
M  V30 27 2 27 28
M  V30 28 1 6 29
M  V30 29 2 29 30
M  V30 30 1 30 3
M  V30 31 1 28 7
M  V30 32 1 26 13
M  V30 33 1 22 17
M  V30 34 1 25 20
M  V30 35 1 1 31
M  V30 36 1 1 32
M  V30 37 1 1 33
M  V30 38 1 4 34
M  V30 39 1 5 35
M  V30 40 1 8 36
M  V30 41 1 9 37
M  V30 42 1 11 38
M  V30 43 1 11 39
M  V30 44 1 18 40
M  V30 45 1 19 41
M  V30 46 1 22 42
M  V30 47 1 24 43
M  V30 48 1 24 44
M  V30 49 1 27 45
M  V30 50 1 28 46
M  V30 51 1 29 47
M  V30 52 1 30 48
M  V30 END BOND
M  V30 END CTAB
M  END
>  <Dataset>  (957) 
ChEMBL_Kinases

>  <Ligand_Instance>  (957) 
nan

>  <PDB_ID>  (957) 
nan

>  <Standardized_SMILES>  (957) 
COc1ccc(-c2ccc(CSc3nnc(-c4ccc5c(c4)OCO5)o3)cc2)cc1

>  <Name>  (957) 
nan

>  <Pocket>  (957) 
nan

>  <ATP_Site>  (957) 
nan

>  <Peripheral>  (957) 
nan

>  <Num_H_Atoms_ProtBoundConf>  (957) 
nan

>  <Num_Resolved_Atoms>  (957) 
nan

>  <Num_Not_Resolved_Atoms>  (957) 
nan

$$$$
CHEMBL3695591
     RDKit          3D

  0  0  0  0  0  0  0  0  0  0999 V3000
M  V30 BEGIN CTAB
M  V30 COUNTS 66 70 0 0 0
M  V30 BEGIN ATOM
M  V30 1 C 5.047520 -4.514811 -1.239229 0
M  V30 2 C 3.765678 -4.220845 -1.989874 0
M  V30 3 C 2.707450 -5.144032 -1.424290 0
M  V30 4 C 4.014084 -4.559814 -3.438051 0
M  V30 5 C 3.388311 -2.791280 -1.785656 0
M  V30 6 C 2.290412 -2.123480 -2.295400 0
M  V30 7 C 2.331982 -0.798354 -1.848889 0
M  V30 8 N 1.286821 0.106958 -2.248558 0
M  V30 9 C 0.136756 0.213306 -1.429159 0
M  V30 10 O 0.075439 -0.484232 -0.390044 0
M  V30 11 N -1.003100 1.060509 -1.667092 0
M  V30 12 C -2.025272 0.967182 -0.672455 0
M  V30 13 C -2.112759 1.747576 0.482407 0
M  V30 14 C -3.160421 1.547275 1.360196 0
M  V30 15 C -4.145351 0.600967 1.157038 0
M  V30 16 O -5.169863 0.448178 2.072196 0
M  V30 17 C -5.465540 -0.657972 2.808493 0
M  V30 18 C -4.847238 -1.888586 2.879024 0
M  V30 19 C -5.306139 -2.898107 3.698138 0
M  V30 20 N -6.398041 -2.698808 4.468625 0
M  V30 21 C -7.038328 -1.511327 4.435429 0
M  V30 22 N -8.114545 -1.419328 5.242171 0
M  V30 23 C -8.775712 -0.248252 5.232720 0
M  V30 24 O -9.795698 -0.158920 5.996325 0
M  V30 25 C -8.384535 0.811837 4.443892 0
M  V30 26 N -7.311965 0.669528 3.662763 0
M  V30 27 C -6.587459 -0.474114 3.609872 0
M  V30 28 C -4.061778 -0.183620 -0.000103 0
M  V30 29 Cl -5.285554 -1.403287 -0.344505 0
M  V30 30 C -3.006472 0.015467 -0.887508 0
M  V30 31 Cl -2.964828 -1.001750 -2.312795 0
M  V30 32 N 3.439745 -0.703659 -1.091478 0
M  V30 33 C 3.749684 0.549304 -0.491286 0
M  V30 34 C 4.466460 1.554636 -1.126618 0
M  V30 35 C 4.706592 2.729780 -0.443211 0
M  V30 36 C 4.238100 2.889281 0.845084 0
M  V30 37 C 4.506695 4.165497 1.568149 0
M  V30 38 O 5.724624 3.982982 2.235811 0
M  V30 39 C 3.521471 1.880833 1.476740 0
M  V30 40 C 3.269730 0.692356 0.806810 0
M  V30 41 N 4.050749 -1.860455 -1.056151 0
M  V30 42 H 5.158245 -5.614546 -1.053862 0
M  V30 43 H 5.917077 -4.112251 -1.803592 0
M  V30 44 H 5.006843 -4.042409 -0.236297 0
M  V30 45 H 3.211585 -6.100497 -1.187043 0
M  V30 46 H 1.917733 -5.393524 -2.152592 0
M  V30 47 H 2.334378 -4.695956 -0.495059 0
M  V30 48 H 3.044826 -4.804095 -3.897817 0
M  V30 49 H 4.610984 -5.504732 -3.457977 0
M  V30 50 H 4.549577 -3.729463 -3.907151 0
M  V30 51 H 1.555535 -2.606378 -2.930782 0
M  V30 52 H 1.295308 0.709014 -3.107790 0
M  V30 53 H -0.954285 1.644918 -2.536040 0
M  V30 54 H -1.328537 2.479451 0.615091 0
M  V30 55 H -3.163377 2.185115 2.228544 0
M  V30 56 H -3.987148 -1.986452 2.254160 0
M  V30 57 H -4.719468 -3.806130 3.647043 0
M  V30 58 H -8.419143 -2.215163 5.843129 0
M  V30 59 H -8.936788 1.757652 4.450601 0
M  V30 60 H 4.791476 1.341836 -2.129402 0
M  V30 61 H 5.268236 3.509221 -0.949567 0
M  V30 62 H 4.652825 4.963777 0.799661 0
M  V30 63 H 3.673657 4.421793 2.239198 0
M  V30 64 H 6.441135 4.179971 1.583458 0
M  V30 65 H 3.161287 2.022863 2.487732 0
M  V30 66 H 2.717113 -0.066738 1.314059 0
M  V30 END ATOM
M  V30 BEGIN BOND
M  V30 1 1 1 2
M  V30 2 1 2 3
M  V30 3 1 2 4
M  V30 4 1 2 5
M  V30 5 1 5 6
M  V30 6 2 6 7
M  V30 7 1 7 8
M  V30 8 1 8 9
M  V30 9 2 9 10
M  V30 10 1 9 11
M  V30 11 1 11 12
M  V30 12 2 12 13
M  V30 13 1 13 14
M  V30 14 2 14 15
M  V30 15 1 15 16
M  V30 16 1 16 17
M  V30 17 2 17 18
M  V30 18 1 18 19
M  V30 19 2 19 20
M  V30 20 1 20 21
M  V30 21 1 21 22
M  V30 22 1 22 23
M  V30 23 2 23 24
M  V30 24 1 23 25
M  V30 25 2 25 26
M  V30 26 1 26 27
M  V30 27 1 15 28
M  V30 28 1 28 29
M  V30 29 2 28 30
M  V30 30 1 30 31
M  V30 31 1 7 32
M  V30 32 1 32 33
M  V30 33 2 33 34
M  V30 34 1 34 35
M  V30 35 2 35 36
M  V30 36 1 36 37
M  V30 37 1 37 38
M  V30 38 1 36 39
M  V30 39 2 39 40
M  V30 40 1 32 41
M  V30 41 2 41 5
M  V30 42 1 30 12
M  V30 43 1 40 33
M  V30 44 1 27 17
M  V30 45 2 27 21
M  V30 46 1 1 42
M  V30 47 1 1 43
M  V30 48 1 1 44
M  V30 49 1 3 45
M  V30 50 1 3 46
M  V30 51 1 3 47
M  V30 52 1 4 48
M  V30 53 1 4 49
M  V30 54 1 4 50
M  V30 55 1 6 51
M  V30 56 1 8 52
M  V30 57 1 11 53
M  V30 58 1 13 54
M  V30 59 1 14 55
M  V30 60 1 18 56
M  V30 61 1 19 57
M  V30 62 1 22 58
M  V30 63 1 25 59
M  V30 64 1 34 60
M  V30 65 1 35 61
M  V30 66 1 37 62
M  V30 67 1 37 63
M  V30 68 1 38 64
M  V30 69 1 39 65
M  V30 70 1 40 66
M  V30 END BOND
M  V30 END CTAB
M  END
>  <Dataset>  (958) 
ChEMBL_Kinases

>  <Ligand_Instance>  (958) 
nan

>  <PDB_ID>  (958) 
nan

>  <Standardized_SMILES>  (958) 
CC(C)(C)c1cc(NC(=O)Nc2ccc(Oc3ccnc4[nH]c(=O)cnc34)c(Cl)c2Cl)n(-c2ccc(CO)cc2)n1

>  <Name>  (958) 
nan

>  <Pocket>  (958) 
nan

>  <ATP_Site>  (958) 
nan

>  <Peripheral>  (958) 
nan

>  <Num_H_Atoms_ProtBoundConf>  (958) 
nan

>  <Num_Resolved_Atoms>  (958) 
nan

>  <Num_Not_Resolved_Atoms>  (958) 
nan

$$$$
CHEMBL4459538
     RDKit          3D

  0  0  0  0  0  0  0  0  0  0999 V3000
M  V30 BEGIN CTAB
M  V30 COUNTS 58 61 0 0 0
M  V30 BEGIN ATOM
M  V30 1 C 1.452769 -2.995240 0.518764 0
M  V30 2 O 2.445300 -2.099749 0.088242 0
M  V30 3 C 2.118803 -0.835876 0.605476 0 CFG=1
M  V30 4 C 3.163338 -0.435900 1.587387 0
M  V30 5 C 3.982673 0.714953 1.079523 0 CFG=2
M  V30 6 N 5.151109 0.813712 1.975151 0
M  V30 7 C 3.288119 2.031270 1.120032 0
M  V30 8 C 1.780874 1.955641 1.098658 0
M  V30 9 N 1.291985 1.349334 -0.130692 0
M  V30 10 C 0.249626 2.125611 -0.704272 0
M  V30 11 C -1.076705 1.759571 -0.535854 0
M  V30 12 N -1.632469 0.660245 0.139076 0
M  V30 13 C -2.103226 0.232968 1.401994 0
M  V30 14 O -2.046776 1.084304 2.338735 0
M  V30 15 C -2.628683 -1.108819 1.632568 0
M  V30 16 N -2.705435 -2.065324 0.694436 0
M  V30 17 C -3.118996 -3.131019 0.873841 0
M  V30 18 C -3.265750 -4.323885 -0.098097 0
M  V30 19 C -2.872779 -4.224791 -1.411603 0
M  V30 20 F -2.363148 -3.013284 -1.736539 0
M  V30 21 C -3.058398 -5.356245 -2.170175 0
M  V30 22 C -3.595645 -6.491025 -1.644262 0
M  V30 23 C -3.982526 -6.581269 -0.342354 0
M  V30 24 C -3.813652 -5.471242 0.449983 0
M  V30 25 F -4.210658 -5.593601 1.748810 0
M  V30 26 S -3.628807 -3.218690 2.658268 0
M  V30 27 C -3.073522 -1.412020 2.900843 0
M  V30 28 N -3.146523 -0.691125 4.091360 0
M  V30 29 C -1.821789 2.721116 -1.197776 0
M  V30 30 N -0.959159 3.605993 -1.727219 0
M  V30 31 N 0.272051 3.234356 -1.422599 0
M  V30 32 C 1.459317 3.944403 -1.817200 0
M  V30 33 C 1.908207 0.121356 -0.534476 0
M  V30 34 H 0.439438 -2.712861 0.167867 0
M  V30 35 H 1.697334 -4.004194 0.115794 0
M  V30 36 H 1.399738 -3.052989 1.627384 0
M  V30 37 H 1.178160 -1.011330 1.175541 0
M  V30 38 H 2.726264 -0.158273 2.579663 0
M  V30 39 H 3.862911 -1.293168 1.801982 0
M  V30 40 H 4.420970 0.496335 0.085246 0
M  V30 41 H 4.872009 0.619360 2.950180 0
M  V30 42 H 5.917707 0.192958 1.676029 0
M  V30 43 H 3.541891 2.564938 2.069249 0
M  V30 44 H 3.679480 2.662497 0.296557 0
M  V30 45 H 1.408778 1.399397 1.961349 0
M  V30 46 H 1.433691 3.005162 1.235411 0
M  V30 47 H -1.707046 -0.095683 -0.609697 0
M  V30 48 H -2.725247 -5.212073 -3.207991 0
M  V30 49 H -3.662819 -7.275824 -2.392588 0
M  V30 50 H -4.403403 -7.505786 0.019840 0
M  V30 51 H -2.404981 -0.782935 4.813388 0
M  V30 52 H -3.882985 -0.012517 4.415554 0
M  V30 53 H -2.914899 2.720221 -1.253093 0
M  V30 54 H 1.929301 4.495546 -0.982594 0
M  V30 55 H 1.249487 4.552488 -2.708839 0
M  V30 56 H 2.227379 3.183637 -2.126649 0
M  V30 57 H 2.810618 0.278708 -1.120677 0
M  V30 58 H 1.191308 -0.397195 -1.231668 0
M  V30 END ATOM
M  V30 BEGIN BOND
M  V30 1 1 1 2
M  V30 2 1 2 3
M  V30 3 1 3 4
M  V30 4 1 4 5
M  V30 5 1 5 6
M  V30 6 1 5 7
M  V30 7 1 7 8
M  V30 8 1 8 9
M  V30 9 1 9 10
M  V30 10 2 10 11
M  V30 11 1 11 12
M  V30 12 1 12 13
M  V30 13 2 13 14
M  V30 14 1 13 15
M  V30 15 1 15 16
M  V30 16 2 16 17
M  V30 17 1 17 18
M  V30 18 2 18 19
M  V30 19 1 19 20
M  V30 20 1 19 21
M  V30 21 2 21 22
M  V30 22 1 22 23
M  V30 23 2 23 24
M  V30 24 1 24 25
M  V30 25 1 17 26
M  V30 26 1 26 27
M  V30 27 1 27 28
M  V30 28 1 11 29
M  V30 29 2 29 30
M  V30 30 1 30 31
M  V30 31 1 31 32
M  V30 32 1 9 33
M  V30 33 1 33 3
M  V30 34 1 31 10
M  V30 35 2 27 15
M  V30 36 1 24 18
M  V30 37 1 1 34
M  V30 38 1 1 35
M  V30 39 1 1 36
M  V30 40 1 3 37 CFG=1
M  V30 41 1 4 38
M  V30 42 1 4 39
M  V30 43 1 5 40 CFG=3
M  V30 44 1 6 41
M  V30 45 1 6 42
M  V30 46 1 7 43
M  V30 47 1 7 44
M  V30 48 1 8 45
M  V30 49 1 8 46
M  V30 50 1 12 47
M  V30 51 1 21 48
M  V30 52 1 22 49
M  V30 53 1 23 50
M  V30 54 1 28 51
M  V30 55 1 28 52
M  V30 56 1 29 53
M  V30 57 1 32 54
M  V30 58 1 32 55
M  V30 59 1 32 56
M  V30 60 1 33 57
M  V30 61 1 33 58
M  V30 END BOND
M  V30 END CTAB
M  END
>  <Dataset>  (959) 
ChEMBL_Kinases

>  <Ligand_Instance>  (959) 
nan

>  <PDB_ID>  (959) 
nan

>  <Standardized_SMILES>  (959) 
CO[C@H]1C[C@H](N)CCN(c2c(NC(=O)c3nc(-c4c(F)cccc4F)sc3N)cnn2C)C1

>  <Name>  (959) 
nan

>  <Pocket>  (959) 
nan

>  <ATP_Site>  (959) 
nan

>  <Peripheral>  (959) 
nan

>  <Num_H_Atoms_ProtBoundConf>  (959) 
nan

>  <Num_Resolved_Atoms>  (959) 
nan

>  <Num_Not_Resolved_Atoms>  (959) 
nan

$$$$
CHEMBL3695590
     RDKit          3D

  0  0  0  0  0  0  0  0  0  0999 V3000
M  V30 BEGIN CTAB
M  V30 COUNTS 76 81 0 0 0
M  V30 BEGIN ATOM
M  V30 1 C 1.246137 -3.643128 3.416378 0
M  V30 2 O 1.364916 -2.443113 3.498041 0
M  V30 3 C 1.549280 -1.043734 3.366863 0
M  V30 4 C 1.900191 -0.563703 2.118688 0
M  V30 5 C 2.117233 0.800881 1.787921 0
M  V30 6 N 2.504246 0.968129 0.463191 0
M  V30 7 N 3.327185 0.198801 -0.194755 0
M  V30 8 C 3.520392 0.542795 -1.475915 0
M  V30 9 C 4.327606 -0.068301 -2.592837 0
M  V30 10 C 5.696610 0.512960 -2.523803 0
M  V30 11 C 3.699088 0.319253 -3.931114 0
M  V30 12 C 4.280943 -1.571351 -2.490205 0
M  V30 13 C 2.693151 1.682826 -1.614979 0
M  V30 14 C 2.089731 1.891720 -0.377457 0
M  V30 15 N 1.195662 2.995699 -0.472926 0
M  V30 16 C -0.202735 3.160455 -0.799374 0
M  V30 17 O -0.343126 1.842489 -0.830523 0
M  V30 18 N -1.567454 3.360549 -1.118653 0
M  V30 19 C -2.268805 2.114918 -1.231229 0
M  V30 20 C -2.394973 1.390543 -2.387939 0
M  V30 21 C -2.906535 0.142674 -2.165770 0
M  V30 22 C -3.249895 -0.321642 -0.916200 0
M  V30 23 O -3.703561 -1.508144 -0.756159 0
M  V30 24 C -4.231226 -2.661530 -0.556365 0
M  V30 25 C -5.429602 -2.808681 0.112730 0
M  V30 26 C -6.035605 -4.032135 0.348798 0
M  V30 27 N -5.394053 -5.085642 -0.107966 0
M  V30 28 C -4.250284 -4.996681 -0.748585 0
M  V30 29 N -3.575385 -6.090866 -1.226205 0
M  V30 30 C -2.384380 -6.147122 -1.909870 0
M  V30 31 O -2.078407 -7.330822 -2.182559 0
M  V30 32 C -1.802011 -4.931272 -2.139537 0
M  V30 33 N -2.389577 -3.800950 -1.705017 0
M  V30 34 C -3.556529 -3.807277 -1.040582 0
M  V30 35 C -3.107153 0.471317 0.245489 0
M  V30 36 C -3.491136 -0.008434 1.478160 0
M  V30 37 C -3.352431 0.836794 2.583005 0
M  V30 38 C -2.861542 2.101743 2.465329 0
M  V30 39 C -2.498371 2.524897 1.230523 0
M  V30 40 C -2.593946 1.754576 0.085377 0
M  V30 41 C 1.950123 1.682644 2.839558 0
M  V30 42 C 1.606193 1.259051 4.114863 0
M  V30 43 C 1.415472 -0.089231 4.350535 0
M  V30 44 C 0.987023 -0.633067 5.685199 0
M  V30 45 O 1.996700 -1.313520 6.322558 0
M  V30 46 H 0.219927 -4.137770 3.123961 0
M  V30 47 H 1.492390 -4.215219 4.441883 0
M  V30 48 H 1.913387 -4.327674 2.730726 0
M  V30 49 H 2.024562 -1.341106 1.315001 0
M  V30 50 H 5.583606 1.590700 -2.834432 0
M  V30 51 H 6.048538 0.477951 -1.466534 0
M  V30 52 H 6.425790 -0.021108 -3.229455 0
M  V30 53 H 2.605755 0.479919 -3.799757 0
M  V30 54 H 3.817110 -0.545629 -4.599402 0
M  V30 55 H 4.164990 1.189580 -4.393266 0
M  V30 56 H 4.645799 -2.121948 -3.362309 0
M  V30 57 H 3.246650 -1.895901 -2.182926 0
M  V30 58 H 4.948960 -1.853883 -1.606579 0
M  V30 59 H 2.665471 2.151933 -2.606275 0
M  V30 60 H 1.144895 4.024190 -0.460003 0
M  V30 61 H -1.337642 4.360836 -1.063442 0
M  V30 62 H -2.093137 1.841333 -3.305430 0
M  V30 63 H -3.061061 -0.503303 -3.042024 0
M  V30 64 H -5.931415 -1.909483 0.491358 0
M  V30 65 H -6.974457 -4.113307 0.857332 0
M  V30 66 H -4.140952 -6.981722 -0.979229 0
M  V30 67 H -0.882921 -4.990359 -2.683834 0
M  V30 68 H -3.878301 -1.016656 1.642019 0
M  V30 69 H -3.627728 0.525885 3.570834 0
M  V30 70 H -2.762633 2.779080 3.308196 0
M  V30 71 H -2.106468 3.509980 1.099441 0
M  V30 72 H 2.141187 2.689159 2.504417 0
M  V30 73 H 1.504623 1.977161 4.907761 0
M  V30 74 H 0.773385 0.262800 6.383009 0
M  V30 75 H 0.085602 -1.235639 5.611420 0
M  V30 76 H 1.777530 -2.284997 6.298309 0
M  V30 END ATOM
M  V30 BEGIN BOND
M  V30 1 1 1 2
M  V30 2 1 2 3
M  V30 3 2 3 4
M  V30 4 1 4 5
M  V30 5 1 5 6
M  V30 6 1 6 7
M  V30 7 2 7 8
M  V30 8 1 8 9
M  V30 9 1 9 10
M  V30 10 1 9 11
M  V30 11 1 9 12
M  V30 12 1 8 13
M  V30 13 2 13 14
M  V30 14 1 14 15
M  V30 15 1 15 16
M  V30 16 2 16 17
M  V30 17 1 16 18
M  V30 18 1 18 19
M  V30 19 2 19 20
M  V30 20 1 20 21
M  V30 21 2 21 22
M  V30 22 1 22 23
M  V30 23 1 23 24
M  V30 24 2 24 25
M  V30 25 1 25 26
M  V30 26 2 26 27
M  V30 27 1 27 28
M  V30 28 1 28 29
M  V30 29 1 29 30
M  V30 30 2 30 31
M  V30 31 1 30 32
M  V30 32 2 32 33
M  V30 33 1 33 34
M  V30 34 1 22 35
M  V30 35 2 35 36
M  V30 36 1 36 37
M  V30 37 2 37 38
M  V30 38 1 38 39
M  V30 39 2 39 40
M  V30 40 2 5 41
M  V30 41 1 41 42
M  V30 42 2 42 43
M  V30 43 1 43 44
M  V30 44 1 44 45
M  V30 45 1 43 3
M  V30 46 1 14 6
M  V30 47 1 40 19
M  V30 48 1 34 24
M  V30 49 1 40 35
M  V30 50 2 34 28
M  V30 51 1 1 46
M  V30 52 1 1 47
M  V30 53 1 1 48
M  V30 54 1 4 49
M  V30 55 1 10 50
M  V30 56 1 10 51
M  V30 57 1 10 52
M  V30 58 1 11 53
M  V30 59 1 11 54
M  V30 60 1 11 55
M  V30 61 1 12 56
M  V30 62 1 12 57
M  V30 63 1 12 58
M  V30 64 1 13 59
M  V30 65 1 15 60
M  V30 66 1 18 61
M  V30 67 1 20 62
M  V30 68 1 21 63
M  V30 69 1 25 64
M  V30 70 1 26 65
M  V30 71 1 29 66
M  V30 72 1 32 67
M  V30 73 1 36 68
M  V30 74 1 37 69
M  V30 75 1 38 70
M  V30 76 1 39 71
M  V30 77 1 41 72
M  V30 78 1 42 73
M  V30 79 1 44 74
M  V30 80 1 44 75
M  V30 81 1 45 76
M  V30 END BOND
M  V30 END CTAB
M  END
>  <Dataset>  (960) 
ChEMBL_Kinases

>  <Ligand_Instance>  (960) 
nan

>  <PDB_ID>  (960) 
nan

>  <Standardized_SMILES>  (960) 
COc1cc(-n2nc(C(C)(C)C)cc2NC(=O)Nc2ccc(Oc3ccnc4[nH]c(=O)cnc34)c3ccccc23)ccc1CO

>  <Name>  (960) 
nan

>  <Pocket>  (960) 
nan

>  <ATP_Site>  (960) 
nan

>  <Peripheral>  (960) 
nan

>  <Num_H_Atoms_ProtBoundConf>  (960) 
nan

>  <Num_Resolved_Atoms>  (960) 
nan

>  <Num_Not_Resolved_Atoms>  (960) 
nan

$$$$
CHEMBL2391121
     RDKit          3D

  0  0  0  0  0  0  0  0  0  0999 V3000
M  V30 BEGIN CTAB
M  V30 COUNTS 45 49 0 0 0
M  V30 BEGIN ATOM
M  V30 1 N -1.497972 -4.339230 3.214889 0
M  V30 2 C -0.452586 -4.015707 2.879001 0
M  V30 3 C 0.855854 -3.619792 2.438452 0
M  V30 4 C 1.834558 -4.588313 2.396590 0
M  V30 5 C 3.102096 -4.193591 1.964894 0
M  V30 6 C 3.379945 -2.906255 1.595514 0
M  V30 7 C 2.410747 -1.918402 1.630547 0
M  V30 8 C 2.566597 -0.518709 1.264682 0
M  V30 9 C 3.461689 -0.146228 0.257055 0
M  V30 10 C 3.613734 1.172346 -0.094643 0
M  V30 11 C 2.877870 2.142349 0.550232 0
M  V30 12 C 2.895223 3.627326 0.304478 0
M  V30 13 S 1.611020 3.986485 -0.946086 0
M  V30 14 C -0.019662 3.626820 -0.246208 0
M  V30 15 N -1.006330 4.229341 0.442811 0
M  V30 16 N -1.940663 3.309314 0.614037 0
M  V30 17 C -1.543010 2.151832 0.040888 0
M  V30 18 C -2.365342 0.923613 0.057181 0
M  V30 19 C -3.607658 0.811440 0.641119 0
M  V30 20 C -4.236921 -0.410428 0.566971 0
M  V30 21 C -3.678080 -1.512885 -0.061699 0
M  V30 22 C -2.436164 -1.403067 -0.646273 0
M  V30 23 C -1.819127 -0.178681 -0.565518 0
M  V30 24 O -2.143203 -2.637412 -1.184410 0
M  V30 25 C -3.079614 -3.597480 -0.698287 0
M  V30 26 O -4.144693 -2.807818 -0.240024 0
M  V30 27 O -0.348326 2.361841 -0.490126 0
M  V30 28 C 1.996048 1.767619 1.544266 0
M  V30 29 C 1.825947 0.446068 1.915531 0
M  V30 30 C 1.166827 -2.324657 2.058548 0
M  V30 31 H 1.658334 -5.614014 2.679117 0
M  V30 32 H 3.891902 -4.943439 1.924858 0
M  V30 33 H 4.364699 -2.573392 1.255056 0
M  V30 34 H 4.059129 -0.871156 -0.274761 0
M  V30 35 H 4.275896 1.564277 -0.856040 0
M  V30 36 H 3.865286 3.837288 -0.186848 0
M  V30 37 H 2.739194 4.181306 1.238861 0
M  V30 38 H -4.001702 1.694663 1.118815 0
M  V30 39 H -5.214724 -0.484555 1.031894 0
M  V30 40 H -0.836884 -0.119790 -1.037131 0
M  V30 41 H -2.653508 -4.147810 0.185011 0
M  V30 42 H -3.437414 -4.288260 -1.487247 0
M  V30 43 H 1.370943 2.476613 2.109078 0
M  V30 44 H 1.147629 0.133615 2.682595 0
M  V30 45 H 0.321251 -1.656085 2.132475 0
M  V30 END ATOM
M  V30 BEGIN BOND
M  V30 1 3 1 2
M  V30 2 1 2 3
M  V30 3 2 3 4
M  V30 4 1 4 5
M  V30 5 2 5 6
M  V30 6 1 6 7
M  V30 7 1 7 8
M  V30 8 2 8 9
M  V30 9 1 9 10
M  V30 10 2 10 11
M  V30 11 1 11 12
M  V30 12 1 12 13
M  V30 13 1 13 14
M  V30 14 2 14 15
M  V30 15 1 15 16
M  V30 16 2 16 17
M  V30 17 1 17 18
M  V30 18 2 18 19
M  V30 19 1 19 20
M  V30 20 2 20 21
M  V30 21 1 21 22
M  V30 22 2 22 23
M  V30 23 1 22 24
M  V30 24 1 24 25
M  V30 25 1 25 26
M  V30 26 1 17 27
M  V30 27 1 11 28
M  V30 28 2 28 29
M  V30 29 2 7 30
M  V30 30 1 30 3
M  V30 31 1 29 8
M  V30 32 1 27 14
M  V30 33 1 23 18
M  V30 34 1 26 21
M  V30 35 1 4 31
M  V30 36 1 5 32
M  V30 37 1 6 33
M  V30 38 1 9 34
M  V30 39 1 10 35
M  V30 40 1 12 36
M  V30 41 1 12 37
M  V30 42 1 19 38
M  V30 43 1 20 39
M  V30 44 1 23 40
M  V30 45 1 25 41
M  V30 46 1 25 42
M  V30 47 1 28 43
M  V30 48 1 29 44
M  V30 49 1 30 45
M  V30 END BOND
M  V30 END CTAB
M  END
>  <Dataset>  (961) 
ChEMBL_Kinases

>  <Ligand_Instance>  (961) 
nan

>  <PDB_ID>  (961) 
nan

>  <Standardized_SMILES>  (961) 
N#Cc1cccc(-c2ccc(CSc3nnc(-c4ccc5c(c4)OCO5)o3)cc2)c1

>  <Name>  (961) 
nan

>  <Pocket>  (961) 
nan

>  <ATP_Site>  (961) 
nan

>  <Peripheral>  (961) 
nan

>  <Num_H_Atoms_ProtBoundConf>  (961) 
nan

>  <Num_Resolved_Atoms>  (961) 
nan

>  <Num_Not_Resolved_Atoms>  (961) 
nan

$$$$
CHEMBL3695589
     RDKit          3D

  0  0  0  0  0  0  0  0  0  0999 V3000
M  V30 BEGIN CTAB
M  V30 COUNTS 72 77 0 0 0
M  V30 BEGIN ATOM
M  V30 1 C 1.313159 0.383367 6.267933 0
M  V30 2 C 2.224076 -0.693312 5.753712 0
M  V30 3 C 3.553310 -0.523249 6.470222 0
M  V30 4 C 1.665769 -2.083926 5.949167 0
M  V30 5 C 2.476731 -0.457965 4.306627 0
M  V30 6 C 1.931341 0.599539 3.606791 0
M  V30 7 C 2.393845 0.475455 2.312617 0
M  V30 8 N 2.185160 1.259030 1.118560 0
M  V30 9 C 1.086701 0.899513 0.292471 0
M  V30 10 O 0.347260 -0.077914 0.632084 0
M  V30 11 N 0.685355 1.531305 -0.938774 0
M  V30 12 C -0.464790 0.963725 -1.570409 0
M  V30 13 C -0.484678 -0.054178 -2.500979 0
M  V30 14 C -1.689147 -0.492612 -3.019772 0
M  V30 15 C -2.902461 0.075373 -2.621117 0
M  V30 16 O -3.970093 -0.513699 -3.263230 0
M  V30 17 C -4.999890 -1.218028 -2.670581 0
M  V30 18 C -5.269171 -1.561089 -1.340263 0
M  V30 19 C -6.380077 -2.279429 -1.002696 0
M  V30 20 N -7.252757 -2.681617 -1.936558 0
M  V30 21 C -7.038423 -2.376260 -3.235061 0
M  V30 22 N -7.987101 -2.838123 -4.067976 0
M  V30 23 C -7.856771 -2.581573 -5.380985 0
M  V30 24 O -8.724238 -2.997753 -6.187948 0
M  V30 25 C -6.761768 -1.860862 -5.806717 0
M  V30 26 N -5.814941 -1.400232 -4.973160 0
M  V30 27 C -5.920090 -1.644213 -3.640240 0
M  V30 28 C -2.851487 1.090410 -1.691225 0
M  V30 29 C -4.090710 1.596899 -1.363216 0
M  V30 30 C -4.162952 2.623376 -0.444700 0
M  V30 31 C -2.975157 3.093207 0.102292 0
M  V30 32 C -1.761628 2.559542 -0.253856 0
M  V30 33 C -1.652265 1.528463 -1.173031 0
M  V30 34 N 3.178126 -0.596647 2.223030 0
M  V30 35 C 3.905746 -1.186992 1.151961 0
M  V30 36 C 3.275242 -2.210026 0.467770 0
M  V30 37 C 3.943109 -2.826490 -0.593725 0
M  V30 38 C 5.212568 -2.393998 -0.925917 0
M  V30 39 C 5.967849 -3.019370 -2.050938 0
M  V30 40 O 6.735474 -4.105448 -1.582764 0
M  V30 41 C 5.839297 -1.367635 -0.235903 0
M  V30 42 C 5.189601 -0.736388 0.829888 0
M  V30 43 N 3.218445 -1.145292 3.424101 0
M  V30 44 H 1.907718 1.297713 6.374789 0
M  V30 45 H 0.407507 0.521193 5.652400 0
M  V30 46 H 0.968042 0.035653 7.274658 0
M  V30 47 H 3.479837 -0.807301 7.540284 0
M  V30 48 H 3.783624 0.570167 6.394651 0
M  V30 49 H 4.322376 -1.073235 5.909343 0
M  V30 50 H 1.866875 -2.508763 6.953860 0
M  V30 51 H 2.159765 -2.760998 5.216957 0
M  V30 52 H 0.587612 -2.095666 5.723844 0
M  V30 53 H 1.274825 1.411177 3.891525 0
M  V30 54 H 2.710177 2.073347 0.730945 0
M  V30 55 H 1.290612 2.340640 -1.228296 0
M  V30 56 H 0.483279 -0.453473 -2.769828 0
M  V30 57 H -1.554533 -1.296858 -3.740355 0
M  V30 58 H -4.496980 -1.182427 -0.699650 0
M  V30 59 H -6.408198 -2.441742 0.071671 0
M  V30 60 H -8.814357 -3.383033 -3.742928 0
M  V30 61 H -6.647464 -1.647915 -6.869641 0
M  V30 62 H -5.017513 1.242115 -1.789579 0
M  V30 63 H -5.084970 3.085869 -0.123094 0
M  V30 64 H -2.965739 3.896529 0.828329 0
M  V30 65 H -0.826315 2.930156 0.177255 0
M  V30 66 H 2.294497 -2.545379 0.723049 0
M  V30 67 H 3.495459 -3.634599 -1.165370 0
M  V30 68 H 6.597191 -2.291164 -2.596184 0
M  V30 69 H 5.241705 -3.424955 -2.785367 0
M  V30 70 H 7.010982 -4.582626 -2.418500 0
M  V30 71 H 6.835334 -1.011707 -0.479190 0
M  V30 72 H 5.663350 0.064263 1.377569 0
M  V30 END ATOM
M  V30 BEGIN BOND
M  V30 1 1 1 2
M  V30 2 1 2 3
M  V30 3 1 2 4
M  V30 4 1 2 5
M  V30 5 1 5 6
M  V30 6 2 6 7
M  V30 7 1 7 8
M  V30 8 1 8 9
M  V30 9 2 9 10
M  V30 10 1 9 11
M  V30 11 1 11 12
M  V30 12 2 12 13
M  V30 13 1 13 14
M  V30 14 2 14 15
M  V30 15 1 15 16
M  V30 16 1 16 17
M  V30 17 2 17 18
M  V30 18 1 18 19
M  V30 19 2 19 20
M  V30 20 1 20 21
M  V30 21 1 21 22
M  V30 22 1 22 23
M  V30 23 2 23 24
M  V30 24 1 23 25
M  V30 25 2 25 26
M  V30 26 1 26 27
M  V30 27 1 15 28
M  V30 28 2 28 29
M  V30 29 1 29 30
M  V30 30 2 30 31
M  V30 31 1 31 32
M  V30 32 2 32 33
M  V30 33 1 7 34
M  V30 34 1 34 35
M  V30 35 2 35 36
M  V30 36 1 36 37
M  V30 37 2 37 38
M  V30 38 1 38 39
M  V30 39 1 39 40
M  V30 40 1 38 41
M  V30 41 2 41 42
M  V30 42 1 34 43
M  V30 43 2 43 5
M  V30 44 1 33 12
M  V30 45 1 42 35
M  V30 46 1 27 17
M  V30 47 1 33 28
M  V30 48 2 27 21
M  V30 49 1 1 44
M  V30 50 1 1 45
M  V30 51 1 1 46
M  V30 52 1 3 47
M  V30 53 1 3 48
M  V30 54 1 3 49
M  V30 55 1 4 50
M  V30 56 1 4 51
M  V30 57 1 4 52
M  V30 58 1 6 53
M  V30 59 1 8 54
M  V30 60 1 11 55
M  V30 61 1 13 56
M  V30 62 1 14 57
M  V30 63 1 18 58
M  V30 64 1 19 59
M  V30 65 1 22 60
M  V30 66 1 25 61
M  V30 67 1 29 62
M  V30 68 1 30 63
M  V30 69 1 31 64
M  V30 70 1 32 65
M  V30 71 1 36 66
M  V30 72 1 37 67
M  V30 73 1 39 68
M  V30 74 1 39 69
M  V30 75 1 40 70
M  V30 76 1 41 71
M  V30 77 1 42 72
M  V30 END BOND
M  V30 END CTAB
M  END
>  <Dataset>  (962) 
ChEMBL_Kinases

>  <Ligand_Instance>  (962) 
nan

>  <PDB_ID>  (962) 
nan

>  <Standardized_SMILES>  (962) 
CC(C)(C)c1cc(NC(=O)Nc2ccc(Oc3ccnc4[nH]c(=O)cnc34)c3ccccc23)n(-c2ccc(CO)cc2)n1

>  <Name>  (962) 
nan

>  <Pocket>  (962) 
nan

>  <ATP_Site>  (962) 
nan

>  <Peripheral>  (962) 
nan

>  <Num_H_Atoms_ProtBoundConf>  (962) 
nan

>  <Num_Resolved_Atoms>  (962) 
nan

>  <Num_Not_Resolved_Atoms>  (962) 
nan

$$$$
CHEMBL2391122
     RDKit          3D

  0  0  0  0  0  0  0  0  0  0999 V3000
M  V30 BEGIN CTAB
M  V30 COUNTS 46 50 0 0 0
M  V30 BEGIN ATOM
M  V30 1 O 0.544732 5.777722 3.640698 0
M  V30 2 N 1.309386 4.817895 3.424331 0 CHG=1 VAL=4
M  V30 3 O 0.256608 3.961233 3.231011 0 CHG=-1 VAL=1
M  V30 4 C 2.725947 4.914890 3.446284 0
M  V30 5 C 3.215650 5.908542 4.266229 0
M  V30 6 C 4.588724 6.021702 4.313969 0
M  V30 7 C 5.385146 5.189174 3.585109 0
M  V30 8 C 4.897569 4.195431 2.764767 0
M  V30 9 C 3.519586 4.067685 2.704698 0
M  V30 10 C 2.969022 3.035929 1.840200 0
M  V30 11 C 3.574733 1.805400 2.006034 0
M  V30 12 C 3.162112 0.721995 1.248370 0
M  V30 13 C 2.156541 0.832189 0.324676 0
M  V30 14 C 1.619767 -0.238332 -0.547382 0
M  V30 15 S 0.262908 -1.071853 0.294732 0
M  V30 16 C -0.400498 -2.367327 -0.740862 0
M  V30 17 N -0.101889 -2.831870 -1.982618 0
M  V30 18 N -0.921480 -3.828993 -2.278533 0
M  V30 19 C -1.735782 -3.985330 -1.212312 0
M  V30 20 C -2.815315 -4.954349 -1.040719 0
M  V30 21 C -3.518656 -4.927720 0.145555 0
M  V30 22 C -4.568941 -5.797003 0.431755 0
M  V30 23 C -4.904346 -6.721233 -0.533383 0
M  V30 24 C -4.196803 -6.751001 -1.731638 0
M  V30 25 C -3.146096 -5.877760 -2.011986 0
M  V30 26 O -4.757162 -7.765614 -2.479044 0
M  V30 27 C -6.054013 -8.089729 -1.959614 0
M  V30 28 O -5.881445 -7.727512 -0.589980 0
M  V30 29 O -1.401647 -3.104382 -0.318206 0
M  V30 30 C 1.557804 2.064333 0.165918 0
M  V30 31 C 1.964367 3.132393 0.912517 0
M  V30 32 H 2.627420 6.585416 4.856693 0
M  V30 33 H 5.063190 6.776473 4.933243 0
M  V30 34 H 6.477847 5.280698 3.624552 0
M  V30 35 H 5.510465 3.526219 2.179920 0
M  V30 36 H 4.384056 1.603987 2.711707 0
M  V30 37 H 3.602990 -0.276816 1.334537 0
M  V30 38 H 2.429798 -0.985589 -0.695487 0
M  V30 39 H 1.337702 0.138498 -1.550970 0
M  V30 40 H -3.294936 -4.218402 0.941038 0
M  V30 41 H -5.118808 -5.774794 1.361563 0
M  V30 42 H -2.595574 -5.889515 -2.925696 0
M  V30 43 H -6.285893 -9.154532 -2.029624 0
M  V30 44 H -6.835269 -7.452849 -2.458459 0
M  V30 45 H 0.747539 2.271739 -0.538577 0
M  V30 46 H 1.531241 4.116494 0.822886 0
M  V30 END ATOM
M  V30 BEGIN BOND
M  V30 1 2 1 2
M  V30 2 1 2 3
M  V30 3 1 2 4
M  V30 4 2 4 5
M  V30 5 1 5 6
M  V30 6 2 6 7
M  V30 7 1 7 8
M  V30 8 2 8 9
M  V30 9 1 9 10
M  V30 10 2 10 11
M  V30 11 1 11 12
M  V30 12 2 12 13
M  V30 13 1 13 14
M  V30 14 1 14 15
M  V30 15 1 15 16
M  V30 16 2 16 17
M  V30 17 1 17 18
M  V30 18 2 18 19
M  V30 19 1 19 20
M  V30 20 2 20 21
M  V30 21 1 21 22
M  V30 22 2 22 23
M  V30 23 1 23 24
M  V30 24 2 24 25
M  V30 25 1 24 26
M  V30 26 1 26 27
M  V30 27 1 27 28
M  V30 28 1 19 29
M  V30 29 1 13 30
M  V30 30 2 30 31
M  V30 31 1 9 4
M  V30 32 1 31 10
M  V30 33 1 29 16
M  V30 34 1 25 20
M  V30 35 1 28 23
M  V30 36 1 5 32
M  V30 37 1 6 33
M  V30 38 1 7 34
M  V30 39 1 8 35
M  V30 40 1 11 36
M  V30 41 1 12 37
M  V30 42 1 14 38
M  V30 43 1 14 39
M  V30 44 1 21 40
M  V30 45 1 22 41
M  V30 46 1 25 42
M  V30 47 1 27 43
M  V30 48 1 27 44
M  V30 49 1 30 45
M  V30 50 1 31 46
M  V30 END BOND
M  V30 END CTAB
M  END
>  <Dataset>  (963) 
ChEMBL_Kinases

>  <Ligand_Instance>  (963) 
nan

>  <PDB_ID>  (963) 
nan

>  <Standardized_SMILES>  (963) 
O=[N+]([O-])c1ccccc1-c1ccc(CSc2nnc(-c3ccc4c(c3)OCO4)o2)cc1

>  <Name>  (963) 
nan

>  <Pocket>  (963) 
nan

>  <ATP_Site>  (963) 
nan

>  <Peripheral>  (963) 
nan

>  <Num_H_Atoms_ProtBoundConf>  (963) 
nan

>  <Num_Resolved_Atoms>  (963) 
nan

>  <Num_Not_Resolved_Atoms>  (963) 
nan

$$$$
CHEMBL2391123
     RDKit          3D

  0  0  0  0  0  0  0  0  0  0999 V3000
M  V30 BEGIN CTAB
M  V30 COUNTS 47 51 0 0 0
M  V30 BEGIN ATOM
M  V30 1 C -1.755944 -5.704552 1.282889 0
M  V30 2 C -2.301513 -5.789712 0.014858 0
M  V30 3 C -2.097577 -4.790799 -0.933385 0
M  V30 4 C -1.320584 -3.701054 -0.552067 0
M  V30 5 C -0.994399 -2.547282 -1.407251 0
M  V30 6 C 0.192829 -1.847559 -1.287749 0
M  V30 7 C 0.494510 -0.768124 -2.085383 0
M  V30 8 C -0.437779 -0.370667 -3.048164 0
M  V30 9 C -0.218243 0.799511 -3.973970 0
M  V30 10 S -0.894830 2.301870 -3.157127 0
M  V30 11 C 0.146856 2.593217 -1.706256 0
M  V30 12 N 1.288596 3.332914 -1.606602 0
M  V30 13 N 1.682985 3.240222 -0.341380 0
M  V30 14 C 0.820728 2.467426 0.342090 0
M  V30 15 C 0.863687 2.096843 1.755419 0
M  V30 16 C -0.167998 1.279135 2.218612 0
M  V30 17 C -0.186893 0.888994 3.547659 0
M  V30 18 C 0.841420 1.335572 4.382788 0
M  V30 19 C 1.852563 2.143887 3.906351 0
M  V30 20 C 1.881220 2.541148 2.573256 0
M  V30 21 O 2.905492 2.624645 4.684621 0
M  V30 22 C 2.936110 2.330798 6.069637 0
M  V30 23 C 2.315523 0.940465 6.247978 0
M  V30 24 O 1.000534 1.056783 5.735563 0
M  V30 25 O -0.107324 2.084627 -0.510411 0
M  V30 26 C -1.618149 -1.084049 -3.151463 0
M  V30 27 C -1.929038 -2.172004 -2.351987 0
M  V30 28 C -0.788027 -3.632941 0.707700 0
M  V30 29 C -0.986862 -4.619573 1.650004 0
M  V30 30 H -1.992144 -6.546786 1.919669 0
M  V30 31 H -2.921896 -6.611711 -0.357880 0
M  V30 32 H -2.482333 -4.772604 -1.942349 0
M  V30 33 H 0.922794 -2.162349 -0.534219 0
M  V30 34 H 1.413696 -0.204331 -2.013065 0
M  V30 35 H 0.874385 0.930619 -4.116800 0
M  V30 36 H -0.754874 0.616511 -4.908614 0
M  V30 37 H -0.979875 0.912973 1.606625 0
M  V30 38 H -0.924123 0.262233 4.035897 0
M  V30 39 H 2.620279 3.164377 2.107812 0
M  V30 40 H 2.226534 3.032164 6.596686 0
M  V30 41 H 3.949776 2.388845 6.488373 0
M  V30 42 H 2.312753 0.633730 7.312347 0
M  V30 43 H 2.892106 0.220863 5.633276 0
M  V30 44 H -2.341528 -0.763472 -3.911173 0
M  V30 45 H -2.884638 -2.658899 -2.523187 0
M  V30 46 H -0.167364 -2.794859 1.061753 0
M  V30 47 H -0.591356 -4.621314 2.660216 0
M  V30 END ATOM
M  V30 BEGIN BOND
M  V30 1 2 1 2
M  V30 2 1 2 3
M  V30 3 2 3 4
M  V30 4 1 4 5
M  V30 5 2 5 6
M  V30 6 1 6 7
M  V30 7 2 7 8
M  V30 8 1 8 9
M  V30 9 1 9 10
M  V30 10 1 10 11
M  V30 11 2 11 12
M  V30 12 1 12 13
M  V30 13 2 13 14
M  V30 14 1 14 15
M  V30 15 2 15 16
M  V30 16 1 16 17
M  V30 17 2 17 18
M  V30 18 1 18 19
M  V30 19 2 19 20
M  V30 20 1 19 21
M  V30 21 1 21 22
M  V30 22 1 22 23
M  V30 23 1 23 24
M  V30 24 1 14 25
M  V30 25 1 8 26
M  V30 26 2 26 27
M  V30 27 1 4 28
M  V30 28 2 28 29
M  V30 29 1 29 1
M  V30 30 1 27 5
M  V30 31 1 25 11
M  V30 32 1 20 15
M  V30 33 1 24 18
M  V30 34 1 1 30
M  V30 35 1 2 31
M  V30 36 1 3 32
M  V30 37 1 6 33
M  V30 38 1 7 34
M  V30 39 1 9 35
M  V30 40 1 9 36
M  V30 41 1 16 37
M  V30 42 1 17 38
M  V30 43 1 20 39
M  V30 44 1 22 40
M  V30 45 1 22 41
M  V30 46 1 23 42
M  V30 47 1 23 43
M  V30 48 1 26 44
M  V30 49 1 27 45
M  V30 50 1 28 46
M  V30 51 1 29 47
M  V30 END BOND
M  V30 END CTAB
M  END
>  <Dataset>  (964) 
ChEMBL_Kinases

>  <Ligand_Instance>  (964) 
nan

>  <PDB_ID>  (964) 
nan

>  <Standardized_SMILES>  (964) 
c1ccc(-c2ccc(CSc3nnc(-c4ccc5c(c4)OCCO5)o3)cc2)cc1

>  <Name>  (964) 
nan

>  <Pocket>  (964) 
nan

>  <ATP_Site>  (964) 
nan

>  <Peripheral>  (964) 
nan

>  <Num_H_Atoms_ProtBoundConf>  (964) 
nan

>  <Num_Resolved_Atoms>  (964) 
nan

>  <Num_Not_Resolved_Atoms>  (964) 
nan

$$$$
CHEMBL3695588
     RDKit          3D

  0  0  0  0  0  0  0  0  0  0999 V3000
M  V30 BEGIN CTAB
M  V30 COUNTS 69 74 0 0 0
M  V30 BEGIN ATOM
M  V30 1 C 4.489125 -4.554219 3.481835 0
M  V30 2 C 4.176829 -4.116547 2.072793 0
M  V30 3 C 5.333191 -4.508312 1.162895 0
M  V30 4 C 2.997738 -4.960722 1.607614 0
M  V30 5 C 3.863377 -2.671563 1.977625 0
M  V30 6 C 3.533499 -1.956664 0.821795 0
M  V30 7 C 3.329326 -0.641532 1.250671 0
M  V30 8 N 2.974192 0.272238 0.195986 0
M  V30 9 C 1.594613 0.454046 -0.114728 0
M  V30 10 O 0.752647 -0.198292 0.554058 0
M  V30 11 N 1.042180 1.302667 -1.111634 0
M  V30 12 C -0.391418 1.286944 -1.205092 0
M  V30 13 C -1.281518 2.107080 -0.524865 0
M  V30 14 C -2.634773 1.946347 -0.741772 0
M  V30 15 C -3.138256 0.991806 -1.617426 0
M  V30 16 O -4.513324 0.996673 -1.688266 0
M  V30 17 C -5.257360 -0.090105 -1.277789 0
M  V30 18 C -4.925590 -1.302292 -0.720423 0
M  V30 19 C -5.851476 -2.262103 -0.382488 0
M  V30 20 N -7.126543 -1.990687 -0.611501 0
M  V30 21 C -7.553433 -0.824030 -1.157029 0
M  V30 22 N -8.883085 -0.718209 -1.318842 0
M  V30 23 C -9.355052 0.418174 -1.855455 0
M  V30 24 O -10.595505 0.530537 -2.012295 0
M  V30 25 C -8.462720 1.397491 -2.204942 0
M  V30 26 N -7.147621 1.275630 -2.037373 0
M  V30 27 C -6.619299 0.159361 -1.504631 0
M  V30 28 C -2.218364 0.201455 -2.271050 0
M  V30 29 C -2.766702 -0.720687 -3.138903 0
M  V30 30 C -1.912047 -1.543147 -3.838990 0
M  V30 31 C -0.536720 -1.462585 -3.690685 0
M  V30 32 C -0.040974 -0.521429 -2.809881 0
M  V30 33 C -0.858249 0.323006 -2.088294 0
M  V30 34 N 3.524657 -0.586387 2.562406 0
M  V30 35 C 3.351743 0.696427 3.146447 0
M  V30 36 C 4.493269 1.458049 3.286870 0
M  V30 37 C 4.396764 2.717985 3.848625 0
M  V30 38 C 3.174957 3.229325 4.272805 0
M  V30 39 O 3.032027 4.498716 4.846324 0
M  V30 40 C 2.037618 2.462914 4.129578 0
M  V30 41 C 2.132240 1.194029 3.564374 0
M  V30 42 N 3.845202 -1.806979 2.995710 0
M  V30 43 H 5.016001 -3.790059 4.073536 0
M  V30 44 H 5.041483 -5.520538 3.446365 0
M  V30 45 H 3.544558 -4.786572 4.049506 0
M  V30 46 H 5.256779 -5.628048 1.046319 0
M  V30 47 H 5.195522 -4.094985 0.160587 0
M  V30 48 H 6.306693 -4.322952 1.624449 0
M  V30 49 H 2.050898 -4.644347 2.079082 0
M  V30 50 H 3.195241 -6.002983 1.935195 0
M  V30 51 H 2.936228 -5.009150 0.499031 0
M  V30 52 H 3.486990 -2.464663 -0.139870 0
M  V30 53 H 3.570368 0.866003 -0.425736 0
M  V30 54 H 1.757523 1.853667 -1.675297 0
M  V30 55 H -0.822799 2.821034 0.135006 0
M  V30 56 H -3.215577 2.654641 -0.144268 0
M  V30 57 H -3.864906 -1.398098 -0.580394 0
M  V30 58 H -5.424630 -3.151144 0.041949 0
M  V30 59 H -9.527708 -1.487924 -1.039055 0
M  V30 60 H -8.858796 2.322294 -2.642760 0
M  V30 61 H -3.831031 -0.817879 -3.297426 0
M  V30 62 H -2.291234 -2.285015 -4.533237 0
M  V30 63 H 0.167751 -2.098724 -4.229009 0
M  V30 64 H 1.023843 -0.444780 -2.682317 0
M  V30 65 H 5.481820 1.165972 2.996337 0
M  V30 66 H 5.265427 3.371711 3.987381 0
M  V30 67 H 3.821466 5.158339 4.856244 0
M  V30 68 H 1.077207 2.866961 4.464009 0
M  V30 69 H 1.244556 0.577051 3.444640 0
M  V30 END ATOM
M  V30 BEGIN BOND
M  V30 1 1 1 2
M  V30 2 1 2 3
M  V30 3 1 2 4
M  V30 4 1 2 5
M  V30 5 1 5 6
M  V30 6 2 6 7
M  V30 7 1 7 8
M  V30 8 1 8 9
M  V30 9 2 9 10
M  V30 10 1 9 11
M  V30 11 1 11 12
M  V30 12 2 12 13
M  V30 13 1 13 14
M  V30 14 2 14 15
M  V30 15 1 15 16
M  V30 16 1 16 17
M  V30 17 2 17 18
M  V30 18 1 18 19
M  V30 19 2 19 20
M  V30 20 1 20 21
M  V30 21 1 21 22
M  V30 22 1 22 23
M  V30 23 2 23 24
M  V30 24 1 23 25
M  V30 25 2 25 26
M  V30 26 1 26 27
M  V30 27 1 15 28
M  V30 28 2 28 29
M  V30 29 1 29 30
M  V30 30 2 30 31
M  V30 31 1 31 32
M  V30 32 2 32 33
M  V30 33 1 7 34
M  V30 34 1 34 35
M  V30 35 2 35 36
M  V30 36 1 36 37
M  V30 37 2 37 38
M  V30 38 1 38 39
M  V30 39 1 38 40
M  V30 40 2 40 41
M  V30 41 1 34 42
M  V30 42 2 42 5
M  V30 43 1 33 12
M  V30 44 1 41 35
M  V30 45 1 27 17
M  V30 46 1 33 28
M  V30 47 2 27 21
M  V30 48 1 1 43
M  V30 49 1 1 44
M  V30 50 1 1 45
M  V30 51 1 3 46
M  V30 52 1 3 47
M  V30 53 1 3 48
M  V30 54 1 4 49
M  V30 55 1 4 50
M  V30 56 1 4 51
M  V30 57 1 6 52
M  V30 58 1 8 53
M  V30 59 1 11 54
M  V30 60 1 13 55
M  V30 61 1 14 56
M  V30 62 1 18 57
M  V30 63 1 19 58
M  V30 64 1 22 59
M  V30 65 1 25 60
M  V30 66 1 29 61
M  V30 67 1 30 62
M  V30 68 1 31 63
M  V30 69 1 32 64
M  V30 70 1 36 65
M  V30 71 1 37 66
M  V30 72 1 39 67
M  V30 73 1 40 68
M  V30 74 1 41 69
M  V30 END BOND
M  V30 END CTAB
M  END
>  <Dataset>  (965) 
ChEMBL_Kinases

>  <Ligand_Instance>  (965) 
nan

>  <PDB_ID>  (965) 
nan

>  <Standardized_SMILES>  (965) 
CC(C)(C)c1cc(NC(=O)Nc2ccc(Oc3ccnc4[nH]c(=O)cnc34)c3ccccc23)n(-c2ccc(O)cc2)n1

>  <Name>  (965) 
nan

>  <Pocket>  (965) 
nan

>  <ATP_Site>  (965) 
nan

>  <Peripheral>  (965) 
nan

>  <Num_H_Atoms_ProtBoundConf>  (965) 
nan

>  <Num_Resolved_Atoms>  (965) 
nan

>  <Num_Not_Resolved_Atoms>  (965) 
nan

$$$$
CHEMBL3695587
     RDKit          3D

  0  0  0  0  0  0  0  0  0  0999 V3000
M  V30 BEGIN CTAB
M  V30 COUNTS 69 74 0 0 0
M  V30 BEGIN ATOM
M  V30 1 C 1.839645 -7.010520 0.633808 0
M  V30 2 C 1.987478 -5.704279 -0.067782 0
M  V30 3 C 0.862174 -4.943184 -0.370383 0
M  V30 4 C 1.132689 -3.756446 -1.019723 0
M  V30 5 C 2.400906 -3.326753 -1.357411 0
M  V30 6 N 2.646025 -2.094924 -2.028294 0
M  V30 7 N 2.734519 -1.749895 -3.311402 0
M  V30 8 C 2.983613 -0.444394 -3.432172 0
M  V30 9 C 3.144208 0.279201 -4.743350 0
M  V30 10 C 2.968124 -0.756104 -5.835082 0
M  V30 11 C 4.558904 0.803312 -4.890198 0
M  V30 12 C 2.106467 1.338381 -4.899294 0
M  V30 13 C 3.058936 0.077092 -2.145486 0
M  V30 14 C 2.842503 -0.984795 -1.284103 0
M  V30 15 N 2.853102 -0.791911 0.144707 0
M  V30 16 C 1.599271 -0.468001 0.757866 0
M  V30 17 O 0.558266 -0.367894 0.029354 0
M  V30 18 N 1.349162 -0.229830 2.152496 0
M  V30 19 C 0.003055 0.075310 2.498438 0
M  V30 20 C -0.823220 -0.971237 2.813833 0
M  V30 21 C -2.137259 -0.752593 3.158149 0
M  V30 22 C -2.689275 0.506405 3.205317 0
M  V30 23 O -3.950908 0.941866 3.517066 0
M  V30 24 C -4.992049 0.110357 3.873781 0
M  V30 25 N -5.085624 -1.213550 4.010161 0
M  V30 26 C -6.223304 -1.791034 4.372300 0
M  V30 27 N -7.371204 -1.123135 4.633256 0
M  V30 28 C -7.330995 0.234431 4.508790 0
M  V30 29 N -8.331595 1.095785 4.712948 0
M  V30 30 C -7.800273 2.298454 4.465909 0
M  V30 31 O -8.395646 3.418376 4.536661 0
M  V30 32 N -6.515089 2.166107 4.122348 0
M  V30 33 C -6.141531 0.856037 4.128678 0
M  V30 34 C -1.855483 1.573834 2.886105 0
M  V30 35 C -2.212848 2.894153 2.874442 0
M  V30 36 C -1.376864 3.928949 2.557350 0
M  V30 37 C -0.070900 3.655756 2.219819 0
M  V30 38 C 0.370518 2.353330 2.206795 0
M  V30 39 C -0.517945 1.358845 2.534999 0
M  V30 40 C 3.482470 -4.119191 -1.034452 0
M  V30 41 C 3.268095 -5.317299 -0.384040 0
M  V30 42 H 2.655502 -7.099512 1.401486 0
M  V30 43 H 1.950086 -7.882467 -0.033514 0
M  V30 44 H 0.850309 -7.110845 1.121468 0
M  V30 45 H -0.136606 -5.267667 -0.111777 0
M  V30 46 H 0.266634 -3.137490 -1.270119 0
M  V30 47 H 3.933897 -1.290059 -5.958223 0
M  V30 48 H 2.630696 -0.297183 -6.789912 0
M  V30 49 H 2.222222 -1.497591 -5.458010 0
M  V30 50 H 4.801801 1.644241 -4.239970 0
M  V30 51 H 5.232465 -0.038369 -4.575364 0
M  V30 52 H 4.743188 0.966716 -5.971946 0
M  V30 53 H 1.769061 1.343749 -5.956550 0
M  V30 54 H 1.209129 1.074907 -4.282139 0
M  V30 55 H 2.462783 2.353385 -4.627690 0
M  V30 56 H 3.257416 1.139240 -2.012848 0
M  V30 57 H 3.652321 -0.850822 0.835554 0
M  V30 58 H 2.216476 -0.313184 2.759776 0
M  V30 59 H -0.547825 -2.021180 2.825532 0
M  V30 60 H -2.830777 -1.530531 3.414481 0
M  V30 61 H -6.156768 -2.875413 4.444500 0
M  V30 62 H -9.298623 0.878819 4.997894 0
M  V30 63 H -5.855187 2.942215 3.875451 0
M  V30 64 H -3.246201 3.129747 3.139894 0
M  V30 65 H -1.711462 4.948929 2.564490 0
M  V30 66 H 0.599499 4.472293 1.966647 0
M  V30 67 H 1.392637 2.153460 1.941458 0
M  V30 68 H 4.475781 -3.781551 -1.299516 0
M  V30 69 H 4.142266 -5.908627 -0.148927 0
M  V30 END ATOM
M  V30 BEGIN BOND
M  V30 1 1 1 2
M  V30 2 2 2 3
M  V30 3 1 3 4
M  V30 4 2 4 5
M  V30 5 1 5 6
M  V30 6 1 6 7
M  V30 7 2 7 8
M  V30 8 1 8 9
M  V30 9 1 9 10
M  V30 10 1 9 11
M  V30 11 1 9 12
M  V30 12 1 8 13
M  V30 13 2 13 14
M  V30 14 1 14 15
M  V30 15 1 15 16
M  V30 16 2 16 17
M  V30 17 1 16 18
M  V30 18 1 18 19
M  V30 19 2 19 20
M  V30 20 1 20 21
M  V30 21 2 21 22
M  V30 22 1 22 23
M  V30 23 1 23 24
M  V30 24 2 24 25
M  V30 25 1 25 26
M  V30 26 2 26 27
M  V30 27 1 27 28
M  V30 28 1 28 29
M  V30 29 1 29 30
M  V30 30 2 30 31
M  V30 31 1 30 32
M  V30 32 1 32 33
M  V30 33 1 22 34
M  V30 34 2 34 35
M  V30 35 1 35 36
M  V30 36 2 36 37
M  V30 37 1 37 38
M  V30 38 2 38 39
M  V30 39 1 5 40
M  V30 40 2 40 41
M  V30 41 1 41 2
M  V30 42 1 14 6
M  V30 43 1 39 19
M  V30 44 1 33 24
M  V30 45 1 39 34
M  V30 46 2 33 28
M  V30 47 1 1 42
M  V30 48 1 1 43
M  V30 49 1 1 44
M  V30 50 1 3 45
M  V30 51 1 4 46
M  V30 52 1 10 47
M  V30 53 1 10 48
M  V30 54 1 10 49
M  V30 55 1 11 50
M  V30 56 1 11 51
M  V30 57 1 11 52
M  V30 58 1 12 53
M  V30 59 1 12 54
M  V30 60 1 12 55
M  V30 61 1 13 56
M  V30 62 1 15 57
M  V30 63 1 18 58
M  V30 64 1 20 59
M  V30 65 1 21 60
M  V30 66 1 26 61
M  V30 67 1 29 62
M  V30 68 1 32 63
M  V30 69 1 35 64
M  V30 70 1 36 65
M  V30 71 1 37 66
M  V30 72 1 38 67
M  V30 73 1 40 68
M  V30 74 1 41 69
M  V30 END BOND
M  V30 END CTAB
M  END
>  <Dataset>  (966) 
ChEMBL_Kinases

>  <Ligand_Instance>  (966) 
nan

>  <PDB_ID>  (966) 
nan

>  <Standardized_SMILES>  (966) 
Cc1ccc(-n2nc(C(C)(C)C)cc2NC(=O)Nc2ccc(Oc3ncnc4[nH]c(=O)[nH]c34)c3ccccc23)cc1

>  <Name>  (966) 
nan

>  <Pocket>  (966) 
nan

>  <ATP_Site>  (966) 
nan

>  <Peripheral>  (966) 
nan

>  <Num_H_Atoms_ProtBoundConf>  (966) 
nan

>  <Num_Resolved_Atoms>  (966) 
nan

>  <Num_Not_Resolved_Atoms>  (966) 
nan

$$$$
CHEMBL2391124
     RDKit          3D

  0  0  0  0  0  0  0  0  0  0999 V3000
M  V30 BEGIN CTAB
M  V30 COUNTS 47 51 0 0 0
M  V30 BEGIN ATOM
M  V30 1 F 1.562581 -5.788223 0.646992 0
M  V30 2 C 2.016615 -4.734264 1.369373 0
M  V30 3 C 2.274436 -4.774261 2.743258 0
M  V30 4 C 2.734719 -3.663400 3.412347 0
M  V30 5 F 2.976689 -3.728973 4.740222 0
M  V30 6 C 2.957420 -2.473331 2.750873 0
M  V30 7 C 2.722621 -2.367407 1.395531 0
M  V30 8 C 2.910100 -1.177827 0.569674 0
M  V30 9 C 3.264905 -1.185423 -0.763711 0
M  V30 10 C 3.408956 0.009854 -1.440915 0
M  V30 11 C 3.206222 1.224232 -0.816079 0
M  V30 12 C 3.322417 2.563782 -1.430010 0
M  V30 13 S 1.772302 3.148852 -2.132807 0
M  V30 14 C 0.530750 3.443850 -0.889292 0
M  V30 15 N 0.079822 4.426906 -0.086243 0
M  V30 16 N -0.929017 3.960827 0.642050 0
M  V30 17 C -1.117368 2.673780 0.297265 0
M  V30 18 C -2.140990 1.770084 0.864975 0
M  V30 19 C -3.018724 2.219395 1.835056 0
M  V30 20 C -3.943423 1.312723 2.314818 0
M  V30 21 C -4.009855 0.010234 1.863035 0
M  V30 22 C -3.126306 -0.406797 0.900456 0
M  V30 23 C -2.178698 0.473031 0.389389 0
M  V30 24 O -3.107624 -1.681637 0.382691 0
M  V30 25 C -4.086883 -2.659672 0.668580 0
M  V30 26 C -5.113432 -2.188773 1.636195 0
M  V30 27 O -4.875026 -0.972720 2.259024 0
M  V30 28 O -0.217121 2.387198 -0.634459 0
M  V30 29 C 2.846789 1.222199 0.536864 0
M  V30 30 C 2.700558 0.017871 1.223239 0
M  V30 31 C 2.258062 -3.510049 0.752566 0
M  V30 32 H 2.092878 -5.718132 3.239941 0
M  V30 33 H 3.317546 -1.573191 3.229037 0
M  V30 34 H 3.418325 -2.130579 -1.232725 0
M  V30 35 H 3.681629 0.046299 -2.471905 0
M  V30 36 H 3.645631 3.312468 -0.681338 0
M  V30 37 H 4.086522 2.524686 -2.225148 0
M  V30 38 H -2.980414 3.229679 2.197852 0
M  V30 39 H -4.669809 1.577793 3.077046 0
M  V30 40 H -1.457645 0.173708 -0.379910 0
M  V30 41 H -4.504838 -2.977194 -0.308320 0
M  V30 42 H -3.564150 -3.577307 1.067978 0
M  V30 43 H -5.210810 -2.952068 2.463807 0
M  V30 44 H -6.097594 -2.178546 1.105621 0
M  V30 45 H 2.673640 2.148522 1.082292 0
M  V30 46 H 2.420620 0.079101 2.269224 0
M  V30 47 H 2.057059 -3.481570 -0.312813 0
M  V30 END ATOM
M  V30 BEGIN BOND
M  V30 1 1 1 2
M  V30 2 2 2 3
M  V30 3 1 3 4
M  V30 4 1 4 5
M  V30 5 2 4 6
M  V30 6 1 6 7
M  V30 7 1 7 8
M  V30 8 2 8 9
M  V30 9 1 9 10
M  V30 10 2 10 11
M  V30 11 1 11 12
M  V30 12 1 12 13
M  V30 13 1 13 14
M  V30 14 2 14 15
M  V30 15 1 15 16
M  V30 16 2 16 17
M  V30 17 1 17 18
M  V30 18 2 18 19
M  V30 19 1 19 20
M  V30 20 2 20 21
M  V30 21 1 21 22
M  V30 22 2 22 23
M  V30 23 1 22 24
M  V30 24 1 24 25
M  V30 25 1 25 26
M  V30 26 1 26 27
M  V30 27 1 17 28
M  V30 28 1 11 29
M  V30 29 2 29 30
M  V30 30 2 7 31
M  V30 31 1 31 2
M  V30 32 1 30 8
M  V30 33 1 28 14
M  V30 34 1 23 18
M  V30 35 1 27 21
M  V30 36 1 3 32
M  V30 37 1 6 33
M  V30 38 1 9 34
M  V30 39 1 10 35
M  V30 40 1 12 36
M  V30 41 1 12 37
M  V30 42 1 19 38
M  V30 43 1 20 39
M  V30 44 1 23 40
M  V30 45 1 25 41
M  V30 46 1 25 42
M  V30 47 1 26 43
M  V30 48 1 26 44
M  V30 49 1 29 45
M  V30 50 1 30 46
M  V30 51 1 31 47
M  V30 END BOND
M  V30 END CTAB
M  END
>  <Dataset>  (967) 
ChEMBL_Kinases

>  <Ligand_Instance>  (967) 
nan

>  <PDB_ID>  (967) 
nan

>  <Standardized_SMILES>  (967) 
Fc1cc(F)cc(-c2ccc(CSc3nnc(-c4ccc5c(c4)OCCO5)o3)cc2)c1

>  <Name>  (967) 
nan

>  <Pocket>  (967) 
nan

>  <ATP_Site>  (967) 
nan

>  <Peripheral>  (967) 
nan

>  <Num_H_Atoms_ProtBoundConf>  (967) 
nan

>  <Num_Resolved_Atoms>  (967) 
nan

>  <Num_Not_Resolved_Atoms>  (967) 
nan

$$$$
CHEMBL3695586
     RDKit          3D

  0  0  0  0  0  0  0  0  0  0999 V3000
M  V30 BEGIN CTAB
M  V30 COUNTS 68 72 0 0 0
M  V30 BEGIN ATOM
M  V30 1 C 6.871959 -3.302365 4.262015 0
M  V30 2 O 5.644273 -3.467590 3.604141 0
M  V30 3 C 5.268910 -2.736801 2.491795 0
M  V30 4 C 5.972237 -1.751895 1.830568 0
M  V30 5 C 5.425371 -1.128210 0.724256 0
M  V30 6 C 4.160817 -1.471173 0.247926 0
M  V30 7 N 3.782944 -0.728414 -0.880137 0
M  V30 8 N 4.303496 -0.725644 -2.101085 0
M  V30 9 C 3.623328 0.148881 -2.880749 0
M  V30 10 C 3.819438 0.512741 -4.321525 0
M  V30 11 C 4.953747 -0.242119 -4.924684 0
M  V30 12 C 2.537175 0.179060 -5.083863 0
M  V30 13 C 3.976638 2.009956 -4.407013 0
M  V30 14 C 2.623096 0.723731 -2.103847 0
M  V30 15 C 2.756532 0.140541 -0.837635 0
M  V30 16 N 1.854756 0.537837 0.190211 0
M  V30 17 C 0.619100 -0.119758 0.420268 0
M  V30 18 O 0.396655 -1.061162 -0.345204 0
M  V30 19 N -0.290550 0.234376 1.411325 0
M  V30 20 C -1.541651 -0.345757 1.727907 0
M  V30 21 C -2.092518 -1.414174 1.069102 0
M  V30 22 C -3.311009 -1.951484 1.404811 0
M  V30 23 C -4.088196 -1.460214 2.437821 0
M  V30 24 O -5.300867 -1.853185 2.910615 0
M  V30 25 C -6.477564 -1.202321 3.061119 0
M  V30 26 C -6.825779 -1.206868 4.423157 0
M  V30 27 C -8.002189 -0.598514 4.868463 0
M  V30 28 N -8.840889 0.008014 4.031826 0
M  V30 29 C -8.538229 0.031959 2.708797 0
M  V30 30 N -9.102558 0.517710 1.583163 0
M  V30 31 C -8.320800 0.224426 0.514631 0
M  V30 32 O -8.547027 0.529454 -0.700704 0
M  V30 33 N -7.231122 -0.458052 0.920432 0
M  V30 34 C -6.177724 -0.950640 0.071564 0
M  V30 35 C -7.384882 -0.561118 2.249583 0
M  V30 36 C -3.520171 -0.370416 3.105263 0
M  V30 37 Cl -4.331822 0.421943 4.450786 0
M  V30 38 C -2.288368 0.167075 2.760411 0
M  V30 39 Cl -1.625953 1.549573 3.648717 0
M  V30 40 C 3.465749 -2.457875 0.916955 0
M  V30 41 C 4.002531 -3.089167 2.025159 0
M  V30 42 H 7.653983 -2.856117 3.641534 0
M  V30 43 H 7.242027 -4.340170 4.503663 0
M  V30 44 H 6.748066 -2.798669 5.260556 0
M  V30 45 H 6.940580 -1.539822 2.254183 0
M  V30 46 H 6.084153 -0.373032 0.299958 0
M  V30 47 H 4.756144 -0.325402 -6.027222 0
M  V30 48 H 4.975108 -1.276908 -4.540372 0
M  V30 49 H 5.889783 0.312906 -4.725560 0
M  V30 50 H 1.634900 0.510604 -4.531940 0
M  V30 51 H 2.471019 -0.892557 -5.352899 0
M  V30 52 H 2.567695 0.763784 -6.012455 0
M  V30 53 H 3.784781 2.338126 -5.446200 0
M  V30 54 H 4.969375 2.310369 -4.030544 0
M  V30 55 H 3.154226 2.455330 -3.797153 0
M  V30 56 H 1.899909 1.476102 -2.452690 0
M  V30 57 H 2.100040 1.341043 0.803930 0
M  V30 58 H 0.045533 1.051041 1.974390 0
M  V30 59 H -1.614700 -1.893021 0.260525 0
M  V30 60 H -3.771303 -2.799425 0.898705 0
M  V30 61 H -6.302870 -1.641868 5.286147 0
M  V30 62 H -8.343047 -0.556194 5.892050 0
M  V30 63 H -10.008707 1.040180 1.558810 0
M  V30 64 H -5.951795 -2.024093 0.268388 0
M  V30 65 H -6.534670 -0.932043 -0.978394 0
M  V30 66 H -5.284830 -0.293645 0.079971 0
M  V30 67 H 2.494314 -2.667998 0.488948 0
M  V30 68 H 3.364178 -3.851747 2.472096 0
M  V30 END ATOM
M  V30 BEGIN BOND
M  V30 1 1 1 2
M  V30 2 1 2 3
M  V30 3 2 3 4
M  V30 4 1 4 5
M  V30 5 2 5 6
M  V30 6 1 6 7
M  V30 7 1 7 8
M  V30 8 2 8 9
M  V30 9 1 9 10
M  V30 10 1 10 11
M  V30 11 1 10 12
M  V30 12 1 10 13
M  V30 13 1 9 14
M  V30 14 2 14 15
M  V30 15 1 15 16
M  V30 16 1 16 17
M  V30 17 2 17 18
M  V30 18 1 17 19
M  V30 19 1 19 20
M  V30 20 2 20 21
M  V30 21 1 21 22
M  V30 22 2 22 23
M  V30 23 1 23 24
M  V30 24 1 24 25
M  V30 25 2 25 26
M  V30 26 1 26 27
M  V30 27 2 27 28
M  V30 28 1 28 29
M  V30 29 1 29 30
M  V30 30 1 30 31
M  V30 31 2 31 32
M  V30 32 1 31 33
M  V30 33 1 33 34
M  V30 34 1 33 35
M  V30 35 1 23 36
M  V30 36 1 36 37
M  V30 37 2 36 38
M  V30 38 1 38 39
M  V30 39 1 6 40
M  V30 40 2 40 41
M  V30 41 1 41 3
M  V30 42 1 15 7
M  V30 43 1 38 20
M  V30 44 1 35 25
M  V30 45 2 35 29
M  V30 46 1 1 42
M  V30 47 1 1 43
M  V30 48 1 1 44
M  V30 49 1 4 45
M  V30 50 1 5 46
M  V30 51 1 11 47
M  V30 52 1 11 48
M  V30 53 1 11 49
M  V30 54 1 12 50
M  V30 55 1 12 51
M  V30 56 1 12 52
M  V30 57 1 13 53
M  V30 58 1 13 54
M  V30 59 1 13 55
M  V30 60 1 14 56
M  V30 61 1 16 57
M  V30 62 1 19 58
M  V30 63 1 21 59
M  V30 64 1 22 60
M  V30 65 1 26 61
M  V30 66 1 27 62
M  V30 67 1 30 63
M  V30 68 1 34 64
M  V30 69 1 34 65
M  V30 70 1 34 66
M  V30 71 1 40 67
M  V30 72 1 41 68
M  V30 END BOND
M  V30 END CTAB
M  END
>  <Dataset>  (968) 
ChEMBL_Kinases

>  <Ligand_Instance>  (968) 
nan

>  <PDB_ID>  (968) 
nan

>  <Standardized_SMILES>  (968) 
COc1ccc(-n2nc(C(C)(C)C)cc2NC(=O)Nc2ccc(Oc3ccnc4[nH]c(=O)n(C)c34)c(Cl)c2Cl)cc1

>  <Name>  (968) 
nan

>  <Pocket>  (968) 
nan

>  <ATP_Site>  (968) 
nan

>  <Peripheral>  (968) 
nan

>  <Num_H_Atoms_ProtBoundConf>  (968) 
nan

>  <Num_Resolved_Atoms>  (968) 
nan

>  <Num_Not_Resolved_Atoms>  (968) 
nan

$$$$
CHEMBL2391120
     RDKit          3D

  0  0  0  0  0  0  0  0  0  0999 V3000
M  V30 BEGIN CTAB
M  V30 COUNTS 46 50 0 0 0
M  V30 BEGIN ATOM
M  V30 1 O 3.040918 -3.825728 -0.967796 0
M  V30 2 N 4.159164 -3.476812 -1.400499 0 CHG=1 VAL=4
M  V30 3 O 4.922841 -4.522080 -1.825802 0 CHG=-1 VAL=1
M  V30 4 C 4.544523 -2.108620 -1.423337 0
M  V30 5 C 5.791494 -1.780101 -1.913106 0
M  V30 6 C 6.154765 -0.442120 -1.930106 0
M  V30 7 C 5.296504 0.560489 -1.468536 0
M  V30 8 C 4.052342 0.215464 -0.981518 0
M  V30 9 C 3.051199 1.163936 -0.464963 0
M  V30 10 C 3.420307 2.349272 0.185151 0
M  V30 11 C 2.458467 3.216001 0.659449 0
M  V30 12 C 1.111685 2.955095 0.515285 0
M  V30 13 C -0.025075 3.785242 0.972533 0
M  V30 14 S -0.526999 3.322145 2.667497 0
M  V30 15 C -1.189519 1.663557 2.693971 0
M  V30 16 N -0.300068 0.661809 2.902673 0
M  V30 17 N -1.018002 -0.461041 2.880602 0
M  V30 18 C -2.310132 -0.171796 2.665659 0
M  V30 19 C -3.384850 -1.142954 2.579029 0
M  V30 20 C -4.704449 -0.830647 2.359284 0
M  V30 21 C -5.760383 -1.709623 2.269631 0
M  V30 22 C -5.468349 -3.072826 2.417273 0
M  V30 23 C -4.150278 -3.417977 2.639413 0
M  V30 24 C -3.115530 -2.507444 2.723414 0
M  V30 25 O -4.102733 -4.817026 2.753372 0
M  V30 26 C -5.382084 -5.321132 2.434343 0
M  V30 27 O -6.248611 -4.222449 2.389203 0
M  V30 28 O -2.395878 1.130322 2.553954 0
M  V30 29 C 0.784355 1.760486 -0.140052 0
M  V30 30 C 1.710200 0.863638 -0.630876 0
M  V30 31 C 3.687648 -1.136937 -0.965583 0
M  V30 32 H 6.461529 -2.562527 -2.273514 0
M  V30 33 H 7.116187 -0.128204 -2.301580 0
M  V30 34 H 5.553769 1.609004 -1.470571 0
M  V30 35 H 4.468007 2.583564 0.313927 0
M  V30 36 H 2.692693 4.133430 1.162467 0
M  V30 37 H 0.343496 4.826729 1.054235 0
M  V30 38 H -0.868428 3.649479 0.293859 0
M  V30 39 H -4.947613 0.234025 2.241643 0
M  V30 40 H -6.773295 -1.385235 2.094654 0
M  V30 41 H -2.083632 -2.780274 2.896921 0
M  V30 42 H -5.329814 -5.895217 1.482627 0
M  V30 43 H -5.706425 -5.998174 3.257011 0
M  V30 44 H -0.259710 1.494359 -0.286975 0
M  V30 45 H 1.383161 -0.038380 -1.126248 0
M  V30 46 H 2.734899 -1.469192 -0.600116 0
M  V30 END ATOM
M  V30 BEGIN BOND
M  V30 1 2 1 2
M  V30 2 1 2 3
M  V30 3 1 2 4
M  V30 4 2 4 5
M  V30 5 1 5 6
M  V30 6 2 6 7
M  V30 7 1 7 8
M  V30 8 1 8 9
M  V30 9 2 9 10
M  V30 10 1 10 11
M  V30 11 2 11 12
M  V30 12 1 12 13
M  V30 13 1 13 14
M  V30 14 1 14 15
M  V30 15 2 15 16
M  V30 16 1 16 17
M  V30 17 2 17 18
M  V30 18 1 18 19
M  V30 19 2 19 20
M  V30 20 1 20 21
M  V30 21 2 21 22
M  V30 22 1 22 23
M  V30 23 2 23 24
M  V30 24 1 23 25
M  V30 25 1 25 26
M  V30 26 1 26 27
M  V30 27 1 18 28
M  V30 28 1 12 29
M  V30 29 2 29 30
M  V30 30 2 8 31
M  V30 31 1 31 4
M  V30 32 1 30 9
M  V30 33 1 28 15
M  V30 34 1 24 19
M  V30 35 1 27 22
M  V30 36 1 5 32
M  V30 37 1 6 33
M  V30 38 1 7 34
M  V30 39 1 10 35
M  V30 40 1 11 36
M  V30 41 1 13 37
M  V30 42 1 13 38
M  V30 43 1 20 39
M  V30 44 1 21 40
M  V30 45 1 24 41
M  V30 46 1 26 42
M  V30 47 1 26 43
M  V30 48 1 29 44
M  V30 49 1 30 45
M  V30 50 1 31 46
M  V30 END BOND
M  V30 END CTAB
M  END
>  <Dataset>  (969) 
ChEMBL_Kinases

>  <Ligand_Instance>  (969) 
nan

>  <PDB_ID>  (969) 
nan

>  <Standardized_SMILES>  (969) 
O=[N+]([O-])c1cccc(-c2ccc(CSc3nnc(-c4ccc5c(c4)OCO5)o3)cc2)c1

>  <Name>  (969) 
nan

>  <Pocket>  (969) 
nan

>  <ATP_Site>  (969) 
nan

>  <Peripheral>  (969) 
nan

>  <Num_H_Atoms_ProtBoundConf>  (969) 
nan

>  <Num_Resolved_Atoms>  (969) 
nan

>  <Num_Not_Resolved_Atoms>  (969) 
nan

$$$$
CHEMBL3702138
     RDKit          3D

  0  0  0  0  0  0  0  0  0  0999 V3000
M  V30 BEGIN CTAB
M  V30 COUNTS 58 63 0 0 0
M  V30 BEGIN ATOM
M  V30 1 C -0.585145 -6.002242 4.435853 0
M  V30 2 C 0.359388 -5.097345 4.019924 0
M  V30 3 C 0.300885 -4.533189 2.754634 0
M  V30 4 C 1.083381 -3.622366 2.074867 0
M  V30 5 C 2.210628 -2.936795 2.402071 0
M  V30 6 N 2.735329 -2.103654 1.484817 0
M  V30 7 C 2.189526 -1.917865 0.248939 0
M  V30 8 N 2.977165 -0.974328 -0.481888 0
M  V30 9 C 2.265619 0.234932 -0.143786 0
M  V30 10 C 2.459126 1.014402 0.974492 0
M  V30 11 C 1.699115 2.149945 1.153521 0
M  V30 12 C 0.734069 2.565073 0.262324 0
M  V30 13 N -0.069449 3.723179 0.425894 0
M  V30 14 C -0.097710 4.552561 1.611948 0
M  V30 15 C 0.463669 5.907727 1.234286 0
M  V30 16 N 0.049880 6.309253 -0.087833 0
M  V30 17 C -1.182260 5.634301 -0.478492 0
M  V30 18 C -0.937112 4.134185 -0.660243 0
M  V30 19 C 0.584940 1.748187 -0.835084 0
M  V30 20 N 1.323915 0.633679 -1.020368 0
M  V30 21 C 1.046267 -2.606697 -0.096337 0
M  V30 22 C 0.498482 -3.464509 0.836292 0
M  V30 23 N -0.607910 -4.223631 0.696922 0
M  V30 24 C -1.472289 -4.312404 -0.455600 0
M  V30 25 C -2.133563 -3.029834 -0.842722 0
M  V30 26 C -2.303742 -3.088601 -2.346073 0
M  V30 27 C -1.152627 -3.944706 -2.793165 0
M  V30 28 C -0.834968 -4.897233 -1.663982 0
M  V30 29 C -0.717563 -4.877968 1.889596 0
M  V30 30 C -1.647635 -5.790473 2.343871 0
M  V30 31 N -1.550252 -6.306308 3.569197 0
M  V30 32 H -0.481762 -6.405162 5.435160 0
M  V30 33 H 1.153795 -4.818530 4.672621 0
M  V30 34 H 2.666568 -3.071313 3.389997 0
M  V30 35 H 3.827033 -1.059764 -1.098141 0
M  V30 36 H 3.217822 0.672786 1.658782 0
M  V30 37 H 1.889601 2.721865 2.038266 0
M  V30 38 H -1.147161 4.660955 1.996787 0
M  V30 39 H 0.458931 4.091288 2.448272 0
M  V30 40 H 1.558378 5.867775 1.270744 0
M  V30 41 H 0.077271 6.645497 1.974243 0
M  V30 42 H -0.127557 7.317323 -0.088889 0
M  V30 43 H -1.442193 6.020577 -1.484046 0
M  V30 44 H -1.966848 5.858758 0.244365 0
M  V30 45 H -0.494604 3.936011 -1.657003 0
M  V30 46 H -1.914072 3.620835 -0.553516 0
M  V30 47 H -0.130310 1.942621 -1.618896 0
M  V30 48 H 0.719454 -2.370050 -1.098044 0
M  V30 49 H -2.310786 -5.008853 -0.173046 0
M  V30 50 H -3.188019 -2.951467 -0.443821 0
M  V30 51 H -1.601352 -2.123874 -0.505436 0
M  V30 52 H -3.261639 -3.569069 -2.635275 0
M  V30 53 H -2.241801 -2.049656 -2.735863 0
M  V30 54 H -1.405584 -4.501624 -3.743236 0
M  V30 55 H -0.320187 -3.272066 -3.063445 0
M  V30 56 H 0.246045 -5.113254 -1.552407 0
M  V30 57 H -1.273401 -5.893052 -1.966928 0
M  V30 58 H -2.452170 -6.063689 1.662147 0
M  V30 END ATOM
M  V30 BEGIN BOND
M  V30 1 2 1 2
M  V30 2 1 2 3
M  V30 3 1 3 4
M  V30 4 2 4 5
M  V30 5 1 5 6
M  V30 6 2 6 7
M  V30 7 1 7 8
M  V30 8 1 8 9
M  V30 9 2 9 10
M  V30 10 1 10 11
M  V30 11 2 11 12
M  V30 12 1 12 13
M  V30 13 1 13 14
M  V30 14 1 14 15
M  V30 15 1 15 16
M  V30 16 1 16 17
M  V30 17 1 17 18
M  V30 18 1 12 19
M  V30 19 2 19 20
M  V30 20 1 7 21
M  V30 21 2 21 22
M  V30 22 1 22 23
M  V30 23 1 23 24
M  V30 24 1 24 25
M  V30 25 1 25 26
M  V30 26 1 26 27
M  V30 27 1 27 28
M  V30 28 1 23 29
M  V30 29 1 29 30
M  V30 30 2 30 31
M  V30 31 1 31 1
M  V30 32 2 29 3
M  V30 33 1 22 4
M  V30 34 1 28 24
M  V30 35 1 20 9
M  V30 36 1 18 13
M  V30 37 1 1 32
M  V30 38 1 2 33
M  V30 39 1 5 34
M  V30 40 1 8 35
M  V30 41 1 10 36
M  V30 42 1 11 37
M  V30 43 1 14 38
M  V30 44 1 14 39
M  V30 45 1 15 40
M  V30 46 1 15 41
M  V30 47 1 16 42
M  V30 48 1 17 43
M  V30 49 1 17 44
M  V30 50 1 18 45
M  V30 51 1 18 46
M  V30 52 1 19 47
M  V30 53 1 21 48
M  V30 54 1 24 49
M  V30 55 1 25 50
M  V30 56 1 25 51
M  V30 57 1 26 52
M  V30 58 1 26 53
M  V30 59 1 27 54
M  V30 60 1 27 55
M  V30 61 1 28 56
M  V30 62 1 28 57
M  V30 63 1 30 58
M  V30 END BOND
M  V30 END CTAB
M  END
>  <Dataset>  (970) 
ChEMBL_Kinases

>  <Ligand_Instance>  (970) 
nan

>  <PDB_ID>  (970) 
nan

>  <Standardized_SMILES>  (970) 
c1cc2c3cnc(Nc4ccc(N5CCNCC5)cn4)cc3n(C3CCCC3)c2cn1

>  <Name>  (970) 
nan

>  <Pocket>  (970) 
nan

>  <ATP_Site>  (970) 
nan

>  <Peripheral>  (970) 
nan

>  <Num_H_Atoms_ProtBoundConf>  (970) 
nan

>  <Num_Resolved_Atoms>  (970) 
nan

>  <Num_Not_Resolved_Atoms>  (970) 
nan

$$$$
CHEMBL3702137
     RDKit          3D

  0  0  0  0  0  0  0  0  0  0999 V3000
M  V30 BEGIN CTAB
M  V30 COUNTS 55 60 0 0 0
M  V30 BEGIN ATOM
M  V30 1 C 5.237335 -2.604879 2.415997 0
M  V30 2 C 4.115568 -2.986279 1.690793 0
M  V30 3 C 2.886079 -2.459728 2.100717 0
M  V30 4 C 1.610831 -2.621189 1.617900 0
M  V30 5 C 1.076921 -3.343630 0.574910 0
M  V30 6 N -0.254880 -3.336764 0.286390 0
M  V30 7 C -1.114984 -2.609549 1.022862 0
M  V30 8 N -2.525129 -2.427913 0.931519 0
M  V30 9 C -2.441861 -1.445542 -0.115453 0
M  V30 10 C -2.156243 -0.105156 0.033282 0
M  V30 11 C -2.076451 0.826837 -0.974690 0
M  V30 12 C -2.303061 0.385944 -2.260338 0
M  V30 13 N -2.213676 1.288330 -3.353584 0
M  V30 14 C -1.559366 2.579664 -3.317164 0
M  V30 15 C -0.361310 2.438609 -4.265240 0
M  V30 16 N -0.810212 2.228852 -5.600678 0
M  V30 17 C -1.780554 1.191329 -5.787859 0
M  V30 18 C -2.771284 1.078113 -4.677714 0
M  V30 19 C -2.590766 -0.946660 -2.438281 0
M  V30 20 N -2.657415 -1.825131 -1.409484 0
M  V30 21 C -0.606151 -1.859844 2.095077 0
M  V30 22 C 0.763062 -1.863449 2.397682 0
M  V30 23 N 1.495666 -1.237808 3.356394 0
M  V30 24 C 0.997933 -0.348160 4.396945 0
M  V30 25 C 0.651250 -1.089115 5.635434 0
M  V30 26 C -0.592385 -1.612643 5.838297 0
M  V30 27 C -0.901923 -2.285076 6.978747 0
M  V30 28 S 0.698558 -2.241954 7.988146 0
M  V30 29 C 1.609882 -1.266944 6.648493 0
M  V30 30 C 2.787044 -1.588899 3.189663 0
M  V30 31 C 3.955599 -1.270390 3.844327 0
M  V30 32 N 5.167193 -1.760124 3.478300 0
M  V30 33 H 6.229188 -2.978393 2.151720 0
M  V30 34 H 4.186653 -3.660618 0.848749 0
M  V30 35 H 1.688543 -3.955117 -0.070832 0
M  V30 36 H -3.353782 -2.835464 1.421283 0
M  V30 37 H -1.982425 0.225324 1.048651 0
M  V30 38 H -1.843617 1.847734 -0.711119 0
M  V30 39 H -1.139523 2.838707 -2.321604 0
M  V30 40 H -2.210550 3.382507 -3.744420 0
M  V30 41 H 0.148214 3.423786 -4.215083 0
M  V30 42 H 0.241147 1.607567 -3.894362 0
M  V30 43 H -0.134450 2.337811 -6.353915 0
M  V30 44 H -1.359737 0.196457 -6.035645 0
M  V30 45 H -2.372841 1.471247 -6.709540 0
M  V30 46 H -3.336886 0.133080 -4.778673 0
M  V30 47 H -3.575362 1.874248 -4.763191 0
M  V30 48 H -2.771745 -1.296913 -3.453143 0
M  V30 49 H -1.193191 -1.226381 2.779209 0
M  V30 50 H 0.134589 0.257297 4.035924 0
M  V30 51 H 1.785811 0.396139 4.626822 0
M  V30 52 H -1.428217 -1.560692 5.161500 0
M  V30 53 H -1.704804 -2.779151 7.416770 0
M  V30 54 H 2.629549 -0.920460 6.649318 0
M  V30 55 H 3.973250 -0.600501 4.697436 0
M  V30 END ATOM
M  V30 BEGIN BOND
M  V30 1 2 1 2
M  V30 2 1 2 3
M  V30 3 1 3 4
M  V30 4 2 4 5
M  V30 5 1 5 6
M  V30 6 2 6 7
M  V30 7 1 7 8
M  V30 8 1 8 9
M  V30 9 2 9 10
M  V30 10 1 10 11
M  V30 11 2 11 12
M  V30 12 1 12 13
M  V30 13 1 13 14
M  V30 14 1 14 15
M  V30 15 1 15 16
M  V30 16 1 16 17
M  V30 17 1 17 18
M  V30 18 1 12 19
M  V30 19 2 19 20
M  V30 20 1 7 21
M  V30 21 2 21 22
M  V30 22 1 22 23
M  V30 23 1 23 24
M  V30 24 1 24 25
M  V30 25 1 25 26
M  V30 26 2 26 27
M  V30 27 1 27 28
M  V30 28 1 28 29
M  V30 29 1 23 30
M  V30 30 1 30 31
M  V30 31 2 31 32
M  V30 32 1 32 1
M  V30 33 2 30 3
M  V30 34 1 22 4
M  V30 35 2 29 25
M  V30 36 1 20 9
M  V30 37 1 18 13
M  V30 38 1 1 33
M  V30 39 1 2 34
M  V30 40 1 5 35
M  V30 41 1 8 36
M  V30 42 1 10 37
M  V30 43 1 11 38
M  V30 44 1 14 39
M  V30 45 1 14 40
M  V30 46 1 15 41
M  V30 47 1 15 42
M  V30 48 1 16 43
M  V30 49 1 17 44
M  V30 50 1 17 45
M  V30 51 1 18 46
M  V30 52 1 18 47
M  V30 53 1 19 48
M  V30 54 1 21 49
M  V30 55 1 24 50
M  V30 56 1 24 51
M  V30 57 1 26 52
M  V30 58 1 27 53
M  V30 59 1 29 54
M  V30 60 1 31 55
M  V30 END BOND
M  V30 END CTAB
M  END
>  <Dataset>  (971) 
ChEMBL_Kinases

>  <Ligand_Instance>  (971) 
nan

>  <PDB_ID>  (971) 
nan

>  <Standardized_SMILES>  (971) 
c1cc2c3cnc(Nc4ccc(N5CCNCC5)cn4)cc3n(Cc3ccsc3)c2cn1

>  <Name>  (971) 
nan

>  <Pocket>  (971) 
nan

>  <ATP_Site>  (971) 
nan

>  <Peripheral>  (971) 
nan

>  <Num_H_Atoms_ProtBoundConf>  (971) 
nan

>  <Num_Resolved_Atoms>  (971) 
nan

>  <Num_Not_Resolved_Atoms>  (971) 
nan

$$$$
CHEMBL3703143
     RDKit          3D

  0  0  0  0  0  0  0  0  0  0999 V3000
M  V30 BEGIN CTAB
M  V30 COUNTS 54 58 0 0 0
M  V30 BEGIN ATOM
M  V30 1 C 5.475587 -3.705779 5.904036 0
M  V30 2 C 4.796265 -2.876943 4.861536 0
M  V30 3 O 4.004401 -1.954315 5.244981 0
M  V30 4 N 4.975132 -3.049951 3.481739 0
M  V30 5 C 4.191237 -2.105848 2.746984 0
M  V30 6 C 4.569507 -0.840509 2.334064 0
M  V30 7 C 3.675186 -0.060390 1.627993 0
M  V30 8 N 2.447034 -0.545267 1.352536 0
M  V30 9 C 1.459121 0.074905 0.680325 0
M  V30 10 C 1.339548 1.384261 0.048371 0
M  V30 11 C 1.136037 1.436438 -1.298333 0
M  V30 12 C 1.002785 2.598010 -2.041765 0
M  V30 13 C 1.089404 3.790036 -1.319136 0
M  V30 14 C 1.292461 3.797213 0.032075 0
M  V30 15 C 1.417288 2.606300 0.715555 0
M  V30 16 C 0.381135 -0.786743 0.633043 0
M  V30 17 C -0.971386 -0.756553 0.077488 0
M  V30 18 C -2.006313 0.094015 0.408303 0
M  V30 19 C -3.223822 -0.031298 -0.231042 0
M  V30 20 C -3.451792 -1.000697 -1.214824 0
M  V30 21 C -4.815499 -0.936261 -1.742976 0
M  V30 22 N -5.226177 0.443661 -2.013478 0
M  V30 23 C -5.198140 -1.916772 -2.806702 0
M  V30 24 C -5.731073 -2.829422 -1.715072 0
M  V30 25 C -5.880041 -1.570167 -0.862962 0
M  V30 26 C -2.402958 -1.840948 -1.530196 0
M  V30 27 C -1.180635 -1.725832 -0.898085 0
M  V30 28 N 0.780164 -1.903927 1.291156 0
M  V30 29 C 2.047594 -1.771286 1.739478 0
M  V30 30 C 2.910948 -2.588171 2.449536 0
M  V30 31 H 6.448555 -3.315297 6.215837 0
M  V30 32 H 4.838043 -3.742620 6.836050 0
M  V30 33 H 5.521992 -4.776329 5.580181 0
M  V30 34 H 5.628095 -3.809995 3.136283 0
M  V30 35 H 5.562930 -0.559103 2.606340 0
M  V30 36 H 3.991893 0.927672 1.314098 0
M  V30 37 H 1.066662 0.500461 -1.873939 0
M  V30 38 H 0.841746 2.627941 -3.109773 0
M  V30 39 H 0.991354 4.723857 -1.856100 0
M  V30 40 H 1.361650 4.724358 0.606840 0
M  V30 41 H 1.579732 2.560597 1.789529 0
M  V30 42 H -1.769066 0.809256 1.163805 0
M  V30 43 H -3.949575 0.702784 0.126452 0
M  V30 44 H -5.598266 0.807908 -1.089163 0
M  V30 45 H -4.457568 1.043772 -2.344009 0
M  V30 46 H -5.988598 -1.564484 -3.507580 0
M  V30 47 H -4.384242 -2.425286 -3.350394 0
M  V30 48 H -6.694956 -3.317633 -1.916692 0
M  V30 49 H -4.942290 -3.481495 -1.276974 0
M  V30 50 H -6.889881 -1.128308 -1.000596 0
M  V30 51 H -5.621746 -1.678494 0.194924 0
M  V30 52 H -2.654959 -2.553777 -2.289836 0
M  V30 53 H -0.438396 -2.454286 -1.243204 0
M  V30 54 H 2.544855 -3.572715 2.741992 0
M  V30 END ATOM
M  V30 BEGIN BOND
M  V30 1 1 1 2
M  V30 2 2 2 3
M  V30 3 1 2 4
M  V30 4 1 4 5
M  V30 5 1 5 6
M  V30 6 2 6 7
M  V30 7 1 7 8
M  V30 8 1 8 9
M  V30 9 1 9 10
M  V30 10 2 10 11
M  V30 11 1 11 12
M  V30 12 2 12 13
M  V30 13 1 13 14
M  V30 14 2 14 15
M  V30 15 2 9 16
M  V30 16 1 16 17
M  V30 17 2 17 18
M  V30 18 1 18 19
M  V30 19 2 19 20
M  V30 20 1 20 21
M  V30 21 1 21 22
M  V30 22 1 21 23
M  V30 23 1 23 24
M  V30 24 1 24 25
M  V30 25 1 20 26
M  V30 26 2 26 27
M  V30 27 1 16 28
M  V30 28 2 28 29
M  V30 29 1 29 30
M  V30 30 2 30 5
M  V30 31 1 29 8
M  V30 32 1 15 10
M  V30 33 1 27 17
M  V30 34 1 25 21
M  V30 35 1 1 31
M  V30 36 1 1 32
M  V30 37 1 1 33
M  V30 38 1 4 34
M  V30 39 1 6 35
M  V30 40 1 7 36
M  V30 41 1 11 37
M  V30 42 1 12 38
M  V30 43 1 13 39
M  V30 44 1 14 40
M  V30 45 1 15 41
M  V30 46 1 18 42
M  V30 47 1 19 43
M  V30 48 1 22 44
M  V30 49 1 22 45
M  V30 50 1 23 46
M  V30 51 1 23 47
M  V30 52 1 24 48
M  V30 53 1 24 49
M  V30 54 1 25 50
M  V30 55 1 25 51
M  V30 56 1 26 52
M  V30 57 1 27 53
M  V30 58 1 30 54
M  V30 END BOND
M  V30 END CTAB
M  END
>  <Dataset>  (972) 
ChEMBL_Kinases

>  <Ligand_Instance>  (972) 
nan

>  <PDB_ID>  (972) 
nan

>  <Standardized_SMILES>  (972) 
CC(=O)Nc1ccn2c(-c3ccccc3)c(-c3ccc(C4(N)CCC4)cc3)nc2c1

>  <Name>  (972) 
nan

>  <Pocket>  (972) 
nan

>  <ATP_Site>  (972) 
nan

>  <Peripheral>  (972) 
nan

>  <Num_H_Atoms_ProtBoundConf>  (972) 
nan

>  <Num_Resolved_Atoms>  (972) 
nan

>  <Num_Not_Resolved_Atoms>  (972) 
nan

$$$$
CHEMBL4568095
     RDKit          3D

  0  0  0  0  0  0  0  0  0  0999 V3000
M  V30 BEGIN CTAB
M  V30 COUNTS 49 53 0 0 0
M  V30 BEGIN ATOM
M  V30 1 O -2.065963 -2.159601 3.445673 0
M  V30 2 C -2.955765 -2.884366 2.990865 0
M  V30 3 N -3.166108 -2.933120 1.599693 0
M  V30 4 C -2.493430 -2.252538 0.556698 0
M  V30 5 C -1.463737 -1.372402 0.671245 0
M  V30 6 C -0.838264 -0.734091 -0.377142 0
M  V30 7 C 0.257059 0.200232 -0.154890 0
M  V30 8 N 0.223290 1.425956 0.395373 0
M  V30 9 C 1.466045 1.923442 0.393766 0
M  V30 10 C 1.963573 3.219477 0.879197 0
M  V30 11 C 3.280139 3.624383 0.820128 0
M  V30 12 C 3.669322 4.861856 1.298273 0
M  V30 13 C 2.689904 5.680107 1.838702 0
M  V30 14 C 1.357432 5.334326 1.926994 0
M  V30 15 C 1.030720 4.079857 1.429877 0
M  V30 16 N 2.262139 0.984540 -0.165288 0
M  V30 17 C 1.561997 -0.107365 -0.524820 0
M  V30 18 C 2.200877 -1.259321 -1.149977 0
M  V30 19 C 2.067587 -1.800166 -2.405241 0
M  V30 20 C 2.790914 -2.915791 -2.769331 0
M  V30 21 C 3.659181 -3.501769 -1.872922 0
M  V30 22 F 4.361980 -4.599048 -2.250103 0
M  V30 23 C 3.820717 -2.988647 -0.604950 0
M  V30 24 C 3.084309 -1.856653 -0.240259 0
M  V30 25 C -1.274675 -0.992429 -1.660238 0
M  V30 26 C -2.315911 -1.885065 -1.747464 0
M  V30 27 N -2.893329 -2.481855 -0.700907 0
M  V30 28 C -3.712339 -3.633617 3.995118 0
M  V30 29 C -5.220101 -3.818553 3.821810 0
M  V30 30 C -4.269678 -4.979463 3.706969 0
M  V30 31 H -3.954992 -3.591716 1.363524 0
M  V30 32 H -1.088424 -1.138590 1.655835 0
M  V30 33 H -0.616386 1.919847 0.764947 0
M  V30 34 H 3.987589 2.922783 0.381083 0
M  V30 35 H 4.708415 5.158753 1.241061 0
M  V30 36 H 3.053721 6.647825 2.202290 0
M  V30 37 H 0.620320 6.003905 2.357761 0
M  V30 38 H -0.000913 3.784423 1.486017 0
M  V30 39 H 1.362952 -1.249543 -3.006492 0
M  V30 40 H 2.631753 -3.283033 -3.773132 0
M  V30 41 H 4.514364 -3.492976 0.046208 0
M  V30 42 H 3.298845 -1.550464 0.779536 0
M  V30 43 H -0.863054 -0.550848 -2.534937 0
M  V30 44 H -2.722068 -2.145858 -2.724595 0
M  V30 45 H -3.397779 -3.461541 5.043874 0
M  V30 46 H -5.868182 -3.743539 4.718928 0
M  V30 47 H -5.603722 -3.351390 2.893283 0
M  V30 48 H -4.342880 -5.739625 4.506690 0
M  V30 49 H -4.204543 -5.424179 2.696866 0
M  V30 END ATOM
M  V30 BEGIN BOND
M  V30 1 2 1 2
M  V30 2 1 2 3
M  V30 3 1 3 4
M  V30 4 2 4 5
M  V30 5 1 5 6
M  V30 6 1 6 7
M  V30 7 1 7 8
M  V30 8 1 8 9
M  V30 9 1 9 10
M  V30 10 2 10 11
M  V30 11 1 11 12
M  V30 12 2 12 13
M  V30 13 1 13 14
M  V30 14 2 14 15
M  V30 15 2 9 16
M  V30 16 1 16 17
M  V30 17 1 17 18
M  V30 18 2 18 19
M  V30 19 1 19 20
M  V30 20 2 20 21
M  V30 21 1 21 22
M  V30 22 1 21 23
M  V30 23 2 23 24
M  V30 24 2 6 25
M  V30 25 1 25 26
M  V30 26 2 26 27
M  V30 27 1 2 28
M  V30 28 1 28 29
M  V30 29 1 29 30
M  V30 30 1 27 4
M  V30 31 1 30 28
M  V30 32 2 17 7
M  V30 33 1 24 18
M  V30 34 1 15 10
M  V30 35 1 3 31
M  V30 36 1 5 32
M  V30 37 1 8 33
M  V30 38 1 11 34
M  V30 39 1 12 35
M  V30 40 1 13 36
M  V30 41 1 14 37
M  V30 42 1 15 38
M  V30 43 1 19 39
M  V30 44 1 20 40
M  V30 45 1 23 41
M  V30 46 1 24 42
M  V30 47 1 25 43
M  V30 48 1 26 44
M  V30 49 1 28 45
M  V30 50 1 29 46
M  V30 51 1 29 47
M  V30 52 1 30 48
M  V30 53 1 30 49
M  V30 END BOND
M  V30 END CTAB
M  END
>  <Dataset>  (973) 
ChEMBL_Kinases

>  <Ligand_Instance>  (973) 
nan

>  <PDB_ID>  (973) 
nan

>  <Standardized_SMILES>  (973) 
O=C(Nc1cc(-c2[nH]c(-c3ccccc3)nc2-c2ccc(F)cc2)ccn1)C1CC1

>  <Name>  (973) 
nan

>  <Pocket>  (973) 
nan

>  <ATP_Site>  (973) 
nan

>  <Peripheral>  (973) 
nan

>  <Num_H_Atoms_ProtBoundConf>  (973) 
nan

>  <Num_Resolved_Atoms>  (973) 
nan

>  <Num_Not_Resolved_Atoms>  (973) 
nan

$$$$
CHEMBL3703144
     RDKit          3D

  0  0  0  0  0  0  0  0  0  0999 V3000
M  V30 BEGIN CTAB
M  V30 COUNTS 53 57 0 0 0
M  V30 BEGIN ATOM
M  V30 1 N 4.558618 -3.239144 7.215517 0
M  V30 2 C 4.035402 -2.646739 6.012941 0
M  V30 3 O 2.890941 -2.259817 6.427622 0
M  V30 4 N 4.665116 -2.547447 4.738949 0
M  V30 5 C 3.756159 -1.881377 3.866483 0
M  V30 6 C 3.852625 -0.489656 3.816406 0
M  V30 7 C 2.956820 0.135693 2.960137 0
M  V30 8 N 2.063718 -0.564979 2.235349 0
M  V30 9 C 1.112213 -0.143627 1.349341 0
M  V30 10 C 0.892836 1.257330 1.017398 0
M  V30 11 C -0.254161 1.996572 1.239413 0
M  V30 12 C -0.304449 3.324531 0.863062 0
M  V30 13 C 0.787742 3.932240 0.260795 0
M  V30 14 C 1.932575 3.203749 0.036425 0
M  V30 15 C 1.980787 1.873467 0.414394 0
M  V30 16 C 0.437354 -1.264338 0.859481 0
M  V30 17 C -0.652853 -1.204558 -0.114164 0
M  V30 18 C -1.876051 -1.699713 0.300251 0
M  V30 19 C -2.921189 -1.665746 -0.569878 0
M  V30 20 C -2.850756 -1.171131 -1.842214 0
M  V30 21 C -3.920942 -1.090576 -2.858602 0
M  V30 22 N -3.921140 0.190334 -3.573570 0
M  V30 23 C -5.268787 -1.597192 -2.511434 0
M  V30 24 C -5.150115 -2.707116 -3.498267 0
M  V30 25 C -3.776363 -2.202483 -3.872419 0
M  V30 26 C -1.612680 -0.671980 -2.256059 0
M  V30 27 C -0.531259 -0.690833 -1.399261 0
M  V30 28 N 0.992078 -2.336427 1.456689 0
M  V30 29 C 1.983768 -1.918032 2.296396 0
M  V30 30 C 2.854670 -2.621435 3.138286 0
M  V30 31 H 5.287956 -2.706729 7.765263 0
M  V30 32 H 4.371851 -4.148509 7.715415 0
M  V30 33 H 5.624367 -2.967812 4.712255 0
M  V30 34 H 4.551480 0.082045 4.380854 0
M  V30 35 H 3.004745 1.222726 2.896710 0
M  V30 36 H -1.063672 1.458148 1.711673 0
M  V30 37 H -1.196084 3.883598 1.040051 0
M  V30 38 H 0.770271 4.962580 -0.039937 0
M  V30 39 H 2.781911 3.680908 -0.433309 0
M  V30 40 H 2.924751 1.369293 0.200835 0
M  V30 41 H -2.032679 -2.113820 1.292497 0
M  V30 42 H -3.866617 -2.040179 -0.271112 0
M  V30 43 H -3.872159 0.971764 -2.881487 0
M  V30 44 H -3.061399 0.241667 -4.163726 0
M  V30 45 H -6.057791 -0.860564 -2.841128 0
M  V30 46 H -5.496939 -1.875317 -1.472670 0
M  V30 47 H -5.151509 -3.698220 -2.984749 0
M  V30 48 H -5.887799 -2.679111 -4.351738 0
M  V30 49 H -3.749389 -1.897012 -4.934665 0
M  V30 50 H -2.960648 -2.929396 -3.673598 0
M  V30 51 H -1.330348 -0.239262 -3.205643 0
M  V30 52 H 0.465280 -0.333057 -1.614442 0
M  V30 53 H 2.817809 -3.697289 3.210791 0
M  V30 END ATOM
M  V30 BEGIN BOND
M  V30 1 1 1 2
M  V30 2 2 2 3
M  V30 3 1 2 4
M  V30 4 1 4 5
M  V30 5 1 5 6
M  V30 6 2 6 7
M  V30 7 1 7 8
M  V30 8 1 8 9
M  V30 9 1 9 10
M  V30 10 2 10 11
M  V30 11 1 11 12
M  V30 12 2 12 13
M  V30 13 1 13 14
M  V30 14 2 14 15
M  V30 15 2 9 16
M  V30 16 1 16 17
M  V30 17 2 17 18
M  V30 18 1 18 19
M  V30 19 2 19 20
M  V30 20 1 20 21
M  V30 21 1 21 22
M  V30 22 1 21 23
M  V30 23 1 23 24
M  V30 24 1 24 25
M  V30 25 1 20 26
M  V30 26 2 26 27
M  V30 27 1 16 28
M  V30 28 2 28 29
M  V30 29 1 29 30
M  V30 30 2 30 5
M  V30 31 1 29 8
M  V30 32 1 15 10
M  V30 33 1 27 17
M  V30 34 1 25 21
M  V30 35 1 1 31
M  V30 36 1 1 32
M  V30 37 1 4 33
M  V30 38 1 6 34
M  V30 39 1 7 35
M  V30 40 1 11 36
M  V30 41 1 12 37
M  V30 42 1 13 38
M  V30 43 1 14 39
M  V30 44 1 15 40
M  V30 45 1 18 41
M  V30 46 1 19 42
M  V30 47 1 22 43
M  V30 48 1 22 44
M  V30 49 1 23 45
M  V30 50 1 23 46
M  V30 51 1 24 47
M  V30 52 1 24 48
M  V30 53 1 25 49
M  V30 54 1 25 50
M  V30 55 1 26 51
M  V30 56 1 27 52
M  V30 57 1 30 53
M  V30 END BOND
M  V30 END CTAB
M  END
>  <Dataset>  (974) 
ChEMBL_Kinases

>  <Ligand_Instance>  (974) 
nan

>  <PDB_ID>  (974) 
nan

>  <Standardized_SMILES>  (974) 
NC(=O)Nc1ccn2c(-c3ccccc3)c(-c3ccc(C4(N)CCC4)cc3)nc2c1

>  <Name>  (974) 
nan

>  <Pocket>  (974) 
nan

>  <ATP_Site>  (974) 
nan

>  <Peripheral>  (974) 
nan

>  <Num_H_Atoms_ProtBoundConf>  (974) 
nan

>  <Num_Resolved_Atoms>  (974) 
nan

>  <Num_Not_Resolved_Atoms>  (974) 
nan

$$$$
CHEMBL4568120
     RDKit          3D

  0  0  0  0  0  0  0  0  0  0999 V3000
M  V30 BEGIN CTAB
M  V30 COUNTS 39 41 0 0 0
M  V30 BEGIN ATOM
M  V30 1 C 0.687106 -6.096433 3.011824 0
M  V30 2 C -0.507833 -5.879508 2.493531 0
M  V30 3 C -1.014439 -6.006865 1.100371 0
M  V30 4 O -1.490385 -4.745765 0.671603 0
M  V30 5 C -0.755524 -3.602430 0.599227 0
M  V30 6 O 0.432192 -3.693113 0.939759 0
M  V30 7 C -1.397549 -2.379329 0.139021 0
M  V30 8 C -0.781031 -1.155930 0.070283 0
M  V30 9 C -1.407112 -0.003633 -0.358091 0
M  V30 10 C -0.736280 1.292388 -0.417401 0
M  V30 11 C -1.344663 2.456879 -0.832450 0
M  V30 12 C -0.351596 3.404875 -0.723890 0
M  V30 13 C 0.822336 2.793752 -0.250162 0
M  V30 14 C 2.016696 3.605867 -0.053655 0
M  V30 15 C 2.890771 3.492688 0.932548 0
M  V30 16 N 4.075654 4.196897 1.247468 0
M  V30 17 C 4.647662 3.674338 2.441801 0
M  V30 18 S 6.013394 4.166393 3.191365 0
M  V30 19 N 3.828294 2.609734 2.922169 0
M  V30 20 C 2.740777 2.484525 2.003376 0
M  V30 21 O 1.832977 1.630097 2.142929 0
M  V30 22 O 0.480757 1.562872 -0.106953 0
M  V30 23 C -2.749606 -0.120384 -0.738565 0
M  V30 24 C -3.455553 -1.318740 -0.702033 0
M  V30 25 C -2.708517 -2.375779 -0.257155 0
M  V30 26 Cl -3.568140 -3.923852 -0.194379 0
M  V30 27 H 1.682822 -6.423592 2.659537 0
M  V30 28 H 1.724985 -6.333959 3.203153 0
M  V30 29 H -1.193961 -5.559374 3.243590 0
M  V30 30 H -0.258275 -6.434108 0.409206 0
M  V30 31 H -1.887321 -6.722447 1.114588 0
M  V30 32 H 0.273236 -1.096608 0.375341 0
M  V30 33 H -2.373845 2.620184 -1.172991 0
M  V30 34 H -0.536156 4.458734 -0.989433 0
M  V30 35 H 2.278876 4.402130 -0.747311 0
M  V30 36 H 4.436244 4.970913 0.665628 0
M  V30 37 H 3.981020 2.017282 3.788951 0
M  V30 38 H -3.254749 0.784906 -1.079561 0
M  V30 39 H -4.486298 -1.394412 -0.997126 0
M  V30 END ATOM
M  V30 BEGIN BOND
M  V30 1 2 1 2
M  V30 2 1 2 3
M  V30 3 1 3 4
M  V30 4 1 4 5
M  V30 5 2 5 6
M  V30 6 1 5 7
M  V30 7 2 7 8
M  V30 8 1 8 9
M  V30 9 1 9 10
M  V30 10 2 10 11
M  V30 11 1 11 12
M  V30 12 2 12 13
M  V30 13 1 13 14
M  V30 14 2 14 15
M  V30 15 1 15 16
M  V30 16 1 16 17
M  V30 17 2 17 18
M  V30 18 1 17 19
M  V30 19 1 19 20
M  V30 20 2 20 21
M  V30 21 1 13 22
M  V30 22 2 9 23
M  V30 23 1 23 24
M  V30 24 2 24 25
M  V30 25 1 25 26
M  V30 26 1 25 7
M  V30 27 1 22 10
M  V30 28 1 20 15
M  V30 29 1 1 27
M  V30 30 1 1 28
M  V30 31 1 2 29
M  V30 32 1 3 30
M  V30 33 1 3 31
M  V30 34 1 8 32
M  V30 35 1 11 33
M  V30 36 1 12 34
M  V30 37 1 14 35
M  V30 38 1 16 36
M  V30 39 1 19 37
M  V30 40 1 23 38
M  V30 41 1 24 39
M  V30 END BOND
M  V30 END CTAB
M  END
>  <Dataset>  (975) 
ChEMBL_Kinases

>  <Ligand_Instance>  (975) 
nan

>  <PDB_ID>  (975) 
nan

>  <Standardized_SMILES>  (975) 
C=CCOC(=O)c1cc(-c2ccc(/C=C3/NC(=S)NC3=O)o2)ccc1Cl

>  <Name>  (975) 
nan

>  <Pocket>  (975) 
nan

>  <ATP_Site>  (975) 
nan

>  <Peripheral>  (975) 
nan

>  <Num_H_Atoms_ProtBoundConf>  (975) 
nan

>  <Num_Resolved_Atoms>  (975) 
nan

>  <Num_Not_Resolved_Atoms>  (975) 
nan

$$$$
CHEMBL3703145
     RDKit          3D

  0  0  0  0  0  0  0  0  0  0999 V3000
M  V30 BEGIN CTAB
M  V30 COUNTS 58 62 0 0 0
M  V30 BEGIN ATOM
M  V30 1 C 4.112597 -2.351592 4.708700 0
M  V30 2 O 4.864945 -1.183107 4.647815 0
M  V30 3 N 5.812077 -1.279368 3.658501 0
M  V30 4 C 7.054124 -1.832422 4.161838 0
M  V30 5 C 5.653824 -0.898572 2.285306 0
M  V30 6 O 6.555658 -1.003683 1.401419 0
M  V30 7 C 4.354414 -0.351819 1.892551 0
M  V30 8 C 3.919112 0.940310 2.178349 0
M  V30 9 C 2.663071 1.345548 1.752525 0
M  V30 10 N 1.893539 0.468668 1.068091 0
M  V30 11 C 0.657800 0.674836 0.577691 0
M  V30 12 C -0.161490 1.854607 0.640686 0
M  V30 13 C -0.673933 2.262811 1.866912 0
M  V30 14 C -1.466492 3.399170 1.977594 0
M  V30 15 C -1.778599 4.169471 0.878932 0
M  V30 16 C -1.281969 3.786895 -0.355000 0
M  V30 17 C -0.498882 2.654098 -0.427987 0
M  V30 18 C 0.225619 -0.474307 -0.053046 0
M  V30 19 C -0.990146 -0.867652 -0.754016 0
M  V30 20 C -1.558859 -0.394791 -1.908856 0
M  V30 21 C -2.729489 -0.923071 -2.387205 0
M  V30 22 C -3.392503 -1.939478 -1.751585 0
M  V30 23 C -4.649998 -2.555562 -2.199562 0
M  V30 24 N -5.600520 -2.747881 -1.122683 0
M  V30 25 C -5.286830 -2.028455 -3.439871 0
M  V30 26 C -5.507978 -3.476664 -3.892200 0
M  V30 27 C -4.416111 -3.860748 -2.933585 0
M  V30 28 C -2.843132 -2.439314 -0.581723 0
M  V30 29 C -1.647632 -1.908494 -0.081959 0
M  V30 30 N 1.246530 -1.362915 0.081750 0
M  V30 31 C 2.271158 -0.787417 0.769163 0
M  V30 32 C 3.519313 -1.219024 1.181445 0
M  V30 33 H 4.661785 -3.234392 4.313641 0
M  V30 34 H 3.901879 -2.563443 5.778772 0
M  V30 35 H 3.125641 -2.235674 4.184235 0
M  V30 36 H 7.797654 -1.756850 3.336935 0
M  V30 37 H 6.959201 -2.920552 4.377450 0
M  V30 38 H 7.384230 -1.301583 5.084796 0
M  V30 39 H 4.601228 1.578274 2.732638 0
M  V30 40 H 2.344203 2.350258 1.983377 0
M  V30 41 H -0.499860 1.739762 2.806370 0
M  V30 42 H -1.892019 3.763823 2.903175 0
M  V30 43 H -2.388494 5.061017 0.902981 0
M  V30 44 H -1.502748 4.363494 -1.246095 0
M  V30 45 H -0.135170 2.396584 -1.392659 0
M  V30 46 H -0.992518 0.392112 -2.353000 0
M  V30 47 H -3.144319 -0.532801 -3.286157 0
M  V30 48 H -5.597633 -3.697530 -0.712415 0
M  V30 49 H -5.663286 -1.974530 -0.453969 0
M  V30 50 H -6.273094 -1.505668 -3.282763 0
M  V30 51 H -4.675102 -1.529807 -4.186864 0
M  V30 52 H -6.468513 -3.908898 -3.547770 0
M  V30 53 H -5.199338 -3.693602 -4.928609 0
M  V30 54 H -4.639172 -4.728881 -2.292674 0
M  V30 55 H -3.387407 -3.898899 -3.394362 0
M  V30 56 H -3.342930 -3.256522 -0.038140 0
M  V30 57 H -1.300005 -2.378430 0.851956 0
M  V30 58 H 3.751178 -2.235189 0.906426 0
M  V30 END ATOM
M  V30 BEGIN BOND
M  V30 1 1 1 2
M  V30 2 1 2 3
M  V30 3 1 3 4
M  V30 4 1 3 5
M  V30 5 2 5 6
M  V30 6 1 5 7
M  V30 7 1 7 8
M  V30 8 2 8 9
M  V30 9 1 9 10
M  V30 10 1 10 11
M  V30 11 1 11 12
M  V30 12 2 12 13
M  V30 13 1 13 14
M  V30 14 2 14 15
M  V30 15 1 15 16
M  V30 16 2 16 17
M  V30 17 2 11 18
M  V30 18 1 18 19
M  V30 19 2 19 20
M  V30 20 1 20 21
M  V30 21 2 21 22
M  V30 22 1 22 23
M  V30 23 1 23 24
M  V30 24 1 23 25
M  V30 25 1 25 26
M  V30 26 1 26 27
M  V30 27 1 22 28
M  V30 28 2 28 29
M  V30 29 1 18 30
M  V30 30 2 30 31
M  V30 31 1 31 32
M  V30 32 2 32 7
M  V30 33 1 31 10
M  V30 34 1 17 12
M  V30 35 1 29 19
M  V30 36 1 27 23
M  V30 37 1 1 33
M  V30 38 1 1 34
M  V30 39 1 1 35
M  V30 40 1 4 36
M  V30 41 1 4 37
M  V30 42 1 4 38
M  V30 43 1 8 39
M  V30 44 1 9 40
M  V30 45 1 13 41
M  V30 46 1 14 42
M  V30 47 1 15 43
M  V30 48 1 16 44
M  V30 49 1 17 45
M  V30 50 1 20 46
M  V30 51 1 21 47
M  V30 52 1 24 48
M  V30 53 1 24 49
M  V30 54 1 25 50
M  V30 55 1 25 51
M  V30 56 1 26 52
M  V30 57 1 26 53
M  V30 58 1 27 54
M  V30 59 1 27 55
M  V30 60 1 28 56
M  V30 61 1 29 57
M  V30 62 1 32 58
M  V30 END BOND
M  V30 END CTAB
M  END
>  <Dataset>  (976) 
ChEMBL_Kinases

>  <Ligand_Instance>  (976) 
nan

>  <PDB_ID>  (976) 
nan

>  <Standardized_SMILES>  (976) 
CON(C)C(=O)c1ccn2c(-c3ccccc3)c(-c3ccc(C4(N)CCC4)cc3)nc2c1

>  <Name>  (976) 
nan

>  <Pocket>  (976) 
nan

>  <ATP_Site>  (976) 
nan

>  <Peripheral>  (976) 
nan

>  <Num_H_Atoms_ProtBoundConf>  (976) 
nan

>  <Num_Resolved_Atoms>  (976) 
nan

>  <Num_Not_Resolved_Atoms>  (976) 
nan

$$$$
CHEMBL3703146
     RDKit          3D

  0  0  0  0  0  0  0  0  0  0999 V3000
M  V30 BEGIN CTAB
M  V30 COUNTS 49 53 0 0 0
M  V30 BEGIN ATOM
M  V30 1 N -1.491079 -7.308615 1.521616 0
M  V30 2 C -0.663875 -6.154369 1.420095 0
M  V30 3 C 0.690796 -6.384915 1.532242 0
M  V30 4 C 1.473694 -5.247406 1.430419 0
M  V30 5 C 0.847242 -4.023239 1.232340 0
M  V30 6 N 1.389937 -2.774366 1.101892 0
M  V30 7 C 0.397385 -1.879132 0.925090 0
M  V30 8 C 0.725182 -0.466147 0.764342 0
M  V30 9 C 1.424520 -0.091780 -0.393230 0
M  V30 10 C 1.781714 1.248032 -0.624582 0
M  V30 11 C 1.448224 2.233122 0.293482 0
M  V30 12 C 1.876507 3.614800 -0.058011 0
M  V30 13 N 1.669570 3.921099 -1.440055 0
M  V30 14 C 1.505469 4.663212 0.933096 0
M  V30 15 C 2.818209 4.430940 1.628820 0
M  V30 16 C 3.345523 3.851275 0.325175 0
M  V30 17 C 0.761314 1.862001 1.430194 0
M  V30 18 C 0.412925 0.544524 1.651566 0
M  V30 19 C -0.791892 -2.568174 0.942898 0
M  V30 20 C -2.085655 -1.961667 0.783852 0
M  V30 21 C -2.790285 -1.075119 1.569669 0
M  V30 22 C -4.038521 -0.606250 1.222525 0
M  V30 23 C -4.605935 -1.050546 0.027416 0
M  V30 24 C -3.938401 -1.945495 -0.803375 0
M  V30 25 C -2.685669 -2.386616 -0.408829 0
M  V30 26 N -0.485825 -3.865446 1.130959 0
M  V30 27 C -1.291795 -4.941879 1.223322 0
M  V30 28 H -2.294401 -7.925952 1.324032 0
M  V30 29 H -1.235116 -8.108484 2.174913 0
M  V30 30 H 1.086812 -7.378343 1.687287 0
M  V30 31 H 2.551315 -5.337682 1.507081 0
M  V30 32 H 1.714103 -0.814643 -1.149026 0
M  V30 33 H 2.327259 1.472099 -1.549982 0
M  V30 34 H 1.328872 4.863889 -1.646062 0
M  V30 35 H 2.337531 3.497923 -2.091440 0
M  V30 36 H 1.555700 5.669835 0.430896 0
M  V30 37 H 0.588732 4.562947 1.508101 0
M  V30 38 H 2.806368 3.702830 2.468974 0
M  V30 39 H 3.409747 5.318254 1.903626 0
M  V30 40 H 3.886045 2.906026 0.540923 0
M  V30 41 H 3.861626 4.552661 -0.333551 0
M  V30 42 H 0.512886 2.632358 2.126411 0
M  V30 43 H -0.122984 0.266523 2.547391 0
M  V30 44 H -2.244246 -0.813813 2.464478 0
M  V30 45 H -4.513523 0.082986 1.896336 0
M  V30 46 H -5.598547 -0.659074 -0.220403 0
M  V30 47 H -4.432507 -2.250823 -1.714820 0
M  V30 48 H -2.259887 -3.087371 -1.144250 0
M  V30 49 H -2.372162 -4.897441 1.151757 0
M  V30 END ATOM
M  V30 BEGIN BOND
M  V30 1 1 1 2
M  V30 2 1 2 3
M  V30 3 2 3 4
M  V30 4 1 4 5
M  V30 5 2 5 6
M  V30 6 1 6 7
M  V30 7 1 7 8
M  V30 8 2 8 9
M  V30 9 1 9 10
M  V30 10 2 10 11
M  V30 11 1 11 12
M  V30 12 1 12 13
M  V30 13 1 12 14
M  V30 14 1 14 15
M  V30 15 1 15 16
M  V30 16 1 11 17
M  V30 17 2 17 18
M  V30 18 2 7 19
M  V30 19 1 19 20
M  V30 20 2 20 21
M  V30 21 1 21 22
M  V30 22 2 22 23
M  V30 23 1 23 24
M  V30 24 2 24 25
M  V30 25 1 19 26
M  V30 26 1 26 27
M  V30 27 2 27 2
M  V30 28 1 26 5
M  V30 29 1 18 8
M  V30 30 1 25 20
M  V30 31 1 16 12
M  V30 32 1 1 28
M  V30 33 1 1 29
M  V30 34 1 3 30
M  V30 35 1 4 31
M  V30 36 1 9 32
M  V30 37 1 10 33
M  V30 38 1 13 34
M  V30 39 1 13 35
M  V30 40 1 14 36
M  V30 41 1 14 37
M  V30 42 1 15 38
M  V30 43 1 15 39
M  V30 44 1 16 40
M  V30 45 1 16 41
M  V30 46 1 17 42
M  V30 47 1 18 43
M  V30 48 1 21 44
M  V30 49 1 22 45
M  V30 50 1 23 46
M  V30 51 1 24 47
M  V30 52 1 25 48
M  V30 53 1 27 49
M  V30 END BOND
M  V30 END CTAB
M  END
>  <Dataset>  (977) 
ChEMBL_Kinases

>  <Ligand_Instance>  (977) 
nan

>  <PDB_ID>  (977) 
nan

>  <Standardized_SMILES>  (977) 
Nc1ccc2nc(-c3ccc(C4(N)CCC4)cc3)c(-c3ccccc3)n2c1

>  <Name>  (977) 
nan

>  <Pocket>  (977) 
nan

>  <ATP_Site>  (977) 
nan

>  <Peripheral>  (977) 
nan

>  <Num_H_Atoms_ProtBoundConf>  (977) 
nan

>  <Num_Resolved_Atoms>  (977) 
nan

>  <Num_Not_Resolved_Atoms>  (977) 
nan

$$$$
CHEMBL2391101
     RDKit          3D

  0  0  0  0  0  0  0  0  0  0999 V3000
M  V30 BEGIN CTAB
M  V30 COUNTS 38 40 0 0 0
M  V30 BEGIN ATOM
M  V30 1 C 2.575581 -7.076938 1.856750 0
M  V30 2 C 1.969291 -5.730751 1.823800 0
M  V30 3 O 1.033751 -5.717595 0.952238 0
M  V30 4 N 2.232900 -4.517305 2.553367 0
M  V30 5 C 1.285653 -3.548343 2.050999 0
M  V30 6 C 1.584406 -2.733537 0.971832 0
M  V30 7 C 0.584256 -1.852681 0.597742 0
M  V30 8 C 0.819191 -0.949644 -0.541339 0
M  V30 9 N 1.910694 -0.865941 -1.287277 0
M  V30 10 N 1.750175 0.052854 -2.207052 0
M  V30 11 C 0.512523 0.580520 -2.049589 0
M  V30 12 S -0.526923 1.823229 -2.801347 0
M  V30 13 C -0.271391 3.444874 -2.034103 0
M  V30 14 C -0.715227 3.485071 -0.621684 0
M  V30 15 C 0.270572 3.143514 0.293402 0
M  V30 16 C -0.099065 3.166134 1.641544 0
M  V30 17 C -1.360312 3.502297 2.087549 0
M  V30 18 C -2.331460 3.841205 1.147049 0
M  V30 19 C -3.663151 4.199610 1.559308 0
M  V30 20 N -4.729546 4.506335 1.890722 0
M  V30 21 C -1.977161 3.821617 -0.178867 0
M  V30 22 O -0.007524 -0.060638 -1.029361 0
M  V30 23 C -0.585057 -1.846294 1.291162 0
M  V30 24 C -0.879613 -2.659410 2.365967 0
M  V30 25 N 0.113211 -3.524181 2.726672 0
M  V30 26 H 1.745530 -7.795458 2.117135 0
M  V30 27 H 2.966395 -7.407905 0.878744 0
M  V30 28 H 3.353084 -7.191090 2.612362 0
M  V30 29 H 3.033094 -4.707598 3.227777 0
M  V30 30 H 2.541140 -2.805557 0.478257 0
M  V30 31 H 0.771259 3.789197 -2.122255 0
M  V30 32 H -0.903149 4.174208 -2.579061 0
M  V30 33 H 1.277802 2.870772 0.006092 0
M  V30 34 H 0.645949 2.903923 2.400468 0
M  V30 35 H -1.590281 3.502852 3.144824 0
M  V30 36 H -2.685943 4.074050 -0.947549 0
M  V30 37 H -1.333565 -1.135851 0.954755 0
M  V30 38 H -1.842369 -2.576680 2.851150 0
M  V30 END ATOM
M  V30 BEGIN BOND
M  V30 1 1 1 2
M  V30 2 2 2 3
M  V30 3 1 2 4
M  V30 4 1 4 5
M  V30 5 2 5 6
M  V30 6 1 6 7
M  V30 7 1 7 8
M  V30 8 2 8 9
M  V30 9 1 9 10
M  V30 10 2 10 11
M  V30 11 1 11 12
M  V30 12 1 12 13
M  V30 13 1 13 14
M  V30 14 2 14 15
M  V30 15 1 15 16
M  V30 16 2 16 17
M  V30 17 1 17 18
M  V30 18 1 18 19
M  V30 19 3 19 20
M  V30 20 2 18 21
M  V30 21 1 11 22
M  V30 22 2 7 23
M  V30 23 1 23 24
M  V30 24 2 24 25
M  V30 25 1 25 5
M  V30 26 1 22 8
M  V30 27 1 21 14
M  V30 28 1 1 26
M  V30 29 1 1 27
M  V30 30 1 1 28
M  V30 31 1 4 29
M  V30 32 1 6 30
M  V30 33 1 13 31
M  V30 34 1 13 32
M  V30 35 1 15 33
M  V30 36 1 16 34
M  V30 37 1 17 35
M  V30 38 1 21 36
M  V30 39 1 23 37
M  V30 40 1 24 38
M  V30 END BOND
M  V30 END CTAB
M  END
>  <Dataset>  (978) 
ChEMBL_Kinases

>  <Ligand_Instance>  (978) 
nan

>  <PDB_ID>  (978) 
nan

>  <Standardized_SMILES>  (978) 
CC(=O)Nc1cc(-c2nnc(SCc3cccc(C#N)c3)o2)ccn1

>  <Name>  (978) 
nan

>  <Pocket>  (978) 
nan

>  <ATP_Site>  (978) 
nan

>  <Peripheral>  (978) 
nan

>  <Num_H_Atoms_ProtBoundConf>  (978) 
nan

>  <Num_Resolved_Atoms>  (978) 
nan

>  <Num_Not_Resolved_Atoms>  (978) 
nan

$$$$
CHEMBL3695595
     RDKit          3D

  0  0  0  0  0  0  0  0  0  0999 V3000
M  V30 BEGIN CTAB
M  V30 COUNTS 71 76 0 0 0
M  V30 BEGIN ATOM
M  V30 1 C -0.787667 -5.642504 -0.578988 0
M  V30 2 O 0.316560 -4.858510 -0.250010 0
M  V30 3 C 0.645167 -3.624935 -0.781514 0
M  V30 4 C 1.780338 -2.977355 -0.343137 0
M  V30 5 C 2.133618 -1.731095 -0.864767 0
M  V30 6 C 1.348855 -1.101679 -1.846457 0
M  V30 7 N 1.934265 0.121548 -2.209419 0
M  V30 8 N 2.707431 -0.045528 -3.293080 0
M  V30 9 C 3.268774 1.112196 -3.619999 0
M  V30 10 C 4.202972 1.538109 -4.710238 0
M  V30 11 C 5.602765 1.375872 -4.181340 0
M  V30 12 C 4.063617 0.591713 -5.909501 0
M  V30 13 C 3.910289 2.924100 -5.185280 0
M  V30 14 C 2.849127 2.065664 -2.721722 0
M  V30 15 C 2.006860 1.405942 -1.844994 0
M  V30 16 N 1.327478 1.912231 -0.731627 0
M  V30 17 C 0.380058 1.602641 0.222162 0
M  V30 18 O -0.033013 0.468439 -0.038788 0
M  V30 19 N -0.126026 2.306665 1.318718 0
M  V30 20 C -1.140328 1.696609 2.109361 0
M  V30 21 C -2.433420 2.033378 1.684611 0
M  V30 22 C -3.546965 1.516338 2.364190 0
M  V30 23 C -3.395514 0.664695 3.464500 0
M  V30 24 O -4.562707 0.257098 4.008498 0
M  V30 25 C -5.175703 -0.939109 4.143438 0
M  V30 26 N -6.332447 -0.738632 4.842315 0
M  V30 27 C -7.143729 -1.813927 5.109707 0
M  V30 28 N -6.869819 -3.068660 4.723783 0
M  V30 29 C -5.733699 -3.316713 4.028657 0
M  V30 30 N -5.334538 -4.513441 3.570451 0
M  V30 31 C -4.165013 -4.618316 2.871854 0
M  V30 32 O -3.891603 -5.786326 2.493000 0
M  V30 33 C -3.368702 -3.535872 2.612307 0
M  V30 34 N -3.786785 -2.358661 3.077923 0
M  V30 35 C -4.938205 -2.227902 3.771803 0
M  V30 36 C -2.110770 0.355194 3.853241 0
M  V30 37 C -1.953701 -0.458645 4.924123 0
M  V30 38 C -0.665982 -0.751422 5.310253 0
M  V30 39 C 0.458767 -0.247658 4.648340 0
M  V30 40 C 0.285176 0.581441 3.556968 0
M  V30 41 C -1.012453 0.857200 3.194042 0
M  V30 42 C 0.207549 -1.777369 -2.272331 0
M  V30 43 C -0.121088 -3.005243 -1.743058 0
M  V30 44 H -0.395602 -6.692000 -0.719262 0
M  V30 45 H -1.518454 -5.744607 0.254339 0
M  V30 46 H -1.274875 -5.378149 -1.530164 0
M  V30 47 H 2.372329 -3.479883 0.415868 0
M  V30 48 H 3.062501 -1.344406 -0.413311 0
M  V30 49 H 5.684851 0.420784 -3.621917 0
M  V30 50 H 6.266766 1.359989 -5.070971 0
M  V30 51 H 5.849619 2.232230 -3.519737 0
M  V30 52 H 3.047444 0.106296 -5.873343 0
M  V30 53 H 4.159782 1.118011 -6.860746 0
M  V30 54 H 4.783501 -0.239203 -5.854386 0
M  V30 55 H 4.574983 3.632938 -4.636410 0
M  V30 56 H 4.133229 2.996890 -6.257241 0
M  V30 57 H 2.845855 3.127277 -4.970061 0
M  V30 58 H 3.086533 3.139399 -2.653860 0
M  V30 59 H 1.636541 2.872585 -0.473322 0
M  V30 60 H 0.317328 3.259750 1.451608 0
M  V30 61 H -2.616884 2.686979 0.841178 0
M  V30 62 H -4.521370 1.812741 1.989243 0
M  V30 63 H -8.088603 -1.739439 5.664138 0
M  V30 64 H -5.961742 -5.333673 3.779389 0
M  V30 65 H -2.469448 -3.739101 2.051732 0
M  V30 66 H -2.830574 -0.850777 5.437700 0
M  V30 67 H -0.555083 -1.414300 6.179763 0
M  V30 68 H 1.439037 -0.525280 5.013395 0
M  V30 69 H 1.142643 0.991544 3.019534 0
M  V30 70 H -0.309332 -1.201014 -3.018765 0
M  V30 71 H -1.023489 -3.452581 -2.132785 0
M  V30 END ATOM
M  V30 BEGIN BOND
M  V30 1 1 1 2
M  V30 2 1 2 3
M  V30 3 2 3 4
M  V30 4 1 4 5
M  V30 5 2 5 6
M  V30 6 1 6 7
M  V30 7 1 7 8
M  V30 8 2 8 9
M  V30 9 1 9 10
M  V30 10 1 10 11
M  V30 11 1 10 12
M  V30 12 1 10 13
M  V30 13 1 9 14
M  V30 14 2 14 15
M  V30 15 1 15 16
M  V30 16 1 16 17
M  V30 17 2 17 18
M  V30 18 1 17 19
M  V30 19 1 19 20
M  V30 20 2 20 21
M  V30 21 1 21 22
M  V30 22 2 22 23
M  V30 23 1 23 24
M  V30 24 1 24 25
M  V30 25 2 25 26
M  V30 26 1 26 27
M  V30 27 2 27 28
M  V30 28 1 28 29
M  V30 29 1 29 30
M  V30 30 1 30 31
M  V30 31 2 31 32
M  V30 32 1 31 33
M  V30 33 2 33 34
M  V30 34 1 34 35
M  V30 35 1 23 36
M  V30 36 2 36 37
M  V30 37 1 37 38
M  V30 38 2 38 39
M  V30 39 1 39 40
M  V30 40 2 40 41
M  V30 41 1 6 42
M  V30 42 2 42 43
M  V30 43 1 43 3
M  V30 44 1 15 7
M  V30 45 1 41 20
M  V30 46 1 35 25
M  V30 47 1 41 36
M  V30 48 2 35 29
M  V30 49 1 1 44
M  V30 50 1 1 45
M  V30 51 1 1 46
M  V30 52 1 4 47
M  V30 53 1 5 48
M  V30 54 1 11 49
M  V30 55 1 11 50
M  V30 56 1 11 51
M  V30 57 1 12 52
M  V30 58 1 12 53
M  V30 59 1 12 54
M  V30 60 1 13 55
M  V30 61 1 13 56
M  V30 62 1 13 57
M  V30 63 1 14 58
M  V30 64 1 16 59
M  V30 65 1 19 60
M  V30 66 1 21 61
M  V30 67 1 22 62
M  V30 68 1 27 63
M  V30 69 1 30 64
M  V30 70 1 33 65
M  V30 71 1 37 66
M  V30 72 1 38 67
M  V30 73 1 39 68
M  V30 74 1 40 69
M  V30 75 1 42 70
M  V30 76 1 43 71
M  V30 END BOND
M  V30 END CTAB
M  END
>  <Dataset>  (979) 
ChEMBL_Kinases

>  <Ligand_Instance>  (979) 
nan

>  <PDB_ID>  (979) 
nan

>  <Standardized_SMILES>  (979) 
COc1ccc(-n2nc(C(C)(C)C)cc2NC(=O)Nc2ccc(Oc3ncnc4[nH]c(=O)cnc34)c3ccccc23)cc1

>  <Name>  (979) 
nan

>  <Pocket>  (979) 
nan

>  <ATP_Site>  (979) 
nan

>  <Peripheral>  (979) 
nan

>  <Num_H_Atoms_ProtBoundConf>  (979) 
nan

>  <Num_Resolved_Atoms>  (979) 
nan

>  <Num_Not_Resolved_Atoms>  (979) 
nan

$$$$
CHEMBL2390958
     RDKit          3D

  0  0  0  0  0  0  0  0  0  0999 V3000
M  V30 BEGIN CTAB
M  V30 COUNTS 41 44 0 0 0
M  V30 BEGIN ATOM
M  V30 1 N 2.422510 -7.367279 2.445410 0
M  V30 2 C 2.171401 -6.404777 1.853408 0
M  V30 3 C 1.867733 -5.200430 1.131406 0
M  V30 4 C 1.899885 -4.000743 1.810881 0
M  V30 5 C 1.607609 -2.864561 1.104874 0
M  V30 6 C 1.286583 -2.887619 -0.247977 0
M  V30 7 C 1.004597 -1.589387 -0.838033 0
M  V30 8 C 0.095363 -1.519241 -1.885038 0
M  V30 9 C -0.245080 -0.359425 -2.512644 0
M  V30 10 C 0.357298 0.799121 -2.069411 0
M  V30 11 C 0.103757 2.168800 -2.641823 0
M  V30 12 S -1.267060 2.976319 -1.771369 0
M  V30 13 C -0.800239 3.309733 -0.058296 0
M  V30 14 N -0.212211 4.296074 0.678093 0
M  V30 15 N -0.199112 3.830942 1.917061 0
M  V30 16 C -0.750757 2.604980 1.980793 0
M  V30 17 C -0.897378 1.797712 3.205870 0
M  V30 18 C -0.443229 2.299263 4.432057 0
M  V30 19 C -0.571454 1.555549 5.596524 0
M  V30 20 N -1.146840 0.340239 5.497963 0
M  V30 21 C -1.578655 -0.129081 4.313235 0
M  V30 22 C -1.486682 0.550858 3.110395 0
M  V30 23 O -1.114910 2.303007 0.749572 0
M  V30 24 C 1.259594 0.718940 -1.028223 0
M  V30 25 C 1.614698 -0.447435 -0.382605 0
M  V30 26 C 1.257269 -4.099727 -0.921149 0
M  V30 27 C 1.552587 -5.257520 -0.212284 0
M  V30 28 H 2.151588 -3.969153 2.877763 0
M  V30 29 H 1.641868 -1.941571 1.667424 0
M  V30 30 H -0.408167 -2.417357 -2.270127 0
M  V30 31 H -0.947787 -0.270637 -3.329059 0
M  V30 32 H -0.164938 2.088188 -3.702449 0
M  V30 33 H 1.007266 2.792053 -2.494555 0
M  V30 34 H 0.008080 3.284517 4.429118 0
M  V30 35 H -0.226061 1.935089 6.533672 0
M  V30 36 H -2.029447 -1.131288 4.361505 0
M  V30 37 H -1.851677 0.118610 2.198252 0
M  V30 38 H 1.747606 1.632418 -0.663968 0
M  V30 39 H 2.317886 -0.449149 0.416178 0
M  V30 40 H 0.999505 -4.016989 -1.961331 0
M  V30 41 H 1.519836 -6.175091 -0.766031 0
M  V30 END ATOM
M  V30 BEGIN BOND
M  V30 1 3 1 2
M  V30 2 1 2 3
M  V30 3 2 3 4
M  V30 4 1 4 5
M  V30 5 2 5 6
M  V30 6 1 6 7
M  V30 7 2 7 8
M  V30 8 1 8 9
M  V30 9 2 9 10
M  V30 10 1 10 11
M  V30 11 1 11 12
M  V30 12 1 12 13
M  V30 13 2 13 14
M  V30 14 1 14 15
M  V30 15 2 15 16
M  V30 16 1 16 17
M  V30 17 2 17 18
M  V30 18 1 18 19
M  V30 19 2 19 20
M  V30 20 1 20 21
M  V30 21 2 21 22
M  V30 22 1 16 23
M  V30 23 1 10 24
M  V30 24 2 24 25
M  V30 25 1 6 26
M  V30 26 2 26 27
M  V30 27 1 27 3
M  V30 28 1 25 7
M  V30 29 1 23 13
M  V30 30 1 22 17
M  V30 31 1 4 28
M  V30 32 1 5 29
M  V30 33 1 8 30
M  V30 34 1 9 31
M  V30 35 1 11 32
M  V30 36 1 11 33
M  V30 37 1 18 34
M  V30 38 1 19 35
M  V30 39 1 21 36
M  V30 40 1 22 37
M  V30 41 1 24 38
M  V30 42 1 25 39
M  V30 43 1 26 40
M  V30 44 1 27 41
M  V30 END BOND
M  V30 END CTAB
M  END
>  <Dataset>  (980) 
ChEMBL_Kinases

>  <Ligand_Instance>  (980) 
nan

>  <PDB_ID>  (980) 
nan

>  <Standardized_SMILES>  (980) 
N#Cc1ccc(-c2ccc(CSc3nnc(-c4ccncc4)o3)cc2)cc1

>  <Name>  (980) 
nan

>  <Pocket>  (980) 
nan

>  <ATP_Site>  (980) 
nan

>  <Peripheral>  (980) 
nan

>  <Num_H_Atoms_ProtBoundConf>  (980) 
nan

>  <Num_Resolved_Atoms>  (980) 
nan

>  <Num_Not_Resolved_Atoms>  (980) 
nan

$$$$
CHEMBL2390974
     RDKit          3D

  0  0  0  0  0  0  0  0  0  0999 V3000
M  V30 BEGIN CTAB
M  V30 COUNTS 58 61 0 0 0
M  V30 BEGIN ATOM
M  V30 1 C 2.612576 1.297564 6.200714 0
M  V30 2 S 3.943366 0.250536 5.740814 0
M  V30 3 O 5.199731 0.648334 6.492082 0
M  V30 4 O 3.629639 -1.151776 6.260232 0
M  V30 5 C 4.232947 0.098590 4.028362 0
M  V30 6 C 4.587155 1.335546 3.282427 0
M  V30 7 C 3.576003 2.432251 3.302875 0
M  V30 8 O 2.312127 2.116971 2.802399 0
M  V30 9 C 1.918889 1.719859 1.559675 0
M  V30 10 C 2.560906 1.491192 0.365395 0
M  V30 11 C 1.952036 1.084642 -0.797350 0
M  V30 12 C 0.601197 0.884983 -0.792392 0
M  V30 13 C -0.096426 1.094819 0.361856 0
M  V30 14 C 0.530530 1.509119 1.543634 0
M  V30 15 C -0.539503 1.594773 2.443324 0
M  V30 16 N -1.676673 1.257281 1.823615 0
M  V30 17 N -1.419568 0.948476 0.546804 0
M  V30 18 C -2.456109 0.553037 -0.343041 0
M  V30 19 C -3.275003 1.570195 -0.785982 0
M  V30 20 C -4.286181 1.200279 -1.648179 0
M  V30 21 N -4.478000 -0.069737 -2.044352 0
M  V30 22 C -3.648799 -1.042069 -1.584606 0
M  V30 23 N -3.707411 -2.430601 -1.890980 0
M  V30 24 C -2.840936 -3.493039 -1.431541 0 CFG=1
M  V30 25 C -3.373364 -4.809346 -2.018072 0
M  V30 26 C -3.226575 -4.802127 -3.504272 0
M  V30 27 C -1.760767 -4.755986 -3.851409 0 CFG=2
M  V30 28 O -1.171191 -5.899141 -3.355172 0
M  V30 29 C -1.179227 -3.478068 -3.314410 0
M  V30 30 C -1.396462 -3.290056 -1.840758 0
M  V30 31 N -2.661956 -0.711363 -0.749141 0
M  V30 32 H 1.854663 1.389852 5.409323 0
M  V30 33 H 2.991401 2.266401 6.596929 0
M  V30 34 H 2.068085 0.799900 7.060304 0
M  V30 35 H 5.123215 -0.594403 3.913757 0
M  V30 36 H 3.404573 -0.479109 3.551065 0
M  V30 37 H 5.499692 1.768838 3.825006 0
M  V30 38 H 4.914972 1.126100 2.262090 0
M  V30 39 H 3.453961 2.768218 4.353339 0
M  V30 40 H 3.985466 3.363103 2.795144 0
M  V30 41 H 3.614467 1.671188 0.417187 0
M  V30 42 H 2.613405 0.952174 -1.646961 0
M  V30 43 H 0.127612 0.565177 -1.709933 0
M  V30 44 H -0.416243 1.889727 3.460851 0
M  V30 45 H -3.210849 2.618882 -0.532457 0
M  V30 46 H -4.990172 1.920416 -2.058930 0
M  V30 47 H -4.520406 -2.631494 -2.547390 0
M  V30 48 H -2.845996 -3.635549 -0.333093 0
M  V30 49 H -4.420574 -4.879959 -1.717896 0
M  V30 50 H -2.762507 -5.597442 -1.523459 0
M  V30 51 H -3.683538 -3.891686 -3.909993 0
M  V30 52 H -3.682166 -5.731676 -3.912179 0
M  V30 53 H -1.630232 -4.733809 -4.954161 0
M  V30 54 H -0.573832 -5.725769 -2.587976 0
M  V30 55 H -0.086803 -3.475727 -3.492936 0
M  V30 56 H -1.674916 -2.639612 -3.825600 0
M  V30 57 H -1.092252 -2.279032 -1.558600 0
M  V30 58 H -0.779367 -3.997699 -1.248718 0
M  V30 END ATOM
M  V30 BEGIN BOND
M  V30 1 1 1 2
M  V30 2 2 2 3
M  V30 3 2 2 4
M  V30 4 1 2 5
M  V30 5 1 5 6
M  V30 6 1 6 7
M  V30 7 1 7 8
M  V30 8 1 8 9
M  V30 9 2 9 10
M  V30 10 1 10 11
M  V30 11 2 11 12
M  V30 12 1 12 13
M  V30 13 2 13 14
M  V30 14 1 14 15
M  V30 15 2 15 16
M  V30 16 1 16 17
M  V30 17 1 17 18
M  V30 18 2 18 19
M  V30 19 1 19 20
M  V30 20 2 20 21
M  V30 21 1 21 22
M  V30 22 1 22 23
M  V30 23 1 23 24
M  V30 24 1 24 25
M  V30 25 1 25 26
M  V30 26 1 26 27
M  V30 27 1 27 28
M  V30 28 1 27 29
M  V30 29 1 29 30
M  V30 30 2 22 31
M  V30 31 1 14 9
M  V30 32 1 31 18
M  V30 33 1 17 13
M  V30 34 1 30 24
M  V30 35 1 1 32
M  V30 36 1 1 33
M  V30 37 1 1 34
M  V30 38 1 5 35
M  V30 39 1 5 36
M  V30 40 1 6 37
M  V30 41 1 6 38
M  V30 42 1 7 39
M  V30 43 1 7 40
M  V30 44 1 10 41
M  V30 45 1 11 42
M  V30 46 1 12 43
M  V30 47 1 15 44
M  V30 48 1 19 45
M  V30 49 1 20 46
M  V30 50 1 23 47
M  V30 51 1 24 48 CFG=1
M  V30 52 1 25 49
M  V30 53 1 25 50
M  V30 54 1 26 51
M  V30 55 1 26 52
M  V30 56 1 27 53 CFG=3
M  V30 57 1 28 54
M  V30 58 1 29 55
M  V30 59 1 29 56
M  V30 60 1 30 57
M  V30 61 1 30 58
M  V30 END BOND
M  V30 END CTAB
M  END
>  <Dataset>  (981) 
ChEMBL_Kinases

>  <Ligand_Instance>  (981) 
nan

>  <PDB_ID>  (981) 
nan

>  <Standardized_SMILES>  (981) 
CS(=O)(=O)CCCOc1cccc2c1cnn2-c1ccnc(N[C@H]2CC[C@H](O)CC2)n1

>  <Name>  (981) 
nan

>  <Pocket>  (981) 
nan

>  <ATP_Site>  (981) 
nan

>  <Peripheral>  (981) 
nan

>  <Num_H_Atoms_ProtBoundConf>  (981) 
nan

>  <Num_Resolved_Atoms>  (981) 
nan

>  <Num_Not_Resolved_Atoms>  (981) 
nan

$$$$
CHEMBL2391098
     RDKit          3D

  0  0  0  0  0  0  0  0  0  0999 V3000
M  V30 BEGIN CTAB
M  V30 COUNTS 41 44 0 0 0
M  V30 BEGIN ATOM
M  V30 1 N 1.309191 -1.441286 3.475077 0
M  V30 2 C 2.013719 -1.671342 2.603416 0
M  V30 3 C 2.887683 -1.971781 1.527853 0
M  V30 4 C 3.641248 -3.121054 1.572474 0
M  V30 5 C 4.514931 -3.472552 0.566840 0
M  V30 6 F 5.271769 -4.590290 0.571391 0
M  V30 7 C 4.628744 -2.629311 -0.521547 0
M  V30 8 C 3.858084 -1.488630 -0.529861 0
M  V30 9 C 2.970581 -1.104029 0.461044 0
M  V30 10 C 2.210787 0.117543 0.330328 0
M  V30 11 C 1.710250 0.290115 -0.967597 0
M  V30 12 C 0.958216 1.382104 -1.334196 0
M  V30 13 C 0.669417 2.364025 -0.404985 0
M  V30 14 C -0.117535 3.564917 -0.756750 0
M  V30 15 S -1.883130 3.391707 -0.604233 0
M  V30 16 C -2.413661 1.898263 0.169707 0
M  V30 17 N -3.762546 1.824054 0.276972 0
M  V30 18 N -4.083289 0.685420 0.861548 0
M  V30 19 C -2.922615 0.050965 1.117250 0
M  V30 20 C -2.875683 -1.243924 1.759142 0
M  V30 21 C -1.659084 -1.886140 1.984142 0
M  V30 22 C -1.589783 -3.119384 2.597552 0
M  V30 23 N -2.691032 -3.748621 3.002007 0
M  V30 24 C -3.905895 -3.177928 2.812944 0
M  V30 25 C -3.989199 -1.926365 2.190619 0
M  V30 26 O -1.957361 0.807710 0.689999 0
M  V30 27 C 1.163207 2.189885 0.869903 0
M  V30 28 C 1.918293 1.100156 1.250449 0
M  V30 29 H 3.590717 -3.817477 2.403133 0
M  V30 30 H 5.286972 -2.832565 -1.344168 0
M  V30 31 H 3.941307 -0.812748 -1.389509 0
M  V30 32 H 1.862785 -0.407953 -1.794098 0
M  V30 33 H 0.557600 1.548205 -2.317466 0
M  V30 34 H 0.225715 4.444653 -0.148431 0
M  V30 35 H 0.094330 3.890931 -1.813729 0
M  V30 36 H -0.783225 -1.344198 1.638544 0
M  V30 37 H -0.613085 -3.588310 2.754249 0
M  V30 38 H -4.849753 -3.650640 3.127235 0
M  V30 39 H -4.942640 -1.415173 2.010347 0
M  V30 40 H 0.968315 2.923884 1.636174 0
M  V30 41 H 2.338492 0.891114 2.221311 0
M  V30 END ATOM
M  V30 BEGIN BOND
M  V30 1 3 1 2
M  V30 2 1 2 3
M  V30 3 2 3 4
M  V30 4 1 4 5
M  V30 5 1 5 6
M  V30 6 2 5 7
M  V30 7 1 7 8
M  V30 8 2 8 9
M  V30 9 1 9 10
M  V30 10 2 10 11
M  V30 11 1 11 12
M  V30 12 2 12 13
M  V30 13 1 13 14
M  V30 14 1 14 15
M  V30 15 1 15 16
M  V30 16 2 16 17
M  V30 17 1 17 18
M  V30 18 2 18 19
M  V30 19 1 19 20
M  V30 20 2 20 21
M  V30 21 1 21 22
M  V30 22 2 22 23
M  V30 23 1 23 24
M  V30 24 2 24 25
M  V30 25 1 19 26
M  V30 26 1 13 27
M  V30 27 2 27 28
M  V30 28 1 9 3
M  V30 29 1 28 10
M  V30 30 1 26 16
M  V30 31 1 25 20
M  V30 32 1 4 29
M  V30 33 1 7 30
M  V30 34 1 8 31
M  V30 35 1 11 32
M  V30 36 1 12 33
M  V30 37 1 14 34
M  V30 38 1 14 35
M  V30 39 1 21 36
M  V30 40 1 22 37
M  V30 41 1 24 38
M  V30 42 1 25 39
M  V30 43 1 27 40
M  V30 44 1 28 41
M  V30 END BOND
M  V30 END CTAB
M  END
>  <Dataset>  (982) 
ChEMBL_Kinases

>  <Ligand_Instance>  (982) 
nan

>  <PDB_ID>  (982) 
nan

>  <Standardized_SMILES>  (982) 
N#Cc1cc(F)ccc1-c1ccc(CSc2nnc(-c3ccncc3)o2)cc1

>  <Name>  (982) 
nan

>  <Pocket>  (982) 
nan

>  <ATP_Site>  (982) 
nan

>  <Peripheral>  (982) 
nan

>  <Num_H_Atoms_ProtBoundConf>  (982) 
nan

>  <Num_Resolved_Atoms>  (982) 
nan

>  <Num_Not_Resolved_Atoms>  (982) 
nan

$$$$
CHEMBL3702136
     RDKit          3D

  0  0  0  0  0  0  0  0  0  0999 V3000
M  V30 BEGIN CTAB
M  V30 COUNTS 58 63 0 0 0
M  V30 BEGIN ATOM
M  V30 1 F 5.038786 -2.580610 1.222843 0
M  V30 2 C 4.032218 -2.219510 0.353866 0
M  V30 3 F 3.531114 -3.386424 -0.238966 0
M  V30 4 F 4.495729 -1.364555 -0.653735 0
M  V30 5 C 2.879221 -1.602157 1.045790 0
M  V30 6 C 1.950922 -2.380038 1.705028 0
M  V30 7 C 0.881149 -1.791408 2.344646 0
M  V30 8 C 0.790208 -0.416242 2.291989 0
M  V30 9 C 1.721346 0.388538 1.628716 0
M  V30 10 N 1.402284 1.769648 1.720063 0
M  V30 11 C 2.074989 2.834619 2.189569 0
M  V30 12 C 3.319601 2.890029 2.737262 0
M  V30 13 N 3.810339 4.067041 3.146973 0
M  V30 14 C 3.086338 5.217789 3.026899 0
M  V30 15 C 1.812619 5.204232 2.473692 0
M  V30 16 C 1.323768 3.984167 2.057484 0
M  V30 17 C 0.130723 3.612155 1.479212 0
M  V30 18 C -1.017920 4.268055 1.093861 0
M  V30 19 N -2.079425 3.634674 0.529903 0
M  V30 20 C -2.043737 2.289312 0.319528 0
M  V30 21 N -3.140411 1.566590 -0.268595 0
M  V30 22 C -2.973022 0.150490 -0.464078 0
M  V30 23 C -3.252400 -0.826639 0.454686 0
M  V30 24 C -3.048742 -2.155683 0.142513 0
M  V30 25 C -2.565872 -2.551382 -1.080768 0
M  V30 26 N -2.351366 -3.910445 -1.400782 0
M  V30 27 C -2.496903 -5.001771 -0.468761 0
M  V30 28 C -1.179696 -5.750417 -0.498616 0
M  V30 29 N -0.141210 -5.067965 -1.217874 0
M  V30 30 C -0.464458 -4.714799 -2.569534 0
M  V30 31 C -1.958599 -4.394790 -2.710104 0
M  V30 32 C -2.310425 -1.514536 -1.945751 0
M  V30 33 N -2.500500 -0.212615 -1.664983 0
M  V30 34 C -0.889345 1.649677 0.709943 0
M  V30 35 C 0.206543 2.249298 1.283295 0
M  V30 36 C 2.780478 -0.227848 0.998105 0
M  V30 37 H 2.073497 -3.460347 1.713580 0
M  V30 38 H 0.161354 -2.413477 2.856877 0
M  V30 39 H -0.090667 -0.028017 2.826832 0
M  V30 40 H 3.913382 1.998856 2.844610 0
M  V30 41 H 3.494924 6.177082 3.364625 0
M  V30 42 H 1.205434 6.097420 2.361757 0
M  V30 43 H -1.063389 5.338443 1.253895 0
M  V30 44 H -3.987047 2.142713 -0.510427 0
M  V30 45 H -3.631194 -0.471810 1.406544 0
M  V30 46 H -3.295432 -2.830408 0.919952 0
M  V30 47 H -2.834752 -4.750581 0.526461 0
M  V30 48 H -3.264638 -5.712332 -0.895813 0
M  V30 49 H -0.840793 -5.872390 0.532389 0
M  V30 50 H -1.265478 -6.757756 -0.934206 0
M  V30 51 H 0.348742 -4.325548 -0.688716 0
M  V30 52 H 0.053756 -3.748912 -2.797935 0
M  V30 53 H -0.145077 -5.456357 -3.324204 0
M  V30 54 H -2.162033 -3.642303 -3.479244 0
M  V30 55 H -2.433974 -5.368814 -2.962325 0
M  V30 56 H -1.920650 -1.712709 -2.950686 0
M  V30 57 H -0.876256 0.588338 0.537833 0
M  V30 58 H 3.450557 0.464576 0.512147 0
M  V30 END ATOM
M  V30 BEGIN BOND
M  V30 1 1 1 2
M  V30 2 1 2 3
M  V30 3 1 2 4
M  V30 4 1 2 5
M  V30 5 2 5 6
M  V30 6 1 6 7
M  V30 7 2 7 8
M  V30 8 1 8 9
M  V30 9 1 9 10
M  V30 10 1 10 11
M  V30 11 2 11 12
M  V30 12 1 12 13
M  V30 13 2 13 14
M  V30 14 1 14 15
M  V30 15 2 15 16
M  V30 16 1 16 17
M  V30 17 2 17 18
M  V30 18 1 18 19
M  V30 19 2 19 20
M  V30 20 1 20 21
M  V30 21 1 21 22
M  V30 22 2 22 23
M  V30 23 1 23 24
M  V30 24 2 24 25
M  V30 25 1 25 26
M  V30 26 1 26 27
M  V30 27 1 27 28
M  V30 28 1 28 29
M  V30 29 1 29 30
M  V30 30 1 30 31
M  V30 31 1 25 32
M  V30 32 2 32 33
M  V30 33 1 20 34
M  V30 34 2 34 35
M  V30 35 2 9 36
M  V30 36 1 36 5
M  V30 37 1 35 10
M  V30 38 1 16 11
M  V30 39 1 35 17
M  V30 40 1 33 22
M  V30 41 1 31 26
M  V30 42 1 6 37
M  V30 43 1 7 38
M  V30 44 1 8 39
M  V30 45 1 12 40
M  V30 46 1 14 41
M  V30 47 1 15 42
M  V30 48 1 18 43
M  V30 49 1 21 44
M  V30 50 1 23 45
M  V30 51 1 24 46
M  V30 52 1 27 47
M  V30 53 1 27 48
M  V30 54 1 28 49
M  V30 55 1 28 50
M  V30 56 1 29 51
M  V30 57 1 30 52
M  V30 58 1 30 53
M  V30 59 1 31 54
M  V30 60 1 31 55
M  V30 61 1 32 56
M  V30 62 1 34 57
M  V30 63 1 36 58
M  V30 END BOND
M  V30 END CTAB
M  END
>  <Dataset>  (983) 
ChEMBL_Kinases

>  <Ligand_Instance>  (983) 
nan

>  <PDB_ID>  (983) 
nan

>  <Standardized_SMILES>  (983) 
FC(F)(F)c1cccc(-n2c3cnccc3c3cnc(Nc4ccc(N5CCNCC5)cn4)cc32)c1

>  <Name>  (983) 
nan

>  <Pocket>  (983) 
nan

>  <ATP_Site>  (983) 
nan

>  <Peripheral>  (983) 
nan

>  <Num_H_Atoms_ProtBoundConf>  (983) 
nan

>  <Num_Resolved_Atoms>  (983) 
nan

>  <Num_Not_Resolved_Atoms>  (983) 
nan

$$$$
CHEMBL2391099
     RDKit          3D

  0  0  0  0  0  0  0  0  0  0999 V3000
M  V30 BEGIN CTAB
M  V30 COUNTS 40 43 0 0 0
M  V30 BEGIN ATOM
M  V30 1 C 0.087804 -5.385436 2.352385 0
M  V30 2 C 1.231158 -4.970722 2.982984 0
M  V30 3 C 1.610553 -3.634751 2.973168 0
M  V30 4 C 0.852867 -2.671318 2.328514 0
M  V30 5 C 1.233280 -1.275366 2.306183 0
M  V30 6 C 2.539280 -0.878254 2.312413 0
M  V30 7 C 2.900614 0.461408 2.290662 0
M  V30 8 C 1.944877 1.466840 2.261265 0
M  V30 9 C 2.305622 2.903200 2.235527 0
M  V30 10 S 2.471659 3.491671 0.508490 0
M  V30 11 C 0.799334 3.377786 -0.172905 0
M  V30 12 N -0.319317 4.120345 -0.297618 0
M  V30 13 N -1.188114 3.354603 -0.936815 0
M  V30 14 C -0.658980 2.151698 -1.221676 0
M  V30 15 C -1.311696 1.036862 -1.919268 0
M  V30 16 C -2.612236 1.129117 -2.372963 0
M  V30 17 C -3.182409 0.055959 -3.021629 0
M  V30 18 N -2.478523 -1.074713 -3.212656 0
M  V30 19 C -1.197422 -1.176460 -2.770035 0
M  V30 20 C -0.590516 -0.124491 -2.116090 0
M  V30 21 O 0.571392 2.206007 -0.732903 0
M  V30 22 C 0.619912 1.099949 2.254362 0
M  V30 23 C 0.309452 -0.244458 2.276740 0
M  V30 24 C -0.297248 -3.096559 1.695799 0
M  V30 25 C -0.667870 -4.430346 1.710576 0
M  V30 26 H -0.272539 -6.412598 2.319320 0
M  V30 27 H 1.842081 -5.682069 3.488409 0
M  V30 28 H 2.508607 -3.306987 3.468916 0
M  V30 29 H 3.325445 -1.627738 2.335660 0
M  V30 30 H 3.928094 0.779667 2.294745 0
M  V30 31 H 3.312073 3.001923 2.673302 0
M  V30 32 H 1.586157 3.495602 2.815583 0
M  V30 33 H -3.183701 2.011145 -2.231945 0
M  V30 34 H -4.196299 0.069978 -3.398904 0
M  V30 35 H -0.579870 -2.074996 -2.899015 0
M  V30 36 H 0.420179 -0.177501 -1.755123 0
M  V30 37 H -0.198548 1.831222 2.231751 0
M  V30 38 H -0.749174 -0.508840 2.269707 0
M  V30 39 H -0.936116 -2.408741 1.174666 0
M  V30 40 H -1.576385 -4.731082 1.204245 0
M  V30 END ATOM
M  V30 BEGIN BOND
M  V30 1 2 1 2
M  V30 2 1 2 3
M  V30 3 2 3 4
M  V30 4 1 4 5
M  V30 5 2 5 6
M  V30 6 1 6 7
M  V30 7 2 7 8
M  V30 8 1 8 9
M  V30 9 1 9 10
M  V30 10 1 10 11
M  V30 11 2 11 12
M  V30 12 1 12 13
M  V30 13 2 13 14
M  V30 14 1 14 15
M  V30 15 2 15 16
M  V30 16 1 16 17
M  V30 17 2 17 18
M  V30 18 1 18 19
M  V30 19 2 19 20
M  V30 20 1 14 21
M  V30 21 1 8 22
M  V30 22 2 22 23
M  V30 23 1 4 24
M  V30 24 2 24 25
M  V30 25 1 25 1
M  V30 26 1 23 5
M  V30 27 1 21 11
M  V30 28 1 20 15
M  V30 29 1 1 26
M  V30 30 1 2 27
M  V30 31 1 3 28
M  V30 32 1 6 29
M  V30 33 1 7 30
M  V30 34 1 9 31
M  V30 35 1 9 32
M  V30 36 1 16 33
M  V30 37 1 17 34
M  V30 38 1 19 35
M  V30 39 1 20 36
M  V30 40 1 22 37
M  V30 41 1 23 38
M  V30 42 1 24 39
M  V30 43 1 25 40
M  V30 END BOND
M  V30 END CTAB
M  END
>  <Dataset>  (984) 
ChEMBL_Kinases

>  <Ligand_Instance>  (984) 
nan

>  <PDB_ID>  (984) 
nan

>  <Standardized_SMILES>  (984) 
c1ccc(-c2ccc(CSc3nnc(-c4ccncc4)o3)cc2)cc1

>  <Name>  (984) 
nan

>  <Pocket>  (984) 
nan

>  <ATP_Site>  (984) 
nan

>  <Peripheral>  (984) 
nan

>  <Num_H_Atoms_ProtBoundConf>  (984) 
nan

>  <Num_Resolved_Atoms>  (984) 
nan

>  <Num_Not_Resolved_Atoms>  (984) 
nan

$$$$
CHEMBL4568404
     RDKit          3D

  0  0  0  0  0  0  0  0  0  0999 V3000
M  V30 BEGIN CTAB
M  V30 COUNTS 55 60 0 0 0
M  V30 BEGIN ATOM
M  V30 1 C 2.650652 -4.546884 2.142474 0
M  V30 2 C 2.686246 -3.486413 3.219921 0 CFG=1
M  V30 3 N 3.930386 -3.442922 3.921560 0
M  V30 4 C 4.577326 -2.176534 3.812985 0
M  V30 5 O 5.673664 -1.857035 4.324177 0
M  V30 6 C 3.669544 -1.390851 2.989996 0
M  V30 7 C 3.483476 -0.153366 2.411644 0
M  V30 8 C 2.293745 -0.111671 1.709058 0
M  V30 9 C 1.818645 1.058727 0.987686 0
M  V30 10 C 2.567637 2.235060 0.984733 0
M  V30 11 C 2.185286 3.381717 0.328397 0
M  V30 12 C 0.997646 3.390406 -0.372509 0
M  V30 13 C 0.258445 2.232154 -0.370736 0
M  V30 14 C -0.919715 2.293655 -1.086639 0
M  V30 15 O -1.301033 3.328458 -1.700008 0
M  V30 16 N -1.689891 1.193376 -1.125746 0
M  V30 17 C -2.935172 1.235345 -1.873601 0
M  V30 18 C -2.970096 0.383756 -3.117210 0
M  V30 19 C -3.851981 2.388405 -1.749745 0
M  V30 20 C -4.190829 1.164914 -0.982293 0
M  V30 21 C -1.300325 0.059415 -0.470316 0
M  V30 22 N -2.165937 -1.078196 -0.548667 0
M  V30 23 C -1.945929 -2.370509 0.056871 0
M  V30 24 C -0.728894 -3.162219 -0.372193 0
M  V30 25 C -2.329150 -2.516993 1.520051 0
M  V30 26 C -3.187302 -3.148003 0.499774 0
M  V30 27 N -0.148007 0.023705 0.220823 0
M  V30 28 C 0.636724 1.084933 0.283335 0
M  V30 29 N 1.775901 -1.338399 1.877076 0
M  V30 30 C 2.561899 -2.127164 2.630903 0
M  V30 31 H 2.672270 -5.529914 2.679123 0
M  V30 32 H 1.677405 -4.485952 1.654241 0
M  V30 33 H 3.521622 -4.482480 1.476665 0
M  V30 34 H 1.865340 -3.693719 3.937494 0
M  V30 35 H 4.319770 -4.259717 4.457233 0
M  V30 36 H 4.207156 0.662022 2.519038 0
M  V30 37 H 3.523519 2.303086 1.520609 0
M  V30 38 H 2.790950 4.266230 0.351145 0
M  V30 39 H 0.706498 4.299256 -0.885639 0
M  V30 40 H -2.920001 1.004751 -4.047593 0
M  V30 41 H -2.108531 -0.299108 -3.171565 0
M  V30 42 H -3.904637 -0.224432 -3.184312 0
M  V30 43 H -3.588208 3.312817 -1.197469 0
M  V30 44 H -4.500290 2.600560 -2.625023 0
M  V30 45 H -4.060788 1.213618 0.117002 0
M  V30 46 H -4.977384 0.453129 -1.306840 0
M  V30 47 H -3.056667 -1.021026 -1.085230 0
M  V30 48 H -0.099683 -2.596712 -1.070172 0
M  V30 49 H -1.105015 -4.041418 -0.961109 0
M  V30 50 H -0.217720 -3.549810 0.512289 0
M  V30 51 H -2.726235 -1.621735 2.053037 0
M  V30 52 H -1.726976 -3.215505 2.152408 0
M  V30 53 H -4.183342 -2.687849 0.277285 0
M  V30 54 H -3.155328 -4.235331 0.294946 0
M  V30 55 H 0.888395 -1.658561 1.487885 0
M  V30 END ATOM
M  V30 BEGIN BOND
M  V30 1 1 1 2
M  V30 2 1 2 3
M  V30 3 1 3 4
M  V30 4 2 4 5
M  V30 5 1 4 6
M  V30 6 1 6 7
M  V30 7 2 7 8
M  V30 8 1 8 9
M  V30 9 2 9 10
M  V30 10 1 10 11
M  V30 11 2 11 12
M  V30 12 1 12 13
M  V30 13 1 13 14
M  V30 14 2 14 15
M  V30 15 1 14 16
M  V30 16 1 16 17
M  V30 17 1 17 18
M  V30 18 1 17 19
M  V30 19 1 19 20
M  V30 20 1 16 21
M  V30 21 1 21 22
M  V30 22 1 22 23
M  V30 23 1 23 24
M  V30 24 1 23 25
M  V30 25 1 25 26
M  V30 26 2 21 27
M  V30 27 1 27 28
M  V30 28 1 8 29
M  V30 29 1 29 30
M  V30 30 1 30 2
M  V30 31 2 30 6
M  V30 32 1 28 9
M  V30 33 2 28 13
M  V30 34 1 20 17
M  V30 35 1 26 23
M  V30 36 1 1 31
M  V30 37 1 1 32
M  V30 38 1 1 33
M  V30 39 1 2 34 CFG=1
M  V30 40 1 3 35
M  V30 41 1 7 36
M  V30 42 1 10 37
M  V30 43 1 11 38
M  V30 44 1 12 39
M  V30 45 1 18 40
M  V30 46 1 18 41
M  V30 47 1 18 42
M  V30 48 1 19 43
M  V30 49 1 19 44
M  V30 50 1 20 45
M  V30 51 1 20 46
M  V30 52 1 22 47
M  V30 53 1 24 48
M  V30 54 1 24 49
M  V30 55 1 24 50
M  V30 56 1 25 51
M  V30 57 1 25 52
M  V30 58 1 26 53
M  V30 59 1 26 54
M  V30 60 1 29 55
M  V30 END BOND
M  V30 END CTAB
M  END
>  <Dataset>  (985) 
ChEMBL_Kinases

>  <Ligand_Instance>  (985) 
nan

>  <PDB_ID>  (985) 
nan

>  <Standardized_SMILES>  (985) 
C[C@H]1NC(=O)c2cc(-c3cccc4c(=O)n(C5(C)CC5)c(NC5(C)CC5)nc34)[nH]c21

>  <Name>  (985) 
nan

>  <Pocket>  (985) 
nan

>  <ATP_Site>  (985) 
nan

>  <Peripheral>  (985) 
nan

>  <Num_H_Atoms_ProtBoundConf>  (985) 
nan

>  <Num_Resolved_Atoms>  (985) 
nan

>  <Num_Not_Resolved_Atoms>  (985) 
nan

$$$$
CHEMBL4568447
     RDKit          3D

  0  0  0  0  0  0  0  0  0  0999 V3000
M  V30 BEGIN CTAB
M  V30 COUNTS 60 62 0 0 0
M  V30 BEGIN ATOM
M  V30 1 C 3.131110 -2.495634 4.743426 0
M  V30 2 O 4.361927 -2.852859 4.141386 0
M  V30 3 C 4.901337 -1.963804 3.221602 0
M  V30 4 C 6.114719 -2.398454 2.679734 0
M  V30 5 C 6.820731 -1.674950 1.752015 0
M  V30 6 C 6.285331 -0.453325 1.344925 0
M  V30 7 C 5.106903 -0.010608 1.858433 0
M  V30 8 C 4.469911 1.261166 1.488543 0 CFG=1
M  V30 9 C 5.016730 1.835788 0.202638 0
M  V30 10 N 3.063300 0.983622 1.274294 0
M  V30 11 C 1.933181 1.484936 1.962631 0
M  V30 12 O 2.249738 2.277669 2.878710 0
M  V30 13 C 0.593775 1.061163 1.568524 0
M  V30 14 C 0.279789 0.187356 0.552880 0
M  V30 15 C -1.041918 -0.117965 0.297939 0
M  V30 16 C -2.098348 0.409494 1.013659 0
M  V30 17 C -3.473748 0.036076 0.681082 0
M  V30 18 C -4.495799 -0.033005 1.609106 0
M  V30 19 C -5.733476 -0.397322 1.143720 0
M  V30 20 N -5.968639 -0.679366 -0.150208 0
M  V30 21 C -4.983083 -0.616602 -1.066948 0
M  V30 22 N -5.425277 -0.945663 -2.370555 0
M  V30 23 C -5.525552 -2.162096 -3.110304 0
M  V30 24 C -4.224875 -2.889218 -3.313024 0
M  V30 25 C -3.648717 -3.349127 -2.005916 0
M  V30 26 C -3.222120 -2.067363 -4.101862 0
M  V30 27 O -4.541586 -4.045909 -4.060534 0
M  V30 28 C -3.712362 -0.252788 -0.646700 0
M  V30 29 C -1.794313 1.299249 2.049177 0
M  V30 30 C -0.453856 1.596732 2.293231 0
M  V30 31 C 4.409032 -0.749758 2.790626 0
M  V30 32 H 2.464755 -2.116147 3.941455 0
M  V30 33 H 2.607655 -3.396092 5.144965 0
M  V30 34 H 3.269885 -1.763741 5.569852 0
M  V30 35 H 6.597353 -3.344217 2.949110 0
M  V30 36 H 7.755535 -1.995971 1.325632 0
M  V30 37 H 6.817858 0.136497 0.617524 0
M  V30 38 H 4.638687 1.977479 2.317754 0
M  V30 39 H 6.108067 2.021023 0.302388 0
M  V30 40 H 4.724416 1.268805 -0.680813 0
M  V30 41 H 4.577434 2.857590 0.068943 0
M  V30 42 H 3.012479 0.310123 0.478277 0
M  V30 43 H 1.102518 -0.220538 -0.001010 0
M  V30 44 H -1.280345 -0.800978 -0.496653 0
M  V30 45 H -4.201728 0.209233 2.602638 0
M  V30 46 H -6.525690 -0.445539 1.892648 0
M  V30 47 H -5.715378 -0.019285 -2.782332 0
M  V30 48 H -5.921138 -1.949864 -4.123211 0
M  V30 49 H -6.206186 -2.897743 -2.605562 0
M  V30 50 H -2.673272 -2.853951 -1.807098 0
M  V30 51 H -4.343150 -3.026226 -1.182551 0
M  V30 52 H -3.532810 -4.446123 -1.983384 0
M  V30 53 H -3.786179 -1.284779 -4.671401 0
M  V30 54 H -2.697237 -2.662856 -4.873807 0
M  V30 55 H -2.452355 -1.606395 -3.449838 0
M  V30 56 H -4.371125 -4.878856 -3.540141 0
M  V30 57 H -2.992806 -0.231022 -1.454477 0
M  V30 58 H -2.585862 1.729075 2.626788 0
M  V30 59 H -0.299997 2.288797 3.105405 0
M  V30 60 H 3.471448 -0.480698 3.251537 0
M  V30 END ATOM
M  V30 BEGIN BOND
M  V30 1 1 1 2
M  V30 2 1 2 3
M  V30 3 2 3 4
M  V30 4 1 4 5
M  V30 5 2 5 6
M  V30 6 1 6 7
M  V30 7 1 7 8
M  V30 8 1 8 9
M  V30 9 1 8 10
M  V30 10 1 10 11
M  V30 11 2 11 12
M  V30 12 1 11 13
M  V30 13 2 13 14
M  V30 14 1 14 15
M  V30 15 2 15 16
M  V30 16 1 16 17
M  V30 17 2 17 18
M  V30 18 1 18 19
M  V30 19 2 19 20
M  V30 20 1 20 21
M  V30 21 1 21 22
M  V30 22 1 22 23
M  V30 23 1 23 24
M  V30 24 1 24 25
M  V30 25 1 24 26
M  V30 26 1 24 27
M  V30 27 2 21 28
M  V30 28 1 16 29
M  V30 29 2 29 30
M  V30 30 2 7 31
M  V30 31 1 31 3
M  V30 32 1 30 13
M  V30 33 1 28 17
M  V30 34 1 1 32
M  V30 35 1 1 33
M  V30 36 1 1 34
M  V30 37 1 4 35
M  V30 38 1 5 36
M  V30 39 1 6 37
M  V30 40 1 8 38 CFG=1
M  V30 41 1 9 39
M  V30 42 1 9 40
M  V30 43 1 9 41
M  V30 44 1 10 42
M  V30 45 1 14 43
M  V30 46 1 15 44
M  V30 47 1 18 45
M  V30 48 1 19 46
M  V30 49 1 22 47
M  V30 50 1 23 48
M  V30 51 1 23 49
M  V30 52 1 25 50
M  V30 53 1 25 51
M  V30 54 1 25 52
M  V30 55 1 26 53
M  V30 56 1 26 54
M  V30 57 1 26 55
M  V30 58 1 27 56
M  V30 59 1 28 57
M  V30 60 1 29 58
M  V30 61 1 30 59
M  V30 62 1 31 60
M  V30 END BOND
M  V30 END CTAB
M  END
>  <Dataset>  (986) 
ChEMBL_Kinases

>  <Ligand_Instance>  (986) 
nan

>  <PDB_ID>  (986) 
nan

>  <Standardized_SMILES>  (986) 
COc1cccc([C@@H](C)NC(=O)c2ccc(-c3ccnc(NCC(C)(C)O)c3)cc2)c1

>  <Name>  (986) 
nan

>  <Pocket>  (986) 
nan

>  <ATP_Site>  (986) 
nan

>  <Peripheral>  (986) 
nan

>  <Num_H_Atoms_ProtBoundConf>  (986) 
nan

>  <Num_Resolved_Atoms>  (986) 
nan

>  <Num_Not_Resolved_Atoms>  (986) 
nan

$$$$
CHEMBL2391100
     RDKit          3D

  0  0  0  0  0  0  0  0  0  0999 V3000
M  V30 BEGIN CTAB
M  V30 COUNTS 37 39 0 0 0
M  V30 BEGIN ATOM
M  V30 1 C 0.774337 -7.442952 0.802167 0
M  V30 2 C 0.954146 -5.989112 1.021306 0
M  V30 3 O -0.024198 -5.168504 1.092070 0
M  V30 4 N 2.205990 -5.315849 1.180105 0
M  V30 5 C 1.924518 -3.909992 1.369761 0
M  V30 6 C 1.842827 -3.045061 0.298238 0
M  V30 7 C 1.568461 -1.726563 0.602937 0
M  V30 8 C 1.458338 -0.720514 -0.449084 0
M  V30 9 N 1.594285 -0.900455 -1.750994 0
M  V30 10 N 1.411267 0.293578 -2.327344 0
M  V30 11 C 1.162916 1.207588 -1.382503 0
M  V30 12 S 0.892147 2.858216 -1.953113 0
M  V30 13 C 0.568312 3.977609 -0.557705 0
M  V30 14 C -0.707530 3.632227 0.094554 0
M  V30 15 C -1.844170 4.276104 -0.407415 0
M  V30 16 C -3.092259 4.035598 0.119619 0
M  V30 17 C -3.256423 3.148823 1.162079 0
M  V30 18 C -2.153094 2.506427 1.669109 0
M  V30 19 C -0.908381 2.752627 1.136282 0
M  V30 20 O 1.200071 0.551461 -0.253052 0
M  V30 21 C 1.400283 -1.381114 1.927920 0
M  V30 22 C 1.483891 -2.253662 2.993490 0
M  V30 23 N 1.753255 -3.528785 2.647322 0
M  V30 24 H -0.316814 -7.631332 0.905268 0
M  V30 25 H 1.260456 -8.073796 1.579743 0
M  V30 26 H 1.102152 -7.810997 -0.174085 0
M  V30 27 H 3.075346 -5.926500 1.134372 0
M  V30 28 H 1.984923 -3.385310 -0.703727 0
M  V30 29 H 1.374188 3.736847 0.195443 0
M  V30 30 H 0.654899 5.027531 -0.836515 0
M  V30 31 H -1.820989 4.995251 -1.230362 0
M  V30 32 H -4.009118 4.500789 -0.223644 0
M  V30 33 H -4.201493 2.897577 1.639961 0
M  V30 34 H -2.206105 1.790162 2.494795 0
M  V30 35 H -0.027981 2.269503 1.507600 0
M  V30 36 H 1.184318 -0.324781 2.121424 0
M  V30 37 H 1.334876 -1.879064 3.996949 0
M  V30 END ATOM
M  V30 BEGIN BOND
M  V30 1 1 1 2
M  V30 2 2 2 3
M  V30 3 1 2 4
M  V30 4 1 4 5
M  V30 5 2 5 6
M  V30 6 1 6 7
M  V30 7 1 7 8
M  V30 8 2 8 9
M  V30 9 1 9 10
M  V30 10 2 10 11
M  V30 11 1 11 12
M  V30 12 1 12 13
M  V30 13 1 13 14
M  V30 14 2 14 15
M  V30 15 1 15 16
M  V30 16 2 16 17
M  V30 17 1 17 18
M  V30 18 2 18 19
M  V30 19 1 11 20
M  V30 20 2 7 21
M  V30 21 1 21 22
M  V30 22 2 22 23
M  V30 23 1 23 5
M  V30 24 1 20 8
M  V30 25 1 19 14
M  V30 26 1 1 24
M  V30 27 1 1 25
M  V30 28 1 1 26
M  V30 29 1 4 27
M  V30 30 1 6 28
M  V30 31 1 13 29
M  V30 32 1 13 30
M  V30 33 1 15 31
M  V30 34 1 16 32
M  V30 35 1 17 33
M  V30 36 1 18 34
M  V30 37 1 19 35
M  V30 38 1 21 36
M  V30 39 1 22 37
M  V30 END BOND
M  V30 END CTAB
M  END
>  <Dataset>  (987) 
ChEMBL_Kinases

>  <Ligand_Instance>  (987) 
nan

>  <PDB_ID>  (987) 
nan

>  <Standardized_SMILES>  (987) 
CC(=O)Nc1cc(-c2nnc(SCc3ccccc3)o2)ccn1

>  <Name>  (987) 
nan

>  <Pocket>  (987) 
nan

>  <ATP_Site>  (987) 
nan

>  <Peripheral>  (987) 
nan

>  <Num_H_Atoms_ProtBoundConf>  (987) 
nan

>  <Num_Resolved_Atoms>  (987) 
nan

>  <Num_Not_Resolved_Atoms>  (987) 
nan

$$$$
CHEMBL3703147
     RDKit          3D

  0  0  0  0  0  0  0  0  0  0999 V3000
M  V30 BEGIN CTAB
M  V30 COUNTS 54 58 0 0 0
M  V30 BEGIN ATOM
M  V30 1 C 3.412512 -7.808524 -0.067855 0
M  V30 2 C 3.346480 -6.316145 -0.225742 0
M  V30 3 O 3.254488 -5.800802 0.940573 0
M  V30 4 N 3.370720 -5.486668 -1.389408 0
M  V30 5 C 3.274318 -4.138333 -0.885041 0
M  V30 6 C 4.435280 -3.457279 -0.587947 0
M  V30 7 C 4.205692 -2.168511 -0.110550 0
M  V30 8 C 2.914582 -1.675902 0.029876 0
M  V30 9 N 2.521192 -0.464511 0.472138 0
M  V30 10 C 1.159625 -0.411679 0.444305 0
M  V30 11 C 0.230785 0.652787 0.812391 0
M  V30 12 C 0.186611 1.136916 2.123376 0
M  V30 13 C -0.700902 2.148907 2.458993 0
M  V30 14 C -1.563373 2.703178 1.504669 0
M  V30 15 C -2.439857 3.771635 2.039416 0
M  V30 16 N -2.855297 3.496737 3.425317 0
M  V30 17 C -1.871937 5.179304 1.950306 0
M  V30 18 C -3.230406 5.669916 1.435711 0
M  V30 19 C -3.583167 4.216251 1.194474 0
M  V30 20 C -1.482692 2.193421 0.227726 0
M  V30 21 C -0.614319 1.190342 -0.139361 0
M  V30 22 C 0.757629 -1.639209 -0.031910 0
M  V30 23 C -0.595743 -2.073921 -0.243424 0
M  V30 24 C -0.928543 -2.419245 -1.544858 0
M  V30 25 C -2.220950 -2.851186 -1.837809 0
M  V30 26 C -3.104885 -2.908039 -0.788421 0
M  V30 27 C -2.774956 -2.565464 0.503222 0
M  V30 28 C -1.512317 -2.140909 0.802744 0
M  V30 29 N 1.841915 -2.422441 -0.288804 0
M  V30 30 C 1.982446 -3.676785 -0.756366 0
M  V30 31 H 3.578602 -8.301679 -1.043545 0
M  V30 32 H 2.474812 -8.144356 0.420247 0
M  V30 33 H 4.223988 -8.070285 0.659849 0
M  V30 34 H 3.449523 -6.093105 -2.237609 0
M  V30 35 H 5.406720 -3.909806 -0.724505 0
M  V30 36 H 5.086128 -1.567464 0.146792 0
M  V30 37 H 0.876619 0.665300 2.802942 0
M  V30 38 H -0.604366 2.408180 3.524978 0
M  V30 39 H -2.081013 3.691863 4.097837 0
M  V30 40 H -3.109680 2.485736 3.480524 0
M  V30 41 H -1.048789 5.279720 1.201521 0
M  V30 42 H -1.544431 5.629677 2.896764 0
M  V30 43 H -3.811202 6.189597 2.214012 0
M  V30 44 H -3.101807 6.281475 0.516516 0
M  V30 45 H -3.615776 3.912432 0.143236 0
M  V30 46 H -4.598425 4.018647 1.646959 0
M  V30 47 H -2.158955 2.646699 -0.466914 0
M  V30 48 H -0.631096 0.864485 -1.163017 0
M  V30 49 H -0.232692 -2.374525 -2.370175 0
M  V30 50 H -2.479813 -3.120351 -2.852484 0
M  V30 51 H -4.107375 -3.245724 -1.030798 0
M  V30 52 H -3.481314 -2.615695 1.316377 0
M  V30 53 H -1.131630 -1.847226 1.760265 0
M  V30 54 H 1.117998 -4.240891 -0.998813 0
M  V30 END ATOM
M  V30 BEGIN BOND
M  V30 1 1 1 2
M  V30 2 2 2 3
M  V30 3 1 2 4
M  V30 4 1 4 5
M  V30 5 1 5 6
M  V30 6 2 6 7
M  V30 7 1 7 8
M  V30 8 2 8 9
M  V30 9 1 9 10
M  V30 10 1 10 11
M  V30 11 2 11 12
M  V30 12 1 12 13
M  V30 13 2 13 14
M  V30 14 1 14 15
M  V30 15 1 15 16
M  V30 16 1 15 17
M  V30 17 1 17 18
M  V30 18 1 18 19
M  V30 19 1 14 20
M  V30 20 2 20 21
M  V30 21 2 10 22
M  V30 22 1 22 23
M  V30 23 2 23 24
M  V30 24 1 24 25
M  V30 25 2 25 26
M  V30 26 1 26 27
M  V30 27 2 27 28
M  V30 28 1 22 29
M  V30 29 1 29 30
M  V30 30 2 30 5
M  V30 31 1 29 8
M  V30 32 1 21 11
M  V30 33 1 28 23
M  V30 34 1 19 15
M  V30 35 1 1 31
M  V30 36 1 1 32
M  V30 37 1 1 33
M  V30 38 1 4 34
M  V30 39 1 6 35
M  V30 40 1 7 36
M  V30 41 1 12 37
M  V30 42 1 13 38
M  V30 43 1 16 39
M  V30 44 1 16 40
M  V30 45 1 17 41
M  V30 46 1 17 42
M  V30 47 1 18 43
M  V30 48 1 18 44
M  V30 49 1 19 45
M  V30 50 1 19 46
M  V30 51 1 20 47
M  V30 52 1 21 48
M  V30 53 1 24 49
M  V30 54 1 25 50
M  V30 55 1 26 51
M  V30 56 1 27 52
M  V30 57 1 28 53
M  V30 58 1 30 54
M  V30 END BOND
M  V30 END CTAB
M  END
>  <Dataset>  (988) 
ChEMBL_Kinases

>  <Ligand_Instance>  (988) 
nan

>  <PDB_ID>  (988) 
nan

>  <Standardized_SMILES>  (988) 
CC(=O)Nc1ccc2nc(-c3ccc(C4(N)CCC4)cc3)c(-c3ccccc3)n2c1

>  <Name>  (988) 
nan

>  <Pocket>  (988) 
nan

>  <ATP_Site>  (988) 
nan

>  <Peripheral>  (988) 
nan

>  <Num_H_Atoms_ProtBoundConf>  (988) 
nan

>  <Num_Resolved_Atoms>  (988) 
nan

>  <Num_Not_Resolved_Atoms>  (988) 
nan

$$$$
CHEMBL2392105
     RDKit          3D

  0  0  0  0  0  0  0  0  0  0999 V3000
M  V30 BEGIN CTAB
M  V30 COUNTS 38 41 0 0 0
M  V30 BEGIN ATOM
M  V30 1 C 0.519506 -3.773782 4.490298 0
M  V30 2 C 1.122293 -3.280852 3.225112 0
M  V30 3 C 2.059512 -3.997565 2.505951 0
M  V30 4 C 2.593008 -3.499751 1.334612 0
M  V30 5 C 2.209651 -2.270339 0.841100 0
M  V30 6 N 2.467727 -1.462627 -0.202361 0
M  V30 7 C 1.773358 -0.329761 -0.175813 0
M  V30 8 C 1.828831 0.745075 -1.158405 0
M  V30 9 N 2.610831 0.760913 -2.252592 0
M  V30 10 N 2.434409 1.883755 -2.936437 0
M  V30 11 C 1.516094 2.611258 -2.268266 0
M  V30 12 C 1.114497 1.922441 -1.144474 0
M  V30 13 N 0.165472 2.392380 -0.216106 0
M  V30 14 C -1.106662 1.876383 0.202895 0
M  V30 15 C -1.840617 2.532189 1.166472 0
M  V30 16 C -3.050290 1.988014 1.515500 0
M  V30 17 Cl -3.997575 2.805274 2.736647 0
M  V30 18 N -3.505022 0.858023 0.941124 0
M  V30 19 C -2.793892 0.210495 -0.001654 0
M  V30 20 C -3.201516 -1.038723 -0.696493 0
M  V30 21 N -1.610995 0.752611 -0.335364 0
M  V30 22 N 1.042784 -0.436791 0.944696 0
M  V30 23 C 1.273408 -1.591698 1.590871 0
M  V30 24 C 0.708797 -2.045139 2.768835 0
M  V30 25 H 1.102549 -3.450399 5.377706 0
M  V30 26 H -0.519591 -3.351721 4.599434 0
M  V30 27 H 0.377739 -4.874134 4.488687 0
M  V30 28 H 2.369547 -4.961379 2.879198 0
M  V30 29 H 3.336573 -4.041761 0.741656 0
M  V30 30 H 3.162798 -1.743178 -0.946751 0
M  V30 31 H 2.902391 2.185526 -3.832511 0
M  V30 32 H 1.146005 3.591515 -2.566436 0
M  V30 33 H 0.503969 3.282309 0.214588 0
M  V30 34 H -1.436534 3.437978 1.602021 0
M  V30 35 H -4.006980 -1.557337 -0.150158 0
M  V30 36 H -2.285964 -1.688194 -0.763858 0
M  V30 37 H -3.492738 -0.801838 -1.740734 0
M  V30 38 H -0.018655 -1.460304 3.303191 0
M  V30 END ATOM
M  V30 BEGIN BOND
M  V30 1 1 1 2
M  V30 2 2 2 3
M  V30 3 1 3 4
M  V30 4 2 4 5
M  V30 5 1 5 6
M  V30 6 1 6 7
M  V30 7 1 7 8
M  V30 8 2 8 9
M  V30 9 1 9 10
M  V30 10 1 10 11
M  V30 11 2 11 12
M  V30 12 1 12 13
M  V30 13 1 13 14
M  V30 14 2 14 15
M  V30 15 1 15 16
M  V30 16 1 16 17
M  V30 17 2 16 18
M  V30 18 1 18 19
M  V30 19 1 19 20
M  V30 20 2 19 21
M  V30 21 2 7 22
M  V30 22 1 22 23
M  V30 23 2 23 24
M  V30 24 1 24 2
M  V30 25 1 23 5
M  V30 26 1 12 8
M  V30 27 1 21 14
M  V30 28 1 1 25
M  V30 29 1 1 26
M  V30 30 1 1 27
M  V30 31 1 3 28
M  V30 32 1 4 29
M  V30 33 1 6 30
M  V30 34 1 10 31
M  V30 35 1 11 32
M  V30 36 1 13 33
M  V30 37 1 15 34
M  V30 38 1 20 35
M  V30 39 1 20 36
M  V30 40 1 20 37
M  V30 41 1 24 38
M  V30 END BOND
M  V30 END CTAB
M  END
>  <Dataset>  (989) 
ChEMBL_Kinases

>  <Ligand_Instance>  (989) 
nan

>  <PDB_ID>  (989) 
nan

>  <Standardized_SMILES>  (989) 
Cc1ccc2[nH]c(-c3n[nH]cc3Nc3cc(Cl)nc(C)n3)nc2c1

>  <Name>  (989) 
nan

>  <Pocket>  (989) 
nan

>  <ATP_Site>  (989) 
nan

>  <Peripheral>  (989) 
nan

>  <Num_H_Atoms_ProtBoundConf>  (989) 
nan

>  <Num_Resolved_Atoms>  (989) 
nan

>  <Num_Not_Resolved_Atoms>  (989) 
nan

$$$$
CHEMBL2392106
     RDKit          3D

  0  0  0  0  0  0  0  0  0  0999 V3000
M  V30 BEGIN CTAB
M  V30 COUNTS 39 42 0 0 0
M  V30 BEGIN ATOM
M  V30 1 C 1.906343 -5.676881 0.888325 0
M  V30 2 S 3.481257 -4.801201 0.724052 0
M  V30 3 C 3.169735 -3.053116 0.890368 0
M  V30 4 N 3.227338 -2.546096 2.140924 0
M  V30 5 C 2.999931 -1.220266 2.339821 0
M  V30 6 Cl 3.045638 -0.445844 3.905506 0
M  V30 7 C 2.720347 -0.484314 1.204404 0
M  V30 8 C 2.657775 -0.976021 -0.062692 0
M  V30 9 N 2.375979 -0.247682 -1.224465 0
M  V30 10 C 2.056958 1.124036 -1.399165 0
M  V30 11 C 2.817078 2.030589 -2.135395 0
M  V30 12 N 2.241969 3.263838 -2.115095 0
M  V30 13 N 1.145388 3.159355 -1.389706 0
M  V30 14 C 1.009196 1.905745 -0.953171 0
M  V30 15 C -0.090593 1.402798 -0.134028 0
M  V30 16 N -0.357737 0.181345 0.353914 0
M  V30 17 C -1.493241 0.148266 1.072086 0
M  V30 18 C -2.114014 -0.907911 1.737502 0
M  V30 19 C -3.306579 -0.591232 2.399264 0
M  V30 20 C -3.960489 -1.732506 3.107818 0
M  V30 21 C -3.834353 0.698606 2.389975 0
M  V30 22 C -3.179200 1.710295 1.714781 0
M  V30 23 C -2.000964 1.430412 1.052301 0
M  V30 24 N -1.123246 2.137149 0.318125 0
M  V30 25 N 2.892077 -2.282127 -0.175566 0
M  V30 26 H 1.222834 -5.365846 0.092406 0
M  V30 27 H 2.034609 -6.771063 0.864706 0
M  V30 28 H 1.469737 -5.343109 1.860367 0
M  V30 29 H 2.535227 0.585161 1.351240 0
M  V30 30 H 2.372424 -0.687659 -2.169306 0
M  V30 31 H 3.750666 1.877795 -2.685380 0
M  V30 32 H 2.577205 4.137884 -2.571883 0
M  V30 33 H -1.685981 -1.889417 1.728041 0
M  V30 34 H -4.176203 -2.555788 2.379538 0
M  V30 35 H -3.260412 -2.184229 3.840552 0
M  V30 36 H -4.885642 -1.436790 3.618326 0
M  V30 37 H -4.767026 0.883837 2.923910 0
M  V30 38 H -3.582938 2.715990 1.702671 0
M  V30 39 H -1.304129 3.165190 0.161039 0
M  V30 END ATOM
M  V30 BEGIN BOND
M  V30 1 1 1 2
M  V30 2 1 2 3
M  V30 3 2 3 4
M  V30 4 1 4 5
M  V30 5 1 5 6
M  V30 6 2 5 7
M  V30 7 1 7 8
M  V30 8 1 8 9
M  V30 9 1 9 10
M  V30 10 2 10 11
M  V30 11 1 11 12
M  V30 12 1 12 13
M  V30 13 2 13 14
M  V30 14 1 14 15
M  V30 15 2 15 16
M  V30 16 1 16 17
M  V30 17 2 17 18
M  V30 18 1 18 19
M  V30 19 1 19 20
M  V30 20 2 19 21
M  V30 21 1 21 22
M  V30 22 2 22 23
M  V30 23 1 23 24
M  V30 24 2 8 25
M  V30 25 1 25 3
M  V30 26 1 14 10
M  V30 27 1 24 15
M  V30 28 1 23 17
M  V30 29 1 1 26
M  V30 30 1 1 27
M  V30 31 1 1 28
M  V30 32 1 7 29
M  V30 33 1 9 30
M  V30 34 1 11 31
M  V30 35 1 12 32
M  V30 36 1 18 33
M  V30 37 1 20 34
M  V30 38 1 20 35
M  V30 39 1 20 36
M  V30 40 1 21 37
M  V30 41 1 22 38
M  V30 42 1 24 39
M  V30 END BOND
M  V30 END CTAB
M  END
>  <Dataset>  (990) 
ChEMBL_Kinases

>  <Ligand_Instance>  (990) 
nan

>  <PDB_ID>  (990) 
nan

>  <Standardized_SMILES>  (990) 
CSc1nc(Cl)cc(Nc2c[nH]nc2-c2nc3cc(C)ccc3[nH]2)n1

>  <Name>  (990) 
nan

>  <Pocket>  (990) 
nan

>  <ATP_Site>  (990) 
nan

>  <Peripheral>  (990) 
nan

>  <Num_H_Atoms_ProtBoundConf>  (990) 
nan

>  <Num_Resolved_Atoms>  (990) 
nan

>  <Num_Not_Resolved_Atoms>  (990) 
nan

$$$$
CHEMBL2392109
     RDKit          3D

  0  0  0  0  0  0  0  0  0  0999 V3000
M  V30 BEGIN CTAB
M  V30 COUNTS 53 56 0 0 0
M  V30 BEGIN ATOM
M  V30 1 C 4.796916 -3.605307 3.656410 0
M  V30 2 C 3.762200 -2.614859 3.174142 0
M  V30 3 N 4.187622 -1.279035 3.148532 0
M  V30 4 C 4.440220 -0.610175 4.363532 0
M  V30 5 C 3.096129 -0.440194 5.067711 0
M  V30 6 C 4.324895 -0.593661 1.931376 0
M  V30 7 C 3.075045 -0.483212 1.138238 0
M  V30 8 C 2.674163 -1.376184 0.167413 0
M  V30 9 C 1.503437 -1.255874 -0.550785 0
M  V30 10 C 0.690761 -0.175937 -0.276698 0
M  V30 11 N -0.486658 0.259570 -0.754944 0
M  V30 12 C -0.902849 1.384167 -0.170733 0
M  V30 13 C -2.059968 2.241363 -0.327755 0
M  V30 14 N -2.298703 3.390450 0.321187 0
M  V30 15 N -3.425216 3.955487 -0.061878 0
M  V30 16 C -3.986672 3.177083 -1.004091 0
M  V30 17 C -3.126250 2.088022 -1.176735 0
M  V30 18 N -3.479796 1.110945 -2.112201 0
M  V30 19 C -3.757736 -0.263680 -1.889739 0
M  V30 20 C -3.694585 -0.805507 -0.624494 0
M  V30 21 C -3.966106 -2.154587 -0.375892 0
M  V30 22 Cl -3.883643 -2.828804 1.237700 0
M  V30 23 N -4.296194 -2.902958 -1.452606 0
M  V30 24 C -4.363535 -2.396226 -2.692806 0
M  V30 25 S -4.801300 -3.416435 -4.077961 0
M  V30 26 C -6.612314 -3.427866 -4.343342 0
M  V30 27 N -4.091637 -1.085866 -2.879221 0
M  V30 28 N 0.075100 1.646963 0.710691 0
M  V30 29 C 1.055990 0.736820 0.684424 0
M  V30 30 C 2.234102 0.596322 1.392245 0
M  V30 31 H 4.250273 -4.413126 4.190915 0
M  V30 32 H 5.328422 -4.083459 2.801162 0
M  V30 33 H 5.540844 -3.196996 4.343019 0
M  V30 34 H 2.875237 -2.678470 3.856751 0
M  V30 35 H 3.417164 -2.949540 2.197496 0
M  V30 36 H 4.947089 0.363091 4.225446 0
M  V30 37 H 5.084674 -1.173548 5.078212 0
M  V30 38 H 2.948667 0.593661 5.429449 0
M  V30 39 H 2.991314 -1.165668 5.909767 0
M  V30 40 H 2.243382 -0.673927 4.393485 0
M  V30 41 H 4.780929 0.401181 2.124731 0
M  V30 42 H 5.057807 -1.154182 1.276544 0
M  V30 43 H 3.304165 -2.221109 -0.057926 0
M  V30 44 H 1.200632 -1.961797 -1.307844 0
M  V30 45 H -0.981150 -0.246537 -1.498524 0
M  V30 46 H -3.741924 4.865032 0.362315 0
M  V30 47 H -4.941480 3.448109 -1.476957 0
M  V30 48 H -3.542913 1.459226 -3.116230 0
M  V30 49 H -3.428330 -0.181950 0.217723 0
M  V30 50 H -7.119350 -3.019700 -3.455177 0
M  V30 51 H -6.816897 -2.790758 -5.221367 0
M  V30 52 H -6.935087 -4.474741 -4.561956 0
M  V30 53 H 2.439183 1.370400 2.134847 0
M  V30 END ATOM
M  V30 BEGIN BOND
M  V30 1 1 1 2
M  V30 2 1 2 3
M  V30 3 1 3 4
M  V30 4 1 4 5
M  V30 5 1 3 6
M  V30 6 1 6 7
M  V30 7 2 7 8
M  V30 8 1 8 9
M  V30 9 2 9 10
M  V30 10 1 10 11
M  V30 11 1 11 12
M  V30 12 1 12 13
M  V30 13 2 13 14
M  V30 14 1 14 15
M  V30 15 1 15 16
M  V30 16 2 16 17
M  V30 17 1 17 18
M  V30 18 1 18 19
M  V30 19 2 19 20
M  V30 20 1 20 21
M  V30 21 1 21 22
M  V30 22 2 21 23
M  V30 23 1 23 24
M  V30 24 1 24 25
M  V30 25 1 25 26
M  V30 26 2 24 27
M  V30 27 2 12 28
M  V30 28 1 28 29
M  V30 29 2 29 30
M  V30 30 1 30 7
M  V30 31 1 29 10
M  V30 32 1 17 13
M  V30 33 1 27 19
M  V30 34 1 1 31
M  V30 35 1 1 32
M  V30 36 1 1 33
M  V30 37 1 2 34
M  V30 38 1 2 35
M  V30 39 1 4 36
M  V30 40 1 4 37
M  V30 41 1 5 38
M  V30 42 1 5 39
M  V30 43 1 5 40
M  V30 44 1 6 41
M  V30 45 1 6 42
M  V30 46 1 8 43
M  V30 47 1 9 44
M  V30 48 1 11 45
M  V30 49 1 15 46
M  V30 50 1 16 47
M  V30 51 1 18 48
M  V30 52 1 20 49
M  V30 53 1 26 50
M  V30 54 1 26 51
M  V30 55 1 26 52
M  V30 56 1 30 53
M  V30 END BOND
M  V30 END CTAB
M  END
>  <Dataset>  (991) 
ChEMBL_Kinases

>  <Ligand_Instance>  (991) 
nan

>  <PDB_ID>  (991) 
nan

>  <Standardized_SMILES>  (991) 
CCN(CC)Cc1ccc2[nH]c(-c3n[nH]cc3Nc3cc(Cl)nc(SC)n3)nc2c1

>  <Name>  (991) 
nan

>  <Pocket>  (991) 
nan

>  <ATP_Site>  (991) 
nan

>  <Peripheral>  (991) 
nan

>  <Num_H_Atoms_ProtBoundConf>  (991) 
nan

>  <Num_Resolved_Atoms>  (991) 
nan

>  <Num_Not_Resolved_Atoms>  (991) 
nan

$$$$
CHEMBL2392110
     RDKit          3D

  0  0  0  0  0  0  0  0  0  0999 V3000
M  V30 BEGIN CTAB
M  V30 COUNTS 71 76 0 0 0
M  V30 BEGIN ATOM
M  V30 1 C 4.181879 -8.523516 1.629002 0
M  V30 2 C 3.694014 -7.711078 0.452722 0
M  V30 3 N 3.076222 -6.507367 0.793142 0
M  V30 4 C 1.834286 -6.472950 1.430684 0
M  V30 5 C 1.885579 -6.968844 2.838637 0
M  V30 6 C 3.588546 -5.352798 0.169238 0
M  V30 7 C 2.888385 -4.087754 0.568516 0
M  V30 8 C 1.803327 -3.656969 -0.191516 0
M  V30 9 C 1.189386 -2.484004 0.221512 0
M  V30 10 C 1.641806 -1.793352 1.327930 0
M  V30 11 N 1.240341 -0.661461 1.929771 0
M  V30 12 C 1.980099 -0.355236 2.993647 0
M  V30 13 C 2.024550 0.694871 3.983934 0
M  V30 14 N 2.846870 0.915295 5.011778 0
M  V30 15 N 2.522743 2.021206 5.647674 0
M  V30 16 C 1.447059 2.543729 5.011209 0
M  V30 17 C 1.109617 1.712307 3.943818 0
M  V30 18 N -0.000428 2.188130 3.236051 0
M  V30 19 C -1.323759 1.826062 2.889141 0
M  V30 20 C -2.177988 2.254779 3.914033 0
M  V30 21 C -3.563607 2.057151 3.886010 0
M  V30 22 Cl -4.670145 2.572648 5.137765 0
M  V30 23 N -4.053161 1.417381 2.797425 0
M  V30 24 C -3.250832 0.998496 1.804068 0
M  V30 25 S -3.757390 0.147856 0.316481 0
M  V30 26 C -4.118362 1.363963 -0.945878 0
M  V30 27 C -4.033815 2.738246 -0.836687 0
M  V30 28 C -4.351209 3.512784 -1.921678 0
M  V30 29 C -4.752586 2.937749 -3.116685 0
M  V30 30 N -5.070815 3.813791 -4.217525 0
M  V30 31 C -3.875284 4.032236 -4.960633 0
M  V30 32 O -2.798484 3.468147 -4.572045 0
M  V30 33 C -3.796944 4.895856 -6.190334 0
M  V30 34 C -2.512613 5.745714 -6.229335 0
M  V30 35 C -2.754777 4.648048 -7.196189 0
M  V30 36 C -4.850204 1.568282 -3.267234 0
M  V30 37 C -4.523818 0.794985 -2.154065 0
M  V30 38 N -1.931636 1.209072 1.873027 0
M  V30 39 N 2.884839 -1.346297 3.053570 0
M  V30 40 C 2.717652 -2.238953 2.064870 0
M  V30 41 C 3.351019 -3.405017 1.678518 0
M  V30 42 H 4.820971 -9.359092 1.210538 0
M  V30 43 H 3.364488 -9.043502 2.150613 0
M  V30 44 H 4.827604 -7.935738 2.299626 0
M  V30 45 H 3.073997 -8.379092 -0.205579 0
M  V30 46 H 4.627733 -7.468647 -0.137836 0
M  V30 47 H 1.382579 -5.445240 1.444693 0
M  V30 48 H 1.080810 -7.132445 0.905092 0
M  V30 49 H 1.426871 -7.969045 2.985667 0
M  V30 50 H 1.280195 -6.294348 3.511659 0
M  V30 51 H 2.891670 -6.995785 3.287408 0
M  V30 52 H 3.581578 -5.373195 -0.939434 0
M  V30 53 H 4.663555 -5.221338 0.481313 0
M  V30 54 H 1.456575 -4.209552 -1.060588 0
M  V30 55 H 0.337615 -2.082722 -0.317851 0
M  V30 56 H 0.461091 -0.070506 1.631371 0
M  V30 57 H 3.097175 2.297698 6.472203 0
M  V30 58 H 1.093650 3.479206 5.468786 0
M  V30 59 H 0.031559 3.130105 2.739042 0
M  V30 60 H -1.910043 2.782201 4.845976 0
M  V30 61 H -3.709412 3.079389 0.143046 0
M  V30 62 H -4.269068 4.592610 -1.786962 0
M  V30 63 H -5.933479 4.292826 -4.566612 0
M  V30 64 H -4.738559 5.368913 -6.502557 0
M  V30 65 H -2.701311 6.800406 -6.497171 0
M  V30 66 H -1.742116 5.575852 -5.454991 0
M  V30 67 H -2.949695 4.988640 -8.236011 0
M  V30 68 H -2.049504 3.786987 -7.152700 0
M  V30 69 H -5.162515 1.155386 -4.201637 0
M  V30 70 H -4.619668 -0.279194 -2.332712 0
M  V30 71 H 4.182567 -3.713401 2.280842 0
M  V30 END ATOM
M  V30 BEGIN BOND
M  V30 1 1 1 2
M  V30 2 1 2 3
M  V30 3 1 3 4
M  V30 4 1 4 5
M  V30 5 1 3 6
M  V30 6 1 6 7
M  V30 7 2 7 8
M  V30 8 1 8 9
M  V30 9 2 9 10
M  V30 10 1 10 11
M  V30 11 1 11 12
M  V30 12 1 12 13
M  V30 13 2 13 14
M  V30 14 1 14 15
M  V30 15 1 15 16
M  V30 16 2 16 17
M  V30 17 1 17 18
M  V30 18 1 18 19
M  V30 19 2 19 20
M  V30 20 1 20 21
M  V30 21 1 21 22
M  V30 22 2 21 23
M  V30 23 1 23 24
M  V30 24 1 24 25
M  V30 25 1 25 26
M  V30 26 2 26 27
M  V30 27 1 27 28
M  V30 28 2 28 29
M  V30 29 1 29 30
M  V30 30 1 30 31
M  V30 31 2 31 32
M  V30 32 1 31 33
M  V30 33 1 33 34
M  V30 34 1 34 35
M  V30 35 1 29 36
M  V30 36 2 36 37
M  V30 37 2 24 38
M  V30 38 2 12 39
M  V30 39 1 39 40
M  V30 40 2 40 41
M  V30 41 1 41 7
M  V30 42 1 40 10
M  V30 43 1 17 13
M  V30 44 1 38 19
M  V30 45 1 37 26
M  V30 46 1 35 33
M  V30 47 1 1 42
M  V30 48 1 1 43
M  V30 49 1 1 44
M  V30 50 1 2 45
M  V30 51 1 2 46
M  V30 52 1 4 47
M  V30 53 1 4 48
M  V30 54 1 5 49
M  V30 55 1 5 50
M  V30 56 1 5 51
M  V30 57 1 6 52
M  V30 58 1 6 53
M  V30 59 1 8 54
M  V30 60 1 9 55
M  V30 61 1 11 56
M  V30 62 1 15 57
M  V30 63 1 16 58
M  V30 64 1 18 59
M  V30 65 1 20 60
M  V30 66 1 27 61
M  V30 67 1 28 62
M  V30 68 1 30 63
M  V30 69 1 33 64
M  V30 70 1 34 65
M  V30 71 1 34 66
M  V30 72 1 35 67
M  V30 73 1 35 68
M  V30 74 1 36 69
M  V30 75 1 37 70
M  V30 76 1 41 71
M  V30 END BOND
M  V30 END CTAB
M  END
>  <Dataset>  (992) 
ChEMBL_Kinases

>  <Ligand_Instance>  (992) 
nan

>  <PDB_ID>  (992) 
nan

>  <Standardized_SMILES>  (992) 
CCN(CC)Cc1ccc2[nH]c(-c3n[nH]cc3Nc3cc(Cl)nc(Sc4ccc(NC(=O)C5CC5)cc4)n3)nc2c1

>  <Name>  (992) 
nan

>  <Pocket>  (992) 
nan

>  <ATP_Site>  (992) 
nan

>  <Peripheral>  (992) 
nan

>  <Num_H_Atoms_ProtBoundConf>  (992) 
nan

>  <Num_Resolved_Atoms>  (992) 
nan

>  <Num_Not_Resolved_Atoms>  (992) 
nan

$$$$
CHEMBL2392111
     RDKit          3D

  0  0  0  0  0  0  0  0  0  0999 V3000
M  V30 BEGIN CTAB
M  V30 COUNTS 54 58 0 0 0
M  V30 BEGIN ATOM
M  V30 1 C 1.872563 -1.950314 3.132685 0
M  V30 2 S 3.401040 -1.811458 2.255425 0
M  V30 3 O 4.493301 -2.378144 3.143911 0
M  V30 4 O 3.361582 -2.591134 0.971964 0
M  V30 5 C 3.773051 -0.160786 1.891310 0
M  V30 6 N 4.487211 0.635577 2.726789 0
M  V30 7 C 4.781558 1.913636 2.430379 0
M  V30 8 Cl 5.698115 2.921735 3.513875 0
M  V30 9 C 4.337292 2.433586 1.224626 0
M  V30 10 C 3.612671 1.614479 0.384817 0
M  V30 11 N 3.215677 2.229310 -0.827952 0
M  V30 12 C 2.264076 3.121870 -1.387242 0
M  V30 13 C 2.732958 4.259483 -2.009088 0
M  V30 14 N 1.597040 4.890269 -2.415720 0
M  V30 15 N 0.549728 4.194705 -2.069313 0
M  V30 16 C 0.892584 3.072692 -1.420215 0
M  V30 17 C 0.050800 2.029784 -0.862217 0
M  V30 18 N 0.334815 0.895758 -0.203251 0
M  V30 19 C -0.826578 0.262293 0.121398 0
M  V30 20 C -1.200250 -0.891304 0.776414 0
M  V30 21 C -2.536728 -1.252020 0.944531 0
M  V30 22 C -2.923546 -2.489428 1.655705 0
M  V30 23 N -3.077152 -3.651499 0.886706 0
M  V30 24 C -3.405672 -4.858718 1.589140 0
M  V30 25 C -3.963112 -5.869111 0.599475 0
M  V30 26 O -3.062955 -6.133325 -0.407819 0
M  V30 27 C -2.704228 -4.995284 -1.123658 0
M  V30 28 C -2.199425 -3.909570 -0.186354 0
M  V30 29 C -3.547907 -0.453699 0.452410 0
M  V30 30 C -3.219043 0.690888 -0.198948 0
M  V30 31 C -1.887557 1.020251 -0.348705 0
M  V30 32 N -1.291076 2.090606 -0.942121 0
M  V30 33 N 3.344099 0.345285 0.725943 0
M  V30 34 H 1.166805 -2.624859 2.567697 0
M  V30 35 H 2.030048 -2.332822 4.152270 0
M  V30 36 H 1.413942 -0.935695 3.199425 0
M  V30 37 H 4.576675 3.480528 0.976733 0
M  V30 38 H 3.938575 1.813029 -1.483658 0
M  V30 39 H 3.647454 4.758371 -2.250990 0
M  V30 40 H 1.359755 5.772879 -2.924803 0
M  V30 41 H -0.400400 -1.510488 1.156624 0
M  V30 42 H -3.911921 -2.318277 2.191457 0
M  V30 43 H -2.225376 -2.701819 2.517777 0
M  V30 44 H -2.454674 -5.310098 1.964268 0
M  V30 45 H -4.125798 -4.704431 2.413108 0
M  V30 46 H -4.077063 -6.827101 1.185277 0
M  V30 47 H -4.989274 -5.628455 0.266405 0
M  V30 48 H -3.505618 -4.592016 -1.736230 0
M  V30 49 H -1.858953 -5.267244 -1.785971 0
M  V30 50 H -1.957817 -3.031997 -0.817340 0
M  V30 51 H -1.230840 -4.276179 0.219487 0
M  V30 52 H -4.594649 -0.697322 0.561905 0
M  V30 53 H -3.999148 1.326403 -0.589064 0
M  V30 54 H -1.865698 2.857730 -1.400579 0
M  V30 END ATOM
M  V30 BEGIN BOND
M  V30 1 1 1 2
M  V30 2 2 2 3
M  V30 3 2 2 4
M  V30 4 1 2 5
M  V30 5 2 5 6
M  V30 6 1 6 7
M  V30 7 1 7 8
M  V30 8 2 7 9
M  V30 9 1 9 10
M  V30 10 1 10 11
M  V30 11 1 11 12
M  V30 12 2 12 13
M  V30 13 1 13 14
M  V30 14 1 14 15
M  V30 15 2 15 16
M  V30 16 1 16 17
M  V30 17 2 17 18
M  V30 18 1 18 19
M  V30 19 2 19 20
M  V30 20 1 20 21
M  V30 21 1 21 22
M  V30 22 1 22 23
M  V30 23 1 23 24
M  V30 24 1 24 25
M  V30 25 1 25 26
M  V30 26 1 26 27
M  V30 27 1 27 28
M  V30 28 2 21 29
M  V30 29 1 29 30
M  V30 30 2 30 31
M  V30 31 1 31 32
M  V30 32 2 10 33
M  V30 33 1 33 5
M  V30 34 1 16 12
M  V30 35 1 32 17
M  V30 36 1 31 19
M  V30 37 1 28 23
M  V30 38 1 1 34
M  V30 39 1 1 35
M  V30 40 1 1 36
M  V30 41 1 9 37
M  V30 42 1 11 38
M  V30 43 1 13 39
M  V30 44 1 14 40
M  V30 45 1 20 41
M  V30 46 1 22 42
M  V30 47 1 22 43
M  V30 48 1 24 44
M  V30 49 1 24 45
M  V30 50 1 25 46
M  V30 51 1 25 47
M  V30 52 1 27 48
M  V30 53 1 27 49
M  V30 54 1 28 50
M  V30 55 1 28 51
M  V30 56 1 29 52
M  V30 57 1 30 53
M  V30 58 1 32 54
M  V30 END BOND
M  V30 END CTAB
M  END
>  <Dataset>  (993) 
ChEMBL_Kinases

>  <Ligand_Instance>  (993) 
nan

>  <PDB_ID>  (993) 
nan

>  <Standardized_SMILES>  (993) 
CS(=O)(=O)c1nc(Cl)cc(Nc2c[nH]nc2-c2nc3cc(CN4CCOCC4)ccc3[nH]2)n1

>  <Name>  (993) 
nan

>  <Pocket>  (993) 
nan

>  <ATP_Site>  (993) 
nan

>  <Peripheral>  (993) 
nan

>  <Num_H_Atoms_ProtBoundConf>  (993) 
nan

>  <Num_Resolved_Atoms>  (993) 
nan

>  <Num_Not_Resolved_Atoms>  (993) 
nan

$$$$
CHEMBL2392112
     RDKit          3D

  0  0  0  0  0  0  0  0  0  0999 V3000
M  V30 BEGIN CTAB
M  V30 COUNTS 41 44 0 0 0
M  V30 BEGIN ATOM
M  V30 1 C -0.910366 -5.393828 2.512661 0
M  V30 2 C -0.686623 -4.495984 1.334163 0
M  V30 3 C -1.264561 -4.789811 0.121576 0
M  V30 4 C -1.075860 -3.980942 -0.980881 0
M  V30 5 C -0.293183 -2.861800 -0.854584 0
M  V30 6 N 0.107212 -1.873681 -1.663335 0
M  V30 7 C 0.898191 -0.971146 -1.055517 0
M  V30 8 C 1.482455 0.207295 -1.682322 0
M  V30 9 N 1.336401 0.576373 -2.957520 0
M  V30 10 N 2.002695 1.688927 -3.206364 0
M  V30 11 C 2.606418 2.062121 -2.054175 0
M  V30 12 C 2.293987 1.146363 -1.081647 0
M  V30 13 N 2.752892 1.209910 0.262620 0
M  V30 14 C 2.072287 1.317508 1.508083 0
M  V30 15 C 2.798401 1.338676 2.697985 0
M  V30 16 C 2.044413 1.450678 3.846683 0
M  V30 17 Cl 2.948137 1.478670 5.355558 0
M  V30 18 N 0.702236 1.536433 3.868795 0
M  V30 19 C 0.028701 1.513998 2.714716 0
M  V30 20 S -1.710863 1.614250 2.548783 0
M  V30 21 C -2.238196 3.320820 2.394824 0
M  V30 22 O -2.374882 0.989002 3.733179 0
M  V30 23 O -2.152259 0.946351 1.278142 0
M  V30 24 N 0.753979 1.405389 1.594908 0
M  V30 25 N 0.980856 -1.440702 0.193155 0
M  V30 26 C 0.281332 -2.576721 0.365623 0
M  V30 27 C 0.118979 -3.364442 1.507092 0
M  V30 28 H -0.116572 -6.173952 2.551047 0
M  V30 29 H -0.843268 -4.822245 3.461801 0
M  V30 30 H -1.919224 -5.823639 2.438589 0
M  V30 31 H -1.881581 -5.669247 0.015786 0
M  V30 32 H -1.510790 -4.176830 -1.946369 0
M  V30 33 H -0.202338 -1.861615 -2.669015 0
M  V30 34 H 2.051402 2.187825 -4.130654 0
M  V30 35 H 3.236797 2.939175 -1.909354 0
M  V30 36 H 3.813308 1.163182 0.267405 0
M  V30 37 H 3.866291 1.272231 2.712044 0
M  V30 38 H -3.323561 3.282618 2.205589 0
M  V30 39 H -1.947865 3.864509 3.308115 0
M  V30 40 H -1.761777 3.770507 1.502590 0
M  V30 41 H 0.589234 -3.102275 2.445307 0
M  V30 END ATOM
M  V30 BEGIN BOND
M  V30 1 1 1 2
M  V30 2 2 2 3
M  V30 3 1 3 4
M  V30 4 2 4 5
M  V30 5 1 5 6
M  V30 6 1 6 7
M  V30 7 1 7 8
M  V30 8 2 8 9
M  V30 9 1 9 10
M  V30 10 1 10 11
M  V30 11 2 11 12
M  V30 12 1 12 13
M  V30 13 1 13 14
M  V30 14 2 14 15
M  V30 15 1 15 16
M  V30 16 1 16 17
M  V30 17 2 16 18
M  V30 18 1 18 19
M  V30 19 1 19 20
M  V30 20 1 20 21
M  V30 21 2 20 22
M  V30 22 2 20 23
M  V30 23 2 19 24
M  V30 24 2 7 25
M  V30 25 1 25 26
M  V30 26 2 26 27
M  V30 27 1 27 2
M  V30 28 1 26 5
M  V30 29 1 12 8
M  V30 30 1 24 14
M  V30 31 1 1 28
M  V30 32 1 1 29
M  V30 33 1 1 30
M  V30 34 1 3 31
M  V30 35 1 4 32
M  V30 36 1 6 33
M  V30 37 1 10 34
M  V30 38 1 11 35
M  V30 39 1 13 36
M  V30 40 1 15 37
M  V30 41 1 21 38
M  V30 42 1 21 39
M  V30 43 1 21 40
M  V30 44 1 27 41
M  V30 END BOND
M  V30 END CTAB
M  END
>  <Dataset>  (994) 
ChEMBL_Kinases

>  <Ligand_Instance>  (994) 
nan

>  <PDB_ID>  (994) 
nan

>  <Standardized_SMILES>  (994) 
Cc1ccc2[nH]c(-c3n[nH]cc3Nc3cc(Cl)nc(S(C)(=O)=O)n3)nc2c1

>  <Name>  (994) 
nan

>  <Pocket>  (994) 
nan

>  <ATP_Site>  (994) 
nan

>  <Peripheral>  (994) 
nan

>  <Num_H_Atoms_ProtBoundConf>  (994) 
nan

>  <Num_Resolved_Atoms>  (994) 
nan

>  <Num_Not_Resolved_Atoms>  (994) 
nan

$$$$
CHEMBL2392113
     RDKit          3D

  0  0  0  0  0  0  0  0  0  0999 V3000
M  V30 BEGIN CTAB
M  V30 COUNTS 55 58 0 0 0
M  V30 BEGIN ATOM
M  V30 1 C 3.183051 -1.908429 3.994344 0
M  V30 2 C 2.313952 -0.871715 4.664346 0
M  V30 3 N 2.619584 0.457663 4.314032 0
M  V30 4 C 3.839880 1.021765 4.744460 0
M  V30 5 C 5.065038 0.456090 4.102292 0
M  V30 6 C 1.544902 1.385624 4.202026 0
M  V30 7 C 0.545342 1.016124 3.170100 0
M  V30 8 C -0.620932 0.293730 3.318189 0
M  V30 9 C -1.438968 0.031724 2.239040 0
M  V30 10 C -1.096505 0.494515 0.986138 0
M  V30 11 N -1.656513 0.416061 -0.233826 0
M  V30 12 C -0.941756 1.035063 -1.176933 0
M  V30 13 C -1.115401 1.240741 -2.602419 0
M  V30 14 N -0.291525 1.942154 -3.398994 0
M  V30 15 N -0.726091 1.968801 -4.641430 0
M  V30 16 C -1.870710 1.274739 -4.711323 0
M  V30 17 C -2.129304 0.805191 -3.419610 0
M  V30 18 N -3.275556 0.031983 -3.171078 0
M  V30 19 C -3.544136 -1.305052 -2.710091 0
M  V30 20 C -4.807309 -1.835003 -2.550268 0
M  V30 21 C -4.856100 -3.132268 -2.101241 0
M  V30 22 Cl -6.468330 -3.792519 -1.903410 0
M  V30 23 N -3.740774 -3.826791 -1.839099 0
M  V30 24 C -2.514042 -3.310241 -1.994812 0
M  V30 25 S -1.129776 -4.312153 -1.617039 0
M  V30 26 C -0.663153 -5.195819 -3.091876 0
M  V30 27 O 0.045753 -3.521118 -1.163791 0
M  V30 28 O -1.553759 -5.340837 -0.614424 0
M  V30 29 N -2.421450 -2.034360 -2.435976 0
M  V30 30 N 0.113066 1.520438 -0.501526 0
M  V30 31 C 0.061859 1.219516 0.803921 0
M  V30 32 C 0.879264 1.479162 1.891772 0
M  V30 33 H 3.714297 -1.528333 3.097817 0
M  V30 34 H 3.890802 -2.399927 4.721150 0
M  V30 35 H 2.566682 -2.779497 3.616799 0
M  V30 36 H 1.254793 -1.160108 4.401104 0
M  V30 37 H 2.438435 -1.054499 5.776811 0
M  V30 38 H 3.771556 2.131516 4.536248 0
M  V30 39 H 3.951166 0.964094 5.851521 0
M  V30 40 H 5.019109 0.448853 2.998209 0
M  V30 41 H 5.313640 -0.510714 4.566258 0
M  V30 42 H 5.901525 1.190963 4.322351 0
M  V30 43 H 1.950673 2.406700 4.002373 0
M  V30 44 H 1.046162 1.504065 5.212872 0
M  V30 45 H -0.826663 -0.029444 4.322844 0
M  V30 46 H -2.336637 -0.527518 2.365748 0
M  V30 47 H -2.544475 -0.071920 -0.385365 0
M  V30 48 H -0.294285 2.435756 -5.466591 0
M  V30 49 H -2.456103 1.128691 -5.619228 0
M  V30 50 H -4.173584 0.568770 -3.372033 0
M  V30 51 H -5.628284 -1.182058 -2.790959 0
M  V30 52 H -0.080480 -6.103257 -2.832607 0
M  V30 53 H -1.566421 -5.555375 -3.653764 0
M  V30 54 H -0.089089 -4.576795 -3.795308 0
M  V30 55 H 1.772665 2.054321 1.679502 0
M  V30 END ATOM
M  V30 BEGIN BOND
M  V30 1 1 1 2
M  V30 2 1 2 3
M  V30 3 1 3 4
M  V30 4 1 4 5
M  V30 5 1 3 6
M  V30 6 1 6 7
M  V30 7 2 7 8
M  V30 8 1 8 9
M  V30 9 2 9 10
M  V30 10 1 10 11
M  V30 11 1 11 12
M  V30 12 1 12 13
M  V30 13 2 13 14
M  V30 14 1 14 15
M  V30 15 1 15 16
M  V30 16 2 16 17
M  V30 17 1 17 18
M  V30 18 1 18 19
M  V30 19 2 19 20
M  V30 20 1 20 21
M  V30 21 1 21 22
M  V30 22 2 21 23
M  V30 23 1 23 24
M  V30 24 1 24 25
M  V30 25 1 25 26
M  V30 26 2 25 27
M  V30 27 2 25 28
M  V30 28 2 24 29
M  V30 29 2 12 30
M  V30 30 1 30 31
M  V30 31 2 31 32
M  V30 32 1 32 7
M  V30 33 1 31 10
M  V30 34 1 17 13
M  V30 35 1 29 19
M  V30 36 1 1 33
M  V30 37 1 1 34
M  V30 38 1 1 35
M  V30 39 1 2 36
M  V30 40 1 2 37
M  V30 41 1 4 38
M  V30 42 1 4 39
M  V30 43 1 5 40
M  V30 44 1 5 41
M  V30 45 1 5 42
M  V30 46 1 6 43
M  V30 47 1 6 44
M  V30 48 1 8 45
M  V30 49 1 9 46
M  V30 50 1 11 47
M  V30 51 1 15 48
M  V30 52 1 16 49
M  V30 53 1 18 50
M  V30 54 1 20 51
M  V30 55 1 26 52
M  V30 56 1 26 53
M  V30 57 1 26 54
M  V30 58 1 32 55
M  V30 END BOND
M  V30 END CTAB
M  END
>  <Dataset>  (995) 
ChEMBL_Kinases

>  <Ligand_Instance>  (995) 
nan

>  <PDB_ID>  (995) 
nan

>  <Standardized_SMILES>  (995) 
CCN(CC)Cc1ccc2[nH]c(-c3n[nH]cc3Nc3cc(Cl)nc(S(C)(=O)=O)n3)nc2c1

>  <Name>  (995) 
nan

>  <Pocket>  (995) 
nan

>  <ATP_Site>  (995) 
nan

>  <Peripheral>  (995) 
nan

>  <Num_H_Atoms_ProtBoundConf>  (995) 
nan

>  <Num_Resolved_Atoms>  (995) 
nan

>  <Num_Not_Resolved_Atoms>  (995) 
nan

$$$$
CHEMBL3703148
     RDKit          3D

  0  0  0  0  0  0  0  0  0  0999 V3000
M  V30 BEGIN CTAB
M  V30 COUNTS 53 57 0 0 0
M  V30 BEGIN ATOM
M  V30 1 N 4.555007 -7.394872 0.860491 0
M  V30 2 C 4.160543 -6.057495 0.677952 0
M  V30 3 O 3.698517 -5.727763 1.808302 0
M  V30 4 N 4.249735 -5.245017 -0.492194 0
M  V30 5 C 3.716250 -3.937055 -0.194478 0
M  V30 6 C 4.687531 -3.075867 0.271701 0
M  V30 7 C 4.326115 -1.765586 0.605723 0
M  V30 8 C 2.990323 -1.454728 0.429869 0
M  V30 9 N 2.346618 -0.284730 0.662860 0
M  V30 10 C 1.038528 -0.429306 0.351091 0
M  V30 11 C 0.076847 0.659391 0.495114 0
M  V30 12 C -0.030197 1.089633 1.804570 0
M  V30 13 C -0.891490 2.114537 2.147018 0
M  V30 14 C -1.670747 2.741016 1.198838 0
M  V30 15 C -2.651956 3.833450 1.266454 0
M  V30 16 N -2.442044 4.900955 0.309213 0
M  V30 17 C -2.855498 4.416787 2.646476 0
M  V30 18 C -3.909450 3.315877 2.838329 0
M  V30 19 C -4.093504 3.411032 1.331564 0
M  V30 20 C -1.555131 2.297831 -0.125220 0
M  V30 21 C -0.686079 1.260547 -0.484407 0
M  V30 22 C 0.852331 -1.715269 -0.087275 0
M  V30 23 C -0.399102 -2.286258 -0.520408 0
M  V30 24 C -0.778932 -2.819045 -1.731460 0
M  V30 25 C -2.047904 -3.312224 -1.914465 0
M  V30 26 C -2.983494 -3.290160 -0.891598 0
M  V30 27 C -2.632497 -2.761580 0.336355 0
M  V30 28 C -1.342023 -2.263154 0.513096 0
M  V30 29 N 2.067627 -2.319562 -0.027557 0
M  V30 30 C 2.398855 -3.593748 -0.356495 0
M  V30 31 H 4.128145 -8.332106 0.859683 0
M  V30 32 H 5.444886 -7.932410 1.067796 0
M  V30 33 H 4.675183 -5.749130 -1.315469 0
M  V30 34 H 5.730455 -3.321922 0.407748 0
M  V30 35 H 5.031687 -1.034012 0.977437 0
M  V30 36 H 0.514634 0.698575 2.663794 0
M  V30 37 H -1.059037 2.531010 3.128470 0
M  V30 38 H -3.137346 5.659425 0.566891 0
M  V30 39 H -1.492537 5.345151 0.467420 0
M  V30 40 H -3.312500 5.429869 2.651549 0
M  V30 41 H -2.032882 4.274847 3.369936 0
M  V30 42 H -4.784822 3.636786 3.424244 0
M  V30 43 H -3.466363 2.358667 3.170236 0
M  V30 44 H -4.385289 2.503766 0.811099 0
M  V30 45 H -4.762835 4.270404 1.118287 0
M  V30 46 H -2.075745 2.658508 -1.001617 0
M  V30 47 H -0.542569 0.870971 -1.457233 0
M  V30 48 H 0.024697 -2.786873 -2.456457 0
M  V30 49 H -2.254156 -3.713605 -2.908518 0
M  V30 50 H -3.969251 -3.693521 -1.094458 0
M  V30 51 H -3.390521 -2.771274 1.082367 0
M  V30 52 H -1.209117 -1.877104 1.535338 0
M  V30 53 H 1.716569 -4.347641 -0.730399 0
M  V30 END ATOM
M  V30 BEGIN BOND
M  V30 1 1 1 2
M  V30 2 2 2 3
M  V30 3 1 2 4
M  V30 4 1 4 5
M  V30 5 1 5 6
M  V30 6 2 6 7
M  V30 7 1 7 8
M  V30 8 2 8 9
M  V30 9 1 9 10
M  V30 10 1 10 11
M  V30 11 2 11 12
M  V30 12 1 12 13
M  V30 13 2 13 14
M  V30 14 1 14 15
M  V30 15 1 15 16
M  V30 16 1 15 17
M  V30 17 1 17 18
M  V30 18 1 18 19
M  V30 19 1 14 20
M  V30 20 2 20 21
M  V30 21 2 10 22
M  V30 22 1 22 23
M  V30 23 2 23 24
M  V30 24 1 24 25
M  V30 25 2 25 26
M  V30 26 1 26 27
M  V30 27 2 27 28
M  V30 28 1 22 29
M  V30 29 1 29 30
M  V30 30 2 30 5
M  V30 31 1 29 8
M  V30 32 1 21 11
M  V30 33 1 28 23
M  V30 34 1 19 15
M  V30 35 1 1 31
M  V30 36 1 1 32
M  V30 37 1 4 33
M  V30 38 1 6 34
M  V30 39 1 7 35
M  V30 40 1 12 36
M  V30 41 1 13 37
M  V30 42 1 16 38
M  V30 43 1 16 39
M  V30 44 1 17 40
M  V30 45 1 17 41
M  V30 46 1 18 42
M  V30 47 1 18 43
M  V30 48 1 19 44
M  V30 49 1 19 45
M  V30 50 1 20 46
M  V30 51 1 21 47
M  V30 52 1 24 48
M  V30 53 1 25 49
M  V30 54 1 26 50
M  V30 55 1 27 51
M  V30 56 1 28 52
M  V30 57 1 30 53
M  V30 END BOND
M  V30 END CTAB
M  END
>  <Dataset>  (996) 
ChEMBL_Kinases

>  <Ligand_Instance>  (996) 
nan

>  <PDB_ID>  (996) 
nan

>  <Standardized_SMILES>  (996) 
NC(=O)Nc1ccc2nc(-c3ccc(C4(N)CCC4)cc3)c(-c3ccccc3)n2c1

>  <Name>  (996) 
nan

>  <Pocket>  (996) 
nan

>  <ATP_Site>  (996) 
nan

>  <Peripheral>  (996) 
nan

>  <Num_H_Atoms_ProtBoundConf>  (996) 
nan

>  <Num_Resolved_Atoms>  (996) 
nan

>  <Num_Not_Resolved_Atoms>  (996) 
nan

$$$$
CHEMBL3695585
     RDKit          3D

  0  0  0  0  0  0  0  0  0  0999 V3000
M  V30 BEGIN CTAB
M  V30 COUNTS 80 85 0 0 0
M  V30 BEGIN ATOM
M  V30 1 C 6.806393 -2.053403 0.631530 0
M  V30 2 O 6.867292 -0.627278 0.589545 0
M  V30 3 C 5.808621 0.017930 -0.063007 0
M  V30 4 C 5.850170 1.407659 -0.114306 0
M  V30 5 C 4.799102 2.055221 -0.762720 0
M  V30 6 C 3.755827 1.400625 -1.335867 0
M  V30 7 N 2.655057 1.994288 -2.010423 0
M  V30 8 N 2.441550 2.242926 -3.291195 0
M  V30 9 C 1.247941 2.822114 -3.477516 0
M  V30 10 C 0.780364 3.198390 -4.833780 0
M  V30 11 C 0.019597 2.018235 -5.447691 0
M  V30 12 C -0.100941 4.408730 -4.721378 0
M  V30 13 C 1.942838 3.455459 -5.768781 0
M  V30 14 C 0.695548 2.934323 -2.223342 0
M  V30 15 C 1.593873 2.406962 -1.294080 0
M  V30 16 N 1.250024 2.407534 0.096685 0
M  V30 17 C 0.561882 1.320572 0.679331 0
M  V30 18 O 0.272305 0.356628 -0.106209 0
M  V30 19 N 0.211793 1.297793 2.055803 0
M  V30 20 C -0.478305 0.105316 2.432517 0
M  V30 21 C -1.870412 0.096217 2.337176 0
M  V30 22 C -2.556264 -1.046322 2.696843 0
M  V30 23 C -1.820983 -2.128458 3.135764 0
M  V30 24 O -2.483204 -3.287141 3.503016 0
M  V30 25 C -3.809262 -3.553388 3.471870 0
M  V30 26 C -4.284898 -3.695762 4.786536 0
M  V30 27 C -5.633222 -3.972535 5.026096 0
M  V30 28 N -6.506485 -4.109782 4.006068 0
M  V30 29 C -6.053747 -3.976097 2.743898 0
M  V30 30 N -6.610670 -4.064529 1.525129 0
M  V30 31 C -5.660846 -3.857672 0.590941 0
M  V30 32 O -5.976629 -3.898304 -0.622403 0
M  V30 33 N -4.451974 -3.627363 1.188407 0
M  V30 34 C -3.276931 -3.415719 0.386817 0
M  V30 35 C -3.349686 -2.152174 -0.442915 0
M  V30 36 C -3.292828 -4.580796 -0.644525 0
M  V30 37 C -4.740191 -3.705493 2.475066 0
M  V30 38 C -0.444114 -2.174062 3.249494 0
M  V30 39 C 0.207521 -3.301763 3.698075 0
M  V30 40 C 1.598021 -3.207229 3.762260 0
M  V30 41 C 2.324595 -2.091693 3.415080 0
M  V30 42 C 1.613668 -0.991401 2.972032 0
M  V30 43 C 0.237462 -1.007354 2.880822 0
M  V30 44 C 3.749106 0.024122 -1.264914 0
M  V30 45 C 4.746601 -0.685287 -0.644241 0
M  V30 46 H 7.660848 -2.467512 1.205436 0
M  V30 47 H 5.880002 -2.316485 1.205463 0
M  V30 48 H 6.765740 -2.416845 -0.417643 0
M  V30 49 H 6.652595 2.001976 0.321432 0
M  V30 50 H 4.805382 3.129232 -0.817278 0
M  V30 51 H -0.563296 1.475681 -4.663566 0
M  V30 52 H 0.737919 1.309018 -5.911112 0
M  V30 53 H -0.674641 2.439369 -6.188432 0
M  V30 54 H -1.069625 4.276520 -5.247137 0
M  V30 55 H -0.282605 4.624988 -3.659217 0
M  V30 56 H 0.469321 5.281592 -5.121170 0
M  V30 57 H 1.807573 2.989670 -6.766556 0
M  V30 58 H 2.004760 4.561244 -5.978510 0
M  V30 59 H 2.880389 3.084943 -5.342828 0
M  V30 60 H -0.270860 3.365684 -2.059239 0
M  V30 61 H 1.504590 3.221304 0.718126 0
M  V30 62 H 0.499352 2.135037 2.586526 0
M  V30 63 H -2.357922 0.993810 1.981838 0
M  V30 64 H -3.625620 -1.065631 2.627379 0
M  V30 65 H -3.740175 -3.621302 5.710887 0
M  V30 66 H -6.071427 -4.094624 6.003392 0
M  V30 67 H -7.637230 -4.266791 1.390216 0
M  V30 68 H -2.321034 -3.547450 0.876848 0
M  V30 69 H -2.671202 -1.357826 -0.138469 0
M  V30 70 H -3.066019 -2.387549 -1.512863 0
M  V30 71 H -4.425859 -1.817029 -0.451074 0
M  V30 72 H -3.867819 -4.226916 -1.508520 0
M  V30 73 H -3.798312 -5.450077 -0.196970 0
M  V30 74 H -2.267761 -4.809205 -0.979564 0
M  V30 75 H -0.328203 -4.191772 3.977877 0
M  V30 76 H 2.173101 -4.069493 4.110560 0
M  V30 77 H 3.407311 -2.107478 3.496811 0
M  V30 78 H 2.169177 -0.096312 2.690829 0
M  V30 79 H 2.953657 -0.597456 -1.694906 0
M  V30 80 H 4.803751 -1.770903 -0.552260 0
M  V30 END ATOM
M  V30 BEGIN BOND
M  V30 1 1 1 2
M  V30 2 1 2 3
M  V30 3 2 3 4
M  V30 4 1 4 5
M  V30 5 2 5 6
M  V30 6 1 6 7
M  V30 7 1 7 8
M  V30 8 2 8 9
M  V30 9 1 9 10
M  V30 10 1 10 11
M  V30 11 1 10 12
M  V30 12 1 10 13
M  V30 13 1 9 14
M  V30 14 2 14 15
M  V30 15 1 15 16
M  V30 16 1 16 17
M  V30 17 2 17 18
M  V30 18 1 17 19
M  V30 19 1 19 20
M  V30 20 2 20 21
M  V30 21 1 21 22
M  V30 22 2 22 23
M  V30 23 1 23 24
M  V30 24 1 24 25
M  V30 25 2 25 26
M  V30 26 1 26 27
M  V30 27 2 27 28
M  V30 28 1 28 29
M  V30 29 1 29 30
M  V30 30 1 30 31
M  V30 31 2 31 32
M  V30 32 1 31 33
M  V30 33 1 33 34
M  V30 34 1 34 35
M  V30 35 1 34 36
M  V30 36 1 33 37
M  V30 37 1 23 38
M  V30 38 2 38 39
M  V30 39 1 39 40
M  V30 40 2 40 41
M  V30 41 1 41 42
M  V30 42 2 42 43
M  V30 43 1 6 44
M  V30 44 2 44 45
M  V30 45 1 45 3
M  V30 46 1 15 7
M  V30 47 1 43 20
M  V30 48 1 37 25
M  V30 49 1 43 38
M  V30 50 2 37 29
M  V30 51 1 1 46
M  V30 52 1 1 47
M  V30 53 1 1 48
M  V30 54 1 4 49
M  V30 55 1 5 50
M  V30 56 1 11 51
M  V30 57 1 11 52
M  V30 58 1 11 53
M  V30 59 1 12 54
M  V30 60 1 12 55
M  V30 61 1 12 56
M  V30 62 1 13 57
M  V30 63 1 13 58
M  V30 64 1 13 59
M  V30 65 1 14 60
M  V30 66 1 16 61
M  V30 67 1 19 62
M  V30 68 1 21 63
M  V30 69 1 22 64
M  V30 70 1 26 65
M  V30 71 1 27 66
M  V30 72 1 30 67
M  V30 73 1 34 68
M  V30 74 1 35 69
M  V30 75 1 35 70
M  V30 76 1 35 71
M  V30 77 1 36 72
M  V30 78 1 36 73
M  V30 79 1 36 74
M  V30 80 1 39 75
M  V30 81 1 40 76
M  V30 82 1 41 77
M  V30 83 1 42 78
M  V30 84 1 44 79
M  V30 85 1 45 80
M  V30 END BOND
M  V30 END CTAB
M  END
>  <Dataset>  (997) 
ChEMBL_Kinases

>  <Ligand_Instance>  (997) 
nan

>  <PDB_ID>  (997) 
nan

>  <Standardized_SMILES>  (997) 
COc1ccc(-n2nc(C(C)(C)C)cc2NC(=O)Nc2ccc(Oc3ccnc4[nH]c(=O)n(C(C)C)c34)c3ccccc23)cc1

>  <Name>  (997) 
nan

>  <Pocket>  (997) 
nan

>  <ATP_Site>  (997) 
nan

>  <Peripheral>  (997) 
nan

>  <Num_H_Atoms_ProtBoundConf>  (997) 
nan

>  <Num_Resolved_Atoms>  (997) 
nan

>  <Num_Not_Resolved_Atoms>  (997) 
nan

$$$$
CHEMBL3695575
     RDKit          3D

  0  0  0  0  0  0  0  0  0  0999 V3000
M  V30 BEGIN CTAB
M  V30 COUNTS 68 73 0 0 0
M  V30 BEGIN ATOM
M  V30 1 C 3.999136 -5.127113 3.516445 0
M  V30 2 C 3.678512 -4.724873 2.076923 0
M  V30 3 C 4.714345 -5.331563 1.189905 0
M  V30 4 C 2.319159 -5.336755 1.761853 0
M  V30 5 C 3.568624 -3.260187 1.998505 0
M  V30 6 C 3.282002 -2.571576 0.813812 0
M  V30 7 C 3.257990 -1.216625 1.120576 0
M  V30 8 N 2.982535 -0.262805 0.073506 0
M  V30 9 C 1.645223 0.153740 -0.222999 0
M  V30 10 O 0.761113 -0.357247 0.474287 0
M  V30 11 N 1.360013 1.097633 -1.257559 0
M  V30 12 C -0.037790 1.339625 -1.347700 0
M  V30 13 C -0.714615 2.333291 -0.641842 0
M  V30 14 C -2.103157 2.469190 -0.817955 0
M  V30 15 C -2.859702 1.641899 -1.682412 0
M  V30 16 O -4.114943 2.073418 -1.574546 0
M  V30 17 C -5.239592 1.596485 -1.051998 0
M  V30 18 C -5.525396 2.618528 -0.098552 0
M  V30 19 C -6.653959 2.584680 0.745338 0
M  V30 20 N -7.551538 1.553902 0.696029 0
M  V30 21 C -7.323048 0.567700 -0.187475 0
M  V30 22 N -8.078905 -0.515969 -0.380862 0
M  V30 23 C -7.806263 -1.471583 -1.273527 0
M  V30 24 O -8.560616 -2.476461 -1.411751 0
M  V30 25 C -6.680953 -1.368190 -2.064882 0
M  V30 26 N -5.931618 -0.301941 -1.879058 0
M  V30 27 C -6.217090 0.634222 -0.990537 0
M  V30 28 C -2.082724 0.709686 -2.319001 0
M  V30 29 C -2.855896 -0.039743 -3.168793 0
M  V30 30 C -2.329585 -1.034776 -3.949153 0
M  V30 31 C -0.952520 -1.261445 -3.847358 0
M  V30 32 C -0.199303 -0.490840 -2.987273 0
M  V30 33 C -0.729337 0.508833 -2.205005 0
M  V30 34 N 3.515306 -1.093791 2.416083 0
M  V30 35 C 3.562131 0.183016 3.044437 0
M  V30 36 C 4.805921 0.781234 2.820634 0
M  V30 37 C 5.087938 2.046221 3.343244 0
M  V30 38 C 4.118787 2.699077 4.085721 0
M  V30 39 Cl 4.402283 4.281354 4.768792 0
M  V30 40 C 2.901053 2.089674 4.292792 0
M  V30 41 C 2.612355 0.857964 3.789912 0
M  V30 42 N 3.699639 -2.297351 2.939898 0
M  V30 43 H 4.925933 -4.602022 3.778021 0
M  V30 44 H 4.234646 -6.211017 3.579603 0
M  V30 45 H 3.161920 -4.943498 4.205010 0
M  V30 46 H 4.883106 -4.798945 0.235163 0
M  V30 47 H 4.421493 -6.393039 0.959442 0
M  V30 48 H 5.685897 -5.419085 1.722228 0
M  V30 49 H 2.236469 -5.602187 0.675881 0
M  V30 50 H 2.167635 -6.292041 2.314692 0
M  V30 51 H 1.562506 -4.603271 2.095147 0
M  V30 52 H 3.113773 -3.054199 -0.159068 0
M  V30 53 H 3.720061 0.186100 -0.533870 0
M  V30 54 H 2.134775 1.507940 -1.826089 0
M  V30 55 H -0.050630 2.884924 -0.031256 0
M  V30 56 H -2.395804 3.302491 -0.168993 0
M  V30 57 H -5.053222 3.559674 0.213736 0
M  V30 58 H -7.014981 3.264965 1.511324 0
M  V30 59 H -8.939767 -0.614240 0.210822 0
M  V30 60 H -6.469774 -2.162255 -2.794730 0
M  V30 61 H -3.901306 0.099517 -3.326397 0
M  V30 62 H -2.865298 -1.670970 -4.642047 0
M  V30 63 H -0.431233 -2.020236 -4.413955 0
M  V30 64 H 0.865268 -0.656546 -2.900843 0
M  V30 65 H 5.639288 0.382018 2.264508 0
M  V30 66 H 6.027507 2.557869 3.204522 0
M  V30 67 H 2.097424 2.559648 4.872213 0
M  V30 68 H 1.701577 0.277003 3.881249 0
M  V30 END ATOM
M  V30 BEGIN BOND
M  V30 1 1 1 2
M  V30 2 1 2 3
M  V30 3 1 2 4
M  V30 4 1 2 5
M  V30 5 1 5 6
M  V30 6 2 6 7
M  V30 7 1 7 8
M  V30 8 1 8 9
M  V30 9 2 9 10
M  V30 10 1 9 11
M  V30 11 1 11 12
M  V30 12 2 12 13
M  V30 13 1 13 14
M  V30 14 2 14 15
M  V30 15 1 15 16
M  V30 16 1 16 17
M  V30 17 2 17 18
M  V30 18 1 18 19
M  V30 19 2 19 20
M  V30 20 1 20 21
M  V30 21 1 21 22
M  V30 22 1 22 23
M  V30 23 2 23 24
M  V30 24 1 23 25
M  V30 25 2 25 26
M  V30 26 1 26 27
M  V30 27 1 15 28
M  V30 28 2 28 29
M  V30 29 1 29 30
M  V30 30 2 30 31
M  V30 31 1 31 32
M  V30 32 2 32 33
M  V30 33 1 7 34
M  V30 34 1 34 35
M  V30 35 2 35 36
M  V30 36 1 36 37
M  V30 37 2 37 38
M  V30 38 1 38 39
M  V30 39 1 38 40
M  V30 40 2 40 41
M  V30 41 1 34 42
M  V30 42 2 42 5
M  V30 43 1 33 12
M  V30 44 1 41 35
M  V30 45 1 27 17
M  V30 46 1 33 28
M  V30 47 2 27 21
M  V30 48 1 1 43
M  V30 49 1 1 44
M  V30 50 1 1 45
M  V30 51 1 3 46
M  V30 52 1 3 47
M  V30 53 1 3 48
M  V30 54 1 4 49
M  V30 55 1 4 50
M  V30 56 1 4 51
M  V30 57 1 6 52
M  V30 58 1 8 53
M  V30 59 1 11 54
M  V30 60 1 13 55
M  V30 61 1 14 56
M  V30 62 1 18 57
M  V30 63 1 19 58
M  V30 64 1 22 59
M  V30 65 1 25 60
M  V30 66 1 29 61
M  V30 67 1 30 62
M  V30 68 1 31 63
M  V30 69 1 32 64
M  V30 70 1 36 65
M  V30 71 1 37 66
M  V30 72 1 40 67
M  V30 73 1 41 68
M  V30 END BOND
M  V30 END CTAB
M  END
>  <Dataset>  (998) 
ChEMBL_Kinases

>  <Ligand_Instance>  (998) 
nan

>  <PDB_ID>  (998) 
nan

>  <Standardized_SMILES>  (998) 
CC(C)(C)c1cc(NC(=O)Nc2ccc(Oc3ccnc4[nH]c(=O)cnc34)c3ccccc23)n(-c2ccc(Cl)cc2)n1

>  <Name>  (998) 
nan

>  <Pocket>  (998) 
nan

>  <ATP_Site>  (998) 
nan

>  <Peripheral>  (998) 
nan

>  <Num_H_Atoms_ProtBoundConf>  (998) 
nan

>  <Num_Resolved_Atoms>  (998) 
nan

>  <Num_Not_Resolved_Atoms>  (998) 
nan

$$$$
CHEMBL2392231
     RDKit          3D

  0  0  0  0  0  0  0  0  0  0999 V3000
M  V30 BEGIN CTAB
M  V30 COUNTS 38 41 0 0 0
M  V30 BEGIN ATOM
M  V30 1 Cl -2.315971 -4.479140 1.303747 0
M  V30 2 C -0.906499 -4.216335 2.366371 0
M  V30 3 C -0.648926 -5.333590 3.098368 0
M  V30 4 C 0.490194 -5.095552 3.925197 0
M  V30 5 Cl 1.062573 -6.342993 4.988633 0
M  V30 6 C 1.177729 -3.873346 3.918681 0
M  V30 7 C 0.734439 -2.841760 3.071229 0
M  V30 8 C 1.503201 -1.574672 3.053931 0
M  V30 9 N 2.444046 -1.620442 1.920286 0
M  V30 10 C 1.700772 -1.695448 0.704193 0
M  V30 11 C 1.170152 -0.497859 0.293083 0
M  V30 12 C 0.404166 -0.119416 -0.772731 0
M  V30 13 C -0.136292 1.235528 -1.038313 0
M  V30 14 C -0.926199 1.310683 -2.150428 0
M  V30 15 C -1.453216 2.543659 -2.456096 0
M  V30 16 C -1.209051 3.689297 -1.680878 0
M  V30 17 C -0.391391 3.439048 -0.595181 0
M  V30 18 C 0.200336 2.236283 -0.184767 0
M  V30 19 O -0.254821 4.686831 0.056386 0
M  V30 20 C -0.532117 5.721221 -0.885480 0
M  V30 21 O -1.542944 5.055693 -1.659506 0
M  V30 22 N 0.095260 -1.170381 -1.629341 0
M  V30 23 C 0.617878 -2.392984 -1.241028 0
M  V30 24 N 1.364737 -2.694958 -0.176088 0
M  V30 25 C -0.375297 -2.979097 2.225692 0
M  V30 26 H -1.173965 -6.262569 3.095689 0
M  V30 27 H 2.040067 -3.724653 4.561673 0
M  V30 28 H 0.755549 -0.764127 2.827519 0
M  V30 29 H 1.973289 -1.297853 3.993065 0
M  V30 30 H 3.496911 -1.609954 1.802266 0
M  V30 31 H 1.371487 0.392383 0.915565 0
M  V30 32 H -1.169934 0.490159 -2.800739 0
M  V30 33 H -2.105801 2.782105 -3.295853 0
M  V30 34 H 0.800839 2.213755 0.678469 0
M  V30 35 H -0.892689 6.631522 -0.410518 0
M  V30 36 H 0.413976 5.835945 -1.460412 0
M  V30 37 H 0.426088 -3.287399 -1.862809 0
M  V30 38 H -0.733856 -2.210719 1.582304 0
M  V30 END ATOM
M  V30 BEGIN BOND
M  V30 1 1 1 2
M  V30 2 2 2 3
M  V30 3 1 3 4
M  V30 4 1 4 5
M  V30 5 2 4 6
M  V30 6 1 6 7
M  V30 7 1 7 8
M  V30 8 1 8 9
M  V30 9 1 9 10
M  V30 10 2 10 11
M  V30 11 1 11 12
M  V30 12 1 12 13
M  V30 13 2 13 14
M  V30 14 1 14 15
M  V30 15 2 15 16
M  V30 16 1 16 17
M  V30 17 2 17 18
M  V30 18 1 17 19
M  V30 19 1 19 20
M  V30 20 1 20 21
M  V30 21 2 12 22
M  V30 22 1 22 23
M  V30 23 2 23 24
M  V30 24 2 7 25
M  V30 25 1 25 2
M  V30 26 1 24 10
M  V30 27 1 18 13
M  V30 28 1 21 16
M  V30 29 1 3 26
M  V30 30 1 6 27
M  V30 31 1 8 28
M  V30 32 1 8 29
M  V30 33 1 9 30
M  V30 34 1 11 31
M  V30 35 1 14 32
M  V30 36 1 15 33
M  V30 37 1 18 34
M  V30 38 1 20 35
M  V30 39 1 20 36
M  V30 40 1 23 37
M  V30 41 1 25 38
M  V30 END BOND
M  V30 END CTAB
M  END
>  <Dataset>  (999) 
ChEMBL_Kinases

>  <Ligand_Instance>  (999) 
nan

>  <PDB_ID>  (999) 
nan

>  <Standardized_SMILES>  (999) 
Clc1cc(Cl)cc(CNc2cc(-c3ccc4c(c3)OCO4)ncn2)c1

>  <Name>  (999) 
nan

>  <Pocket>  (999) 
nan

>  <ATP_Site>  (999) 
nan

>  <Peripheral>  (999) 
nan

>  <Num_H_Atoms_ProtBoundConf>  (999) 
nan

>  <Num_Resolved_Atoms>  (999) 
nan

>  <Num_Not_Resolved_Atoms>  (999) 
nan

$$$$
